REMARK  Name = ZINC62788338
REMARK  5 active torsions:
REMARK  status: ('A' for Active; 'I' for Inactive)
REMARK    1  A    between atoms: C_1  and  N_2
REMARK    2  A    between atoms: C_3  and  C_5
REMARK    3  A    between atoms: N_11  and  C_12
REMARK    4  A    between atoms: C_17  and  C_18
REMARK    5  A    between atoms: C_18  and  N_20
REMARK                            x       y       z     vdW  Elec       q    Type
REMARK                         _______ _______ _______ _____ _____    ______ ____
ROOT
ATOM      1  C   UNL     1      -3.571  -1.819   0.108  0.00  0.00    +0.041 A 
ATOM      2  C   UNL     1      -3.978  -1.179   1.271  0.00  0.00    +0.043 A 
ATOM      3  C   UNL     1      -5.077  -0.343   1.251  0.00  0.00    +0.043 A 
ATOM      4  C   UNL     1      -5.782  -0.136   0.074  0.00  0.00    +0.021 A 
ATOM      5  C   UNL     1      -5.393  -0.763  -1.089  0.00  0.00    +0.013 A 
ATOM      6  C   UNL     1      -4.279  -1.608  -1.086  0.00  0.00    +0.024 A 
ATOM      7 CL   UNL     1      -5.581   0.454   2.709  0.00  0.00    -0.083 Cl
ENDROOT
BRANCH   1  13
ATOM      8  C   UNL     1      -1.134  -2.155  -0.238  0.00  0.00    +0.159 C 
ATOM      9  C   UNL     1      -0.153  -2.486   0.892  0.00  0.00    +0.032 C 
ATOM     10  C   UNL     1      -0.198  -3.988   1.178  0.00  0.00    +0.004 C 
ATOM     11  C   UNL     1      -1.606  -4.381   1.631  0.00  0.00    +0.019 C 
ATOM     12  C   UNL     1      -2.604  -4.073   0.510  0.00  0.00    +0.106 C 
ATOM     13  N   UNL     1      -2.465  -2.661   0.125  0.00  0.00    -0.318 N 
BRANCH   8  16
ATOM     14  C   UNL     1      -0.579   1.365  -1.634  0.00  0.00    +0.128 C 
ATOM     15  N   UNL     1      -0.518  -0.086  -1.445  0.00  0.00    -0.317 N 
ATOM     16  C   UNL     1      -1.197  -0.662  -0.433  0.00  0.00    +0.233 C 
ATOM     17  O   UNL     1      -1.857   0.020   0.321  0.00  0.00    -0.274 OA
ATOM     18  H   UNL     1       0.010  -0.632  -2.048  0.00  0.00    +0.148 HD
ENDBRANCH   8  16
ENDBRANCH   1  13
BRANCH   6  19
ATOM     19  C   UNL     1      -3.853  -2.276  -2.327  0.00  0.00    +0.079 C 
ATOM     20  S   UNL     1      -2.601  -3.443  -2.285  0.00  0.00    -0.035 S 
BRANCH  19  21
ATOM     21  N   UNL     1      -4.450  -1.970  -3.496  0.00  0.00    -0.352 N 
ATOM     22  H   UNL     1      -5.160  -1.309  -3.520  0.00  0.00    +0.143 HD
ATOM     23  H   UNL     1      -4.170  -2.410  -4.314  0.00  0.00    +0.143 HD
ENDBRANCH  19  21
ENDBRANCH   6  19
TORSDOF 4
