REMARK  Name = ZINC38104559
REMARK  4 active torsions:
REMARK  status: ('A' for Active; 'I' for Inactive)
REMARK    1  A    between atoms: C_6  and  C_7
REMARK    2  A    between atoms: N_9  and  C_10
REMARK    3  A    between atoms: C_12  and  S_17
REMARK    4  A    between atoms: S_17  and  N_20
REMARK                            x       y       z     vdW  Elec       q    Type
REMARK                         _______ _______ _______ _____ _____    ______ ____
ROOT
ATOM      1  C   UNL     1      -2.412  -2.874   0.101  0.00  0.00    +0.054 A 
ATOM      2  C   UNL     1      -3.653  -2.250   0.105  0.00  0.00    +0.053 A 
ATOM      3  C   UNL     1      -4.805  -3.006   0.202  0.00  0.00    +0.107 A 
ATOM      4  C   UNL     1      -4.724  -4.384   0.295  0.00  0.00    +0.030 A 
ATOM      5  C   UNL     1      -3.490  -5.009   0.291  0.00  0.00    +0.024 A 
ATOM      6  C   UNL     1      -2.334  -4.258   0.189  0.00  0.00    +0.062 A 
ATOM      7 CL   UNL     1      -0.786  -5.044   0.177  0.00  0.00    -0.082 Cl
ENDROOT
BRANCH   1  10
ATOM      8  C   UNL     1      -1.183  -0.895   0.583  0.00  0.00    +0.248 C 
ATOM      9  O   UNL     1      -2.168  -0.427   1.120  0.00  0.00    -0.270 OA
ATOM     10  N   UNL     1      -1.244  -2.110   0.003  0.00  0.00    -0.280 N 
ATOM     11  H   UNL     1      -0.478  -2.455  -0.482  0.00  0.00    +0.155 HD
BRANCH   8  17
ATOM     12  C   UNL     1       0.148   1.129   1.164  0.00  0.00    +0.016 A 
ATOM     13  C   UNL     1       1.330   1.837   1.145  0.00  0.00    +0.039 A 
ATOM     14  C   UNL     1       2.452   1.301   0.531  0.00  0.00    +0.123 A 
ATOM     15  C   UNL     1       2.392   0.051  -0.066  0.00  0.00    +0.039 A 
ATOM     16  C   UNL     1       1.215  -0.666  -0.052  0.00  0.00    +0.016 A 
ATOM     17  C   UNL     1       0.081  -0.131   0.565  0.00  0.00    +0.037 A 
ATOM     18  F   UNL     1       3.608   1.999   0.515  0.00  0.00    -0.205 F 
ENDBRANCH   8  17
ENDBRANCH   1  10
BRANCH   3  19
ATOM     19  S   UNL     1      -6.379  -2.215   0.207  0.00  0.00    +0.056 S 
ATOM     20  O   UNL     1      -7.278  -3.104   0.856  0.00  0.00    -0.153 OA
ATOM     21  O   UNL     1      -6.164  -0.885   0.659  0.00  0.00    -0.153 OA
BRANCH  19  22
ATOM     22  N   UNL     1      -6.877  -2.105  -1.369  0.00  0.00    -0.204 NA
ATOM     23  H   UNL     1      -7.823  -2.120  -1.580  0.00  0.00    +0.144 HD
ATOM     24  H   UNL     1      -6.222  -2.025  -2.080  0.00  0.00    +0.144 HD
ENDBRANCH  19  22
ENDBRANCH   3  19
TORSDOF 4
