REMARK  Name = ZINC32986196
REMARK  4 active torsions:
REMARK  status: ('A' for Active; 'I' for Inactive)
REMARK    1  A    between atoms: N_10  and  S_11
REMARK    2  A    between atoms: S_11  and  C_14
REMARK    3  A    between atoms: C_17  and  C_20
REMARK    4  A    between atoms: C_24  and  C_33
REMARK                            x       y       z     vdW  Elec       q    Type
REMARK                         _______ _______ _______ _____ _____    ______ ____
ROOT
ATOM      1  C   UNL     1      -3.498   1.828   0.889  0.00  0.00    +0.109 A 
ATOM      2  C   UNL     1      -3.266   3.189   0.801  0.00  0.00    +0.029 A 
ATOM      3  C   UNL     1      -1.986   3.662   0.598  0.00  0.00    +0.015 A 
ATOM      4  C   UNL     1      -0.924   2.765   0.481  0.00  0.00    +0.037 A 
ATOM      5  C   UNL     1      -1.165   1.393   0.564  0.00  0.00    +0.015 A 
ATOM      6  C   UNL     1      -2.449   0.932   0.774  0.00  0.00    +0.029 A 
ENDROOT
BRANCH   4   7
ATOM      7  C   UNL     1       0.450   3.265   0.263  0.00  0.00    +0.251 C 
ATOM      8  O   UNL     1       0.781   4.346   0.709  0.00  0.00    -0.270 OA
ATOM      9  N   UNL     1       1.336   2.522  -0.430  0.00  0.00    -0.260 N 
ATOM     10  C   UNL     1       0.982   1.182  -0.927  0.00  0.00    +0.168 C 
ATOM     11  C   UNL     1       1.541   1.053  -2.352  0.00  0.00    +0.276 C 
ATOM     12  O   UNL     1       2.955   1.260  -2.313  0.00  0.00    -0.476 OA
ATOM     13  C   UNL     1       3.416   2.355  -1.653  0.00  0.00    +0.143 A 
ATOM     14  C   UNL     1       2.628   3.000  -0.704  0.00  0.00    +0.079 A 
ATOM     15  C   UNL     1       3.114   4.111  -0.034  0.00  0.00    +0.027 A 
ATOM     16  C   UNL     1       4.384   4.582  -0.312  0.00  0.00    +0.002 A 
ATOM     17  C   UNL     1       5.168   3.945  -1.257  0.00  0.00    +0.004 A 
ATOM     18  C   UNL     1       4.688   2.835  -1.926  0.00  0.00    +0.047 A 
BRANCH  11  19
ATOM     19  C   UNL     1       1.246  -0.324  -2.890  0.00  0.00    +0.253 C 
ATOM     20  O   UNL     1       2.156  -1.091  -3.124  0.00  0.00    -0.272 OA
ATOM     21  N   UNL     1      -0.028  -0.703  -3.111  0.00  0.00    -0.326 N 
ATOM     22  H   UNL     1      -0.243  -1.708  -3.503  0.00  0.00    +0.145 HD
ATOM     23  H   UNL     1      -0.853  -0.007  -2.898  0.00  0.00    +0.145 HD
ENDBRANCH  11  19
ENDBRANCH   4   7
BRANCH   1  24
ATOM     24  S   UNL     1      -5.135   1.231   1.149  0.00  0.00    +0.075 S 
ATOM     25  O   UNL     1      -5.010  -0.055   1.740  0.00  0.00    -0.150 OA
ATOM     26  O   UNL     1      -5.858   2.287   1.768  0.00  0.00    -0.150 OA
BRANCH  24  36
ATOM     27  C   UNL     1      -5.174  -2.567  -2.390  0.00  0.00    +0.000 A 
ATOM     28  C   UNL     1      -4.402  -2.251  -1.287  0.00  0.00    +0.002 A 
ATOM     29  C   UNL     1      -4.618  -1.066  -0.613  0.00  0.00    +0.025 A 
ATOM     30  C   UNL     1      -5.606  -0.189  -1.045  0.00  0.00    +0.054 A 
ATOM     31  C   UNL     1      -6.382  -0.508  -2.150  0.00  0.00    -0.025 A 
ATOM     32  C   UNL     1      -6.160  -1.700  -2.820  0.00  0.00    +0.005 A 
ATOM     33  C   UNL     1      -7.463   0.416  -2.647  0.00  0.00    +0.038 C 
ATOM     34  C   UNL     1      -7.893   1.379  -1.540  0.00  0.00    +0.025 C 
ATOM     35  C   UNL     1      -6.645   2.051  -0.955  0.00  0.00    +0.132 C 
ATOM     36  N   UNL     1      -5.816   1.003  -0.344  0.00  0.00    -0.203 N 
ENDBRANCH  24  36
ENDBRANCH   1  24
TORSDOF 4
