REMARK  Name = ZINC32943129
REMARK  8 active torsions:
REMARK  status: ('A' for Active; 'I' for Inactive)
REMARK    1  A    between atoms: C_1  and  C_2
REMARK    2  A    between atoms: C_4  and  C_33
REMARK    3  A    between atoms: C_6  and  N_8
REMARK    4  A    between atoms: N_10  and  C_11
REMARK    5  A    between atoms: C_11  and  C_12
REMARK    6  A    between atoms: C_12  and  C_13
REMARK    7  A    between atoms: N_23  and  C_24
REMARK    8  A    between atoms: C_24  and  C_26
REMARK                            x       y       z     vdW  Elec       q    Type
REMARK                         _______ _______ _______ _____ _____    ______ ____
ROOT
ATOM      1  N   UNL     1       0.828  -2.696   2.464  0.00  0.00    -0.328 N 
ATOM      2  C   UNL     1       0.274  -2.121   3.572  0.00  0.00    +0.194 C 
ATOM      3  N   UNL     1      -0.039  -2.890   4.655  0.00  0.00    -0.357 N 
ATOM      4  N   UNL     1       0.040  -0.818   3.595  0.00  0.00    -0.143 NA
ATOM      5  H   UNL     1      -0.433  -2.481   5.442  0.00  0.00    +0.162 HD
ATOM      6  H   UNL     1       0.573  -3.595   2.206  0.00  0.00    +0.169 HD
ENDROOT
BRANCH   1  12
ATOM      7  C   UNL     1       4.050   0.997   2.083  0.00  0.00    +0.044 C 
ATOM      8  C   UNL     1       3.339  -0.193   1.492  0.00  0.00    -0.048 A 
ATOM      9  C   UNL     1       3.610  -0.585   0.194  0.00  0.00    +0.006 A 
ATOM     10  C   UNL     1       2.959  -1.675  -0.353  0.00  0.00    -0.048 A 
ATOM     11  C   UNL     1       2.036  -2.378   0.398  0.00  0.00    +0.029 A 
ATOM     12  C   UNL     1       1.762  -1.987   1.702  0.00  0.00    +0.042 A 
ATOM     13  C   UNL     1       2.422  -0.894   2.249  0.00  0.00    +0.029 A 
ATOM     14  C   UNL     1       3.256  -2.098  -1.768  0.00  0.00    +0.044 C 
ENDBRANCH   1  12
BRANCH   4  15
ATOM     15  C   UNL     1      -0.073  -0.137   2.447  0.00  0.00    +0.270 C 
ATOM     16  O   UNL     1      -0.070  -0.731   1.384  0.00  0.00    -0.268 OA
BRANCH  15  17
ATOM     17  C   UNL     1      -0.203   1.338   2.471  0.00  0.00    +0.039 A 
ATOM     18  C   UNL     1      -0.095   2.031   3.676  0.00  0.00    +0.014 A 
ATOM     19  C   UNL     1      -0.216   3.405   3.692  0.00  0.00    +0.016 A 
ATOM     20  C   UNL     1      -0.445   4.096   2.514  0.00  0.00    +0.018 A 
ATOM     21  C   UNL     1      -0.553   3.413   1.315  0.00  0.00    +0.016 A 
ATOM     22  C   UNL     1      -0.428   2.040   1.286  0.00  0.00    +0.014 A 
ATOM     23 BR   UNL     1      -0.611   5.980   2.544  0.00  0.00    -0.050 Br
ENDBRANCH  15  17
ENDBRANCH   4  15
BRANCH   3  24
ATOM     24  C   UNL     1       0.219  -4.331   4.629  0.00  0.00    +0.120 C 
BRANCH  24  25
ATOM     25  C   UNL     1      -0.220  -4.952   5.957  0.00  0.00    +0.058 C 
BRANCH  25  26
ATOM     26  C   UNL     1       0.046  -6.435   5.930  0.00  0.00    -0.021 A 
ATOM     27  C   UNL     1      -0.828  -7.397   5.594  0.00  0.00    +0.087 A 
ATOM     28  N   UNL     1      -0.230  -8.624   5.688  0.00  0.00    -0.360 N 
ATOM     29  H   UNL     1      -0.662  -9.471   5.494  0.00  0.00    +0.165 HD
ATOM     30  C   UNL     1       1.077  -8.478   6.096  0.00  0.00    +0.047 A 
ATOM     31  C   UNL     1       1.309  -7.100   6.260  0.00  0.00    +0.003 A 
ATOM     32  C   UNL     1       2.565  -6.649   6.668  0.00  0.00    +0.010 A 
ATOM     33  C   UNL     1       3.566  -7.550   6.903  0.00  0.00    +0.001 A 
ATOM     34  C   UNL     1       3.343  -8.910   6.739  0.00  0.00    +0.002 A 
ATOM     35  C   UNL     1       2.108  -9.377   6.346  0.00  0.00    +0.026 A 
ENDBRANCH  25  26
ENDBRANCH  24  25
ENDBRANCH   3  24
TORSDOF 6
