REMARK  Name = ZINC22826119
REMARK  10 active torsions:
REMARK  status: ('A' for Active; 'I' for Inactive)
REMARK    1  A    between atoms: C_1  and  C_2
REMARK    2  A    between atoms: C_5  and  C_8
REMARK    3  A    between atoms: N_13  and  C_16
REMARK    4  A    between atoms: C_19  and  N_22
REMARK    5  A    between atoms: N_22  and  C_23
REMARK    6  A    between atoms: C_23  and  N_25
REMARK    7  A    between atoms: C_26  and  C_28
REMARK    8  A    between atoms: C_32  and  C_36
REMARK    9  A    between atoms: C_33  and  O_34
REMARK   10  A    between atoms: O_34  and  C_35
REMARK                            x       y       z     vdW  Elec       q    Type
REMARK                         _______ _______ _______ _____ _____    ______ ____
ROOT
ATOM      1  C   UNL     1       5.751  -4.719   1.417  0.00  0.00    +0.030 A 
ATOM      2  C   UNL     1       5.539  -5.992   1.929  0.00  0.00    +0.025 A 
ATOM      3  C   UNL     1       6.488  -6.575   2.745  0.00  0.00    +0.025 A 
ATOM      4  C   UNL     1       7.650  -5.885   3.062  0.00  0.00    +0.033 A 
ATOM      5  C   UNL     1       7.860  -4.609   2.554  0.00  0.00    +0.025 A 
ATOM      6  C   UNL     1       6.914  -4.028   1.734  0.00  0.00    +0.025 A 
ENDROOT
BRANCH   1  12
ATOM      7  C   UNL     1       1.074  -2.662  -0.202  0.00  0.00    +0.247 C 
ATOM      8  O   UNL     1       0.182  -3.455  -0.429  0.00  0.00    -0.270 OA
ATOM      9  N   UNL     1       2.360  -3.060  -0.255  0.00  0.00    -0.295 N 
ATOM     10  C   UNL     1       3.451  -2.137   0.093  0.00  0.00    +0.127 C 
ATOM     11  C   UNL     1       4.359  -2.831   1.121  0.00  0.00    +0.124 C 
ATOM     12  N   UNL     1       4.792  -4.130   0.587  0.00  0.00    -0.327 N 
ATOM     13  C   UNL     1       3.648  -5.029   0.383  0.00  0.00    +0.124 C 
ATOM     14  C   UNL     1       2.710  -4.427  -0.669  0.00  0.00    +0.127 C 
BRANCH   7  19
ATOM     15  C   UNL     1      -0.195   2.798   1.101  0.00  0.00    +0.044 C 
ATOM     16  C   UNL     1       0.137   1.368   0.760  0.00  0.00    -0.050 A 
ATOM     17  C   UNL     1      -0.688   0.347   1.196  0.00  0.00    +0.004 A 
ATOM     18  C   UNL     1      -0.389  -0.964   0.887  0.00  0.00    +0.013 A 
ATOM     19  C   UNL     1       0.748  -1.259   0.132  0.00  0.00    +0.037 A 
ATOM     20  C   UNL     1       1.575  -0.223  -0.304  0.00  0.00    +0.013 A 
ATOM     21  C   UNL     1       1.266   1.083   0.012  0.00  0.00    +0.004 A 
ENDBRANCH   7  19
ENDBRANCH   1  12
BRANCH   4  22
ATOM     22  N   UNL     1       8.611  -6.474   3.893  0.00  0.00    -0.297 N 
ATOM     23  H   UNL     1       8.918  -7.518   3.726  0.00  0.00    +0.154 HD
BRANCH  22  24
ATOM     24  C   UNL     1       9.160  -5.764   4.898  0.00  0.00    +0.141 C 
ATOM     25  S   UNL     1       8.765  -4.110   5.093  0.00  0.00    -0.018 S 
BRANCH  24  26
ATOM     26  N   UNL     1      10.020  -6.356   5.751  0.00  0.00    -0.263 N 
ATOM     27  C   UNL     1      10.569  -5.646   6.756  0.00  0.00    +0.253 C 
ATOM     28  O   UNL     1      10.289  -4.471   6.894  0.00  0.00    -0.270 OA
ATOM     29  H   UNL     1      10.274  -7.419   5.626  0.00  0.00    +0.157 HD
BRANCH  27  30
ATOM     30  C   UNL     1      11.510  -6.293   7.688  0.00  0.00    +0.079 A 
ATOM     31  C   UNL     1      11.835  -7.643   7.534  0.00  0.00    +0.017 A 
ATOM     32  C   UNL     1      12.715  -8.242   8.409  0.00  0.00    +0.001 A 
ATOM     33  C   UNL     1      13.279  -7.512   9.442  0.00  0.00    +0.007 A 
ATOM     34  C   UNL     1      12.967  -6.178   9.606  0.00  0.00    -0.008 A 
ATOM     35  C   UNL     1      12.088  -5.556   8.732  0.00  0.00    +0.135 A 
ATOM     36  C   UNL     1      13.587  -5.393  10.734  0.00  0.00    +0.047 C 
BRANCH  35  37
ATOM     37  O   UNL     1      11.784  -4.244   8.889  0.00  0.00    -0.494 OA
ATOM     38  C   UNL     1      10.668  -3.932   9.724  0.00  0.00    +0.277 C 
ENDBRANCH  35  37
ENDBRANCH  27  30
ENDBRANCH  24  26
ENDBRANCH  22  24
ENDBRANCH   4  22
TORSDOF 7
