REMARK  Name = ZINC18222551
REMARK  5 active torsions:
REMARK  status: ('A' for Active; 'I' for Inactive)
REMARK    1  A    between atoms: C_6  and  N_7
REMARK    2  A    between atoms: C_8  and  C_10
REMARK    3  A    between atoms: C_10  and  S_11
REMARK    4  A    between atoms: S_11  and  C_12
REMARK    5  A    between atoms: C_18  and  N_22
REMARK                            x       y       z     vdW  Elec       q    Type
REMARK                         _______ _______ _______ _____ _____    ______ ____
ROOT
ATOM      1  S   UNL     1      -2.125  -4.603  -0.338  0.00  0.00    -0.079 S 
ENDROOT
BRANCH   1   2
ATOM      2  C   UNL     1      -3.718  -5.347  -0.452  0.00  0.00    +0.168 A 
ATOM      3  N   UNL     1      -3.952  -6.688  -0.563  0.00  0.00    -0.333 N 
ATOM      4  H   UNL     1      -3.281  -7.389  -0.594  0.00  0.00    +0.168 HD
ATOM      5  C   UNL     1      -5.325  -6.862  -0.624  0.00  0.00    +0.067 A 
ATOM      6  C   UNL     1      -6.149  -7.971  -0.739  0.00  0.00    +0.030 A 
ATOM      7  C   UNL     1      -7.519  -7.808  -0.773  0.00  0.00    +0.035 A 
ATOM      8  C   UNL     1      -8.078  -6.541  -0.695  0.00  0.00    +0.128 A 
ATOM      9  C   UNL     1      -7.274  -5.429  -0.581  0.00  0.00    +0.062 A 
ATOM     10  C   UNL     1      -5.885  -5.577  -0.544  0.00  0.00    +0.092 A 
ATOM     11  N   UNL     1      -4.856  -4.697  -0.436  0.00  0.00    -0.222 NA
BRANCH   8  12
ATOM     12  N   UNL     1      -9.549  -6.384  -0.734  0.00  0.00    +0.056 N 
ATOM     13  O   UNL     1     -10.259  -7.358  -0.833  0.00  0.00    -0.126 OA
ATOM     14  O   UNL     1     -10.041  -5.282  -0.665  0.00  0.00    -0.126 OA
ENDBRANCH   8  12
ENDBRANCH   1   2
BRANCH   1  15
ATOM     15  C   UNL     1      -2.478  -2.828  -0.205  0.00  0.00    +0.173 C 
BRANCH  15  17
ATOM     16  N   UNL     1      -1.199  -0.722   0.010  0.00  0.00    -0.285 N 
ATOM     17  C   UNL     1      -1.183  -2.065  -0.100  0.00  0.00    +0.227 C 
ATOM     18  O   UNL     1      -0.126  -2.659  -0.113  0.00  0.00    -0.275 OA
ATOM     19  H   UNL     1      -2.044  -0.253   0.097  0.00  0.00    +0.155 HD
BRANCH  16  25
ATOM     20  C   UNL     1       1.072  -0.453  -0.766  0.00  0.00    +0.024 A 
ATOM     21  C   UNL     1       2.256   0.258  -0.777  0.00  0.00    +0.016 A 
ATOM     22  C   UNL     1       2.377   1.416  -0.030  0.00  0.00    +0.013 A 
ATOM     23  C   UNL     1       1.312   1.866   0.730  0.00  0.00    +0.016 A 
ATOM     24  C   UNL     1       0.126   1.159   0.745  0.00  0.00    +0.024 A 
ATOM     25  C   UNL     1       0.002  -0.004  -0.004  0.00  0.00    +0.033 A 
ATOM     26  I   UNL     1       4.175   2.490  -0.050  0.00  0.00    -0.044 I 
ENDBRANCH  16  25
ENDBRANCH  15  17
ENDBRANCH   1  15
TORSDOF 5
