REMARK  Name = ZINC21911048
REMARK  10 active torsions:
REMARK  status: ('A' for Active; 'I' for Inactive)
REMARK    1  A    between atoms: C_1  and  C_2
REMARK    2  A    between atoms: C_2  and  S_3
REMARK    3  A    between atoms: S_3  and  C_4
REMARK    4  A    between atoms: C_5  and  S_21
REMARK    5  A    between atoms: C_6  and  N_20
REMARK    6  A    between atoms: N_7  and  C_9
REMARK    7  A    between atoms: C_9  and  C_10
REMARK    8  A    between atoms: N_12  and  C_13
REMARK    9  A    between atoms: S_21  and  C_24
REMARK   10  A    between atoms: C_27  and  C_30
REMARK                            x       y       z     vdW  Elec       q    Type
REMARK                         _______ _______ _______ _____ _____    ______ ____
ROOT
ATOM      1  C   UNL     1       5.634   6.954  -0.296  0.00  0.00    +0.146 A 
ATOM      2  C   UNL     1       5.602   6.845   1.102  0.00  0.00    +0.166 A 
ATOM      3  C   UNL     1       4.376   6.370   1.455  0.00  0.00    +0.142 A 
ATOM      4  N   UNL     1       3.666   6.179   0.313  0.00  0.00    -0.239 N 
ATOM      5  N   UNL     1       4.475   6.556  -0.767  0.00  0.00    -0.161 NA
ENDROOT
BRANCH   3   6
ATOM      6  N   UNL     1       3.932   6.122   2.750  0.00  0.00    -0.342 N 
ATOM      7  H   UNL     1       2.915   5.737   2.919  0.00  0.00    +0.144 HD
ATOM      8  H   UNL     1       4.597   6.311   3.605  0.00  0.00    +0.144 HD
ENDBRANCH   3   6
BRANCH   2   9
ATOM      9  S   UNL     1       6.912   7.256   2.206  0.00  0.00    +0.031 S 
ATOM     10  O   UNL     1       6.696   6.504   3.392  0.00  0.00    -0.164 OA
ATOM     11  O   UNL     1       8.117   7.167   1.457  0.00  0.00    -0.164 OA
BRANCH   9  12
ATOM     12  C   UNL     1       6.714   8.951   2.641  0.00  0.00    +0.094 A 
ATOM     13  C   UNL     1       7.324   9.935   1.886  0.00  0.00    +0.027 A 
ATOM     14  C   UNL     1       7.165  11.266   2.225  0.00  0.00    +0.005 A 
ATOM     15  C   UNL     1       6.403  11.612   3.325  0.00  0.00    -0.050 A 
ATOM     16  C   UNL     1       5.797  10.628   4.084  0.00  0.00    +0.005 A 
ATOM     17  C   UNL     1       5.953   9.298   3.742  0.00  0.00    +0.027 A 
ATOM     18  C   UNL     1       6.233  13.062   3.697  0.00  0.00    +0.044 C 
ENDBRANCH   9  12
ENDBRANCH   2   9
BRANCH   1  19
ATOM     19  S   UNL     1       6.996   7.527  -1.256  0.00  0.00    -0.102 S 
BRANCH  19  21
ATOM     20  C   UNL     1       7.501   7.899  -3.919  0.00  0.00    +0.015 C 
ATOM     21  C   UNL     1       6.401   7.425  -2.967  0.00  0.00    +0.072 C 
ENDBRANCH  19  21
ENDBRANCH   1  19
BRANCH   4  22
ATOM     22  C   UNL     1       2.293   5.675   0.226  0.00  0.00    +0.241 C 
BRANCH  22  23
ATOM     23  C   UNL     1       2.317   4.173   0.104  0.00  0.00    +0.239 C 
ATOM     24  O   UNL     1       3.376   3.582   0.091  0.00  0.00    -0.273 OA
ATOM     25  N   UNL     1       1.161   3.486   0.010  0.00  0.00    -0.284 N 
ATOM     26  H   UNL     1       0.205   4.025  -0.066  0.00  0.00    +0.155 HD
BRANCH  25  27
ATOM     27  C   UNL     1       1.177   2.086   0.008  0.00  0.00    +0.034 A 
ATOM     28  C   UNL     1       2.134   1.400   0.744  0.00  0.00    +0.025 A 
ATOM     29  C   UNL     1       2.147   0.019   0.741  0.00  0.00    +0.022 A 
ATOM     30  C   UNL     1       1.208  -0.681   0.004  0.00  0.00    +0.041 A 
ATOM     31  C   UNL     1       0.253   0.000  -0.731  0.00  0.00    +0.022 A 
ATOM     32  C   UNL     1       0.236   1.381  -0.731  0.00  0.00    +0.025 A 
ATOM     33 CL   UNL     1       1.227  -2.417   0.002  0.00  0.00    -0.084 Cl
ENDBRANCH  25  27
ENDBRANCH  22  23
ENDBRANCH   4  22
TORSDOF 8
