REMARK  Name = ZINC62243120
REMARK  4 active torsions:
REMARK  status: ('A' for Active; 'I' for Inactive)
REMARK    1  A    between atoms: C_5  and  C_8
REMARK    2  A    between atoms: C_5  and  N_12
REMARK    3  A    between atoms: N_9  and  O_10
REMARK    4  A    between atoms: C_13  and  C_15
REMARK                            x       y       z     vdW  Elec       q    Type
REMARK                         _______ _______ _______ _____ _____    ______ ____
ROOT
ATOM      1  C   UNL     1      -0.547   1.130   0.098  0.00  0.00    +0.000 C 
ATOM      2  C   UNL     1       0.818   1.590  -0.453  0.00  0.00    +0.000 C 
ATOM      3  C   UNL     1       1.744   1.837   0.708  0.00  0.00    +0.002 C 
ATOM      4  C   UNL     1       2.614   0.610   1.040  0.00  0.00    +0.033 C 
ATOM      5  C   UNL     1       1.829  -0.714   0.974  0.00  0.00    +0.093 C 
ATOM      6  C   UNL     1       0.457  -0.601   1.583  0.00  0.00    +0.033 C 
ATOM      7  C   UNL     1      -0.552  -0.280   0.461  0.00  0.00    +0.002 C 
ENDROOT
BRANCH   5   8
ATOM      8  C   UNL     1       2.603  -1.777   1.710  0.00  0.00    +0.155 C 
ATOM      9  N   UNL     1       2.676  -1.746   3.000  0.00  0.00    -0.075 NA
ATOM     10  N   UNL     1       3.233  -2.780   1.009  0.00  0.00    -0.342 N 
ATOM     11  H   UNL     1       3.217  -2.778   0.039  0.00  0.00    +0.144 HD
ATOM     12  H   UNL     1       3.694  -3.489   1.484  0.00  0.00    +0.144 HD
BRANCH   9  13
ATOM     13  O   UNL     1       2.123  -0.656   3.715  0.00  0.00    -0.408 OA
ATOM     14  H   UNL     1       2.226  -0.722   4.674  0.00  0.00    +0.328 HD
ENDBRANCH   9  13
ENDBRANCH   5   8
BRANCH   5  15
ATOM     15  N   UNL     1       1.694  -1.116  -0.428  0.00  0.00    -0.303 N 
ATOM     16  C   UNL     1       1.129  -2.300  -0.739  0.00  0.00    +0.219 C 
ATOM     17  O   UNL     1       0.635  -2.983   0.133  0.00  0.00    -0.275 OA
ATOM     18  H   UNL     1       2.010  -0.530  -1.133  0.00  0.00    +0.150 HD
BRANCH  16  19
ATOM     19  C   UNL     1       1.113  -2.775  -2.168  0.00  0.00    +0.101 C 
ATOM     20  C   UNL     1       0.416  -4.136  -2.248  0.00  0.00    +0.017 C 
ATOM     21  C   UNL     1       0.336  -4.573  -3.714  0.00  0.00    +0.029 C 
ATOM     22  C   UNL     1      -0.398  -3.497  -4.519  0.00  0.00    +0.160 C 
ATOM     23  O   UNL     1       0.285  -2.249  -4.377  0.00  0.00    -0.379 OA
ATOM     24  C   UNL     1       0.351  -1.768  -3.034  0.00  0.00    +0.172 C 
ENDBRANCH  16  19
ENDBRANCH   5  15
TORSDOF 4
