REMARK  Name = ZINC46560473
REMARK  9 active torsions:
REMARK  status: ('A' for Active; 'I' for Inactive)
REMARK    1  A    between atoms: C_1  and  C_2
REMARK    2  A    between atoms: C_2  and  C_4
REMARK    3  A    between atoms: C_2  and  N_23
REMARK    4  A    between atoms: N_6  and  C_7
REMARK    5  A    between atoms: C_7  and  C_9
REMARK    6  A    between atoms: C_7  and  C_15
REMARK    7  A    between atoms: C_18  and  O_21
REMARK    8  A    between atoms: O_21  and  C_22
REMARK    9  A    between atoms: C_32  and  C_35
REMARK                            x       y       z     vdW  Elec       q    Type
REMARK                         _______ _______ _______ _____ _____    ______ ____
ROOT
ATOM      1  C   UNL     1       0.363   1.431   0.390  0.00  0.00    -0.004 C 
ATOM      2  C   UNL     1       0.002  -0.004   0.002  0.00  0.00    +0.016 C 
ENDROOT
BRANCH   2   3
ATOM      3  N   UNL     1       0.341  -0.911   1.107  0.00  0.00    +0.389 N 
ATOM      4  C   UNL     1      -0.430  -0.536   2.299  0.00  0.00    -0.059 C 
ATOM      5  C   UNL     1       0.005  -1.407   3.482  0.00  0.00    +0.088 C 
ATOM      6  N   UNL     1      -0.124  -2.820   3.095  0.00  0.00    -0.319 N 
ATOM      7  C   UNL     1       0.482  -3.249   1.825  0.00  0.00    +0.088 C 
ATOM      8  C   UNL     1       0.024  -2.291   0.720  0.00  0.00    -0.059 C 
ATOM      9  C   UNL     1      -0.801  -3.724   3.905  0.00  0.00    +0.121 A 
ATOM     10  C   UNL     1      -1.541  -3.259   4.988  0.00  0.00    +0.044 A 
ATOM     11  C   UNL     1      -2.210  -4.170   5.786  0.00  0.00    +0.017 A 
ATOM     12  C   UNL     1      -2.116  -5.520   5.473  0.00  0.00    +0.073 A 
ATOM     13  C   UNL     1      -1.364  -5.910   4.383  0.00  0.00    +0.125 A 
ATOM     14  N   UNL     1      -0.741  -5.019   3.636  0.00  0.00    -0.240 NA
ATOM     15  H   UNL     1       1.326  -0.838   1.310  0.00  0.00    -0.081 HD
BRANCH  12  16
ATOM     16  C   UNL     1      -2.827  -6.548   6.314  0.00  0.00    +0.419 C 
ATOM     17  F   UNL     1      -4.112  -6.761   5.803  0.00  0.00    -0.166 F 
ATOM     18  F   UNL     1      -2.110  -7.749   6.289  0.00  0.00    -0.166 F 
ATOM     19  F   UNL     1      -2.920  -6.088   7.632  0.00  0.00    -0.166 F 
ENDBRANCH  12  16
ENDBRANCH   2   3
BRANCH   2  20
ATOM     20  C   UNL     1       0.775  -0.401  -1.229  0.00  0.00    +0.200 C 
ATOM     21  O   UNL     1       1.846  -0.960  -1.119  0.00  0.00    -0.278 OA
ATOM     22  N   UNL     1       0.277  -0.136  -2.453  0.00  0.00    -0.306 N 
ATOM     23  H   UNL     1      -0.580   0.311  -2.541  0.00  0.00    +0.150 HD
BRANCH  22  24
ATOM     24  C   UNL     1       1.028  -0.522  -3.650  0.00  0.00    +0.133 C 
BRANCH  24  25
ATOM     25  C   UNL     1       2.030   0.554  -3.982  0.00  0.00    -0.023 A 
ATOM     26  C   UNL     1       1.685   1.885  -3.849  0.00  0.00    +0.006 A 
ATOM     27  C   UNL     1       2.603   2.872  -4.154  0.00  0.00    +0.000 A 
ATOM     28  C   UNL     1       3.868   2.527  -4.593  0.00  0.00    +0.000 A 
ATOM     29  C   UNL     1       4.214   1.195  -4.726  0.00  0.00    +0.000 A 
ATOM     30  C   UNL     1       3.296   0.208  -4.416  0.00  0.00    +0.006 A 
ENDBRANCH  24  25
BRANCH  24  31
ATOM     31  C   UNL     1       0.077  -0.697  -4.805  0.00  0.00    -0.023 A 
ATOM     32  C   UNL     1      -0.972   0.187  -4.976  0.00  0.00    +0.009 A 
ATOM     33  C   UNL     1      -1.845   0.028  -6.035  0.00  0.00    +0.046 A 
ATOM     34  C   UNL     1      -1.669  -1.020  -6.926  0.00  0.00    +0.120 A 
ATOM     35  C   UNL     1      -0.615  -1.906  -6.753  0.00  0.00    +0.046 A 
ATOM     36  C   UNL     1       0.259  -1.739  -5.696  0.00  0.00    +0.009 A 
BRANCH  34  37
ATOM     37  O   UNL     1      -2.527  -1.179  -7.968  0.00  0.00    -0.495 OA
ATOM     38  C   UNL     1      -2.284  -2.280  -8.847  0.00  0.00    +0.277 C 
ENDBRANCH  34  37
ENDBRANCH  24  31
ENDBRANCH  22  24
ENDBRANCH   2  20
TORSDOF 7
