REMARK  Name = ZINC62960040
REMARK  4 active torsions:
REMARK  status: ('A' for Active; 'I' for Inactive)
REMARK    1  A    between atoms: C_3  and  S_9
REMARK    2  A    between atoms: C_6  and  N_7
REMARK    3  A    between atoms: N_7  and  N_8
REMARK    4  A    between atoms: S_9  and  N_12
REMARK                            x       y       z     vdW  Elec       q    Type
REMARK                         _______ _______ _______ _____ _____    ______ ____
ROOT
ATOM      1  S   UNL     1       3.890   2.319  -0.024  0.00  0.00    +0.061 S 
ATOM      2  O   UNL     1       4.872   1.461  -0.589  0.00  0.00    -0.153 OA
ATOM      3  O   UNL     1       3.595   3.599  -0.566  0.00  0.00    -0.153 OA
ENDROOT
BRANCH   1   4
ATOM      4  N   UNL     1       4.326   2.562   1.555  0.00  0.00    -0.177 NA
ATOM      5  C   UNL     1       3.870   3.754   2.282  0.00  0.00    +0.110 C 
ATOM      6  C   UNL     1       5.091   4.472   2.866  0.00  0.00    +0.024 C 
ATOM      7  C   UNL     1       5.906   3.488   3.703  0.00  0.00    -0.027 C 
ATOM      8  C   UNL     1       5.055   2.960   4.868  0.00  0.00    +0.007 C 
ATOM      9  C   UNL     1       5.780   3.379   6.165  0.00  0.00    +0.001 C 
ATOM     10  C   UNL     1       6.635   4.601   5.745  0.00  0.00    +0.001 C 
ATOM     11  C   UNL     1       7.116   4.210   4.324  0.00  0.00    +0.007 C 
ATOM     12  C   UNL     1       6.388   2.324   2.839  0.00  0.00    +0.024 C 
ATOM     13  C   UNL     1       5.172   1.586   2.256  0.00  0.00    +0.110 C 
ENDBRANCH   1   4
BRANCH   1  16
ATOM     14  C   UNL     1      -0.017   1.385   0.010  0.00  0.00    +0.026 A 
ATOM     15  C   UNL     1       1.171   2.090   0.002  0.00  0.00    +0.030 A 
ATOM     16  C   UNL     1       2.377   1.415  -0.013  0.00  0.00    +0.106 A 
ATOM     17  C   UNL     1       2.400   0.032  -0.021  0.00  0.00    +0.030 A 
ATOM     18  C   UNL     1       1.216  -0.679  -0.014  0.00  0.00    +0.026 A 
ATOM     19  C   UNL     1       0.002  -0.004   0.002  0.00  0.00    +0.041 A 
BRANCH  19  20
ATOM     20  N   UNL     1      -1.197  -0.720   0.010  0.00  0.00    -0.283 N 
ATOM     21  H   UNL     1      -2.044  -0.248   0.021  0.00  0.00    +0.166 HD
BRANCH  20  22
ATOM     22  N   UNL     1      -1.177  -2.086   0.003  0.00  0.00    -0.257 NA
ATOM     23  H   UNL     1      -2.113  -2.462   0.010  0.00  0.00    +0.140 HD
ATOM     24  H   UNL     1      -0.653  -2.436  -0.786  0.00  0.00    +0.140 HD
ENDBRANCH  20  22
ENDBRANCH  19  20
ENDBRANCH   1  16
TORSDOF 4
