REMARK  Name = ZINC13265990
REMARK  9 active torsions:
REMARK  status: ('A' for Active; 'I' for Inactive)
REMARK    1  A    between atoms: C_1  and  C_2
REMARK    2  A    between atoms: C_2  and  C_3
REMARK    3  A    between atoms: C_3  and  C_5
REMARK    4  A    between atoms: C_3  and  N_6
REMARK    5  A    between atoms: C_10  and  C_12
REMARK    6  A    between atoms: C_12  and  S_13
REMARK    7  A    between atoms: S_13  and  C_14
REMARK    8  A    between atoms: C_18  and  C_32
REMARK    9  A    between atoms: N_24  and  C_25
REMARK                            x       y       z     vdW  Elec       q    Type
REMARK                         _______ _______ _______ _____ _____    ______ ____
ROOT
ATOM      1  C   UNL     1      -5.241  -7.240  -0.212  0.00  0.00    +0.177 A 
ATOM      2  N   UNL     1      -4.111  -7.620   0.331  0.00  0.00    -0.223 NA
ATOM      3  C   UNL     1      -4.003  -8.796   0.993  0.00  0.00    +0.080 A 
ATOM      4  C   UNL     1      -2.797  -9.196   1.576  0.00  0.00    +0.043 A 
ATOM      5  C   UNL     1      -2.732 -10.414   2.242  0.00  0.00    +0.065 A 
ATOM      6  C   UNL     1      -3.862 -11.237   2.331  0.00  0.00    +0.016 A 
ATOM      7  C   UNL     1      -5.045 -10.856   1.765  0.00  0.00    +0.016 A 
ATOM      8  C   UNL     1      -5.133  -9.638   1.092  0.00  0.00    +0.065 A 
ATOM      9  C   UNL     1      -6.388  -9.190   0.468  0.00  0.00    +0.267 A 
ATOM     10  O   UNL     1      -7.396  -9.870   0.519  0.00  0.00    -0.267 OA
ATOM     11  N   UNL     1      -6.381  -7.994  -0.164  0.00  0.00    -0.255 N 
ENDROOT
BRANCH  11  12
ATOM     12  C   UNL     1      -7.552  -7.522  -0.773  0.00  0.00    +0.052 A 
ATOM     13  C   UNL     1      -8.449  -6.748  -0.049  0.00  0.00    +0.029 A 
ATOM     14  C   UNL     1      -9.600  -6.280  -0.653  0.00  0.00    +0.040 A 
ATOM     15  C   UNL     1      -9.865  -6.592  -1.976  0.00  0.00    +0.124 A 
ATOM     16  C   UNL     1      -8.974  -7.369  -2.698  0.00  0.00    +0.040 A 
ATOM     17  C   UNL     1      -7.820  -7.834  -2.099  0.00  0.00    +0.029 A 
ATOM     18  F   UNL     1     -10.993  -6.137  -2.564  0.00  0.00    -0.205 F 
ENDBRANCH  11  12
BRANCH   5  19
ATOM     19  C   UNL     1      -1.460 -10.844   2.862  0.00  0.00    +0.387 C 
ATOM     20  O   UNL     1      -0.477 -10.134   2.788  0.00  0.00    -0.241 OA
ATOM     21  O   UNL     1      -1.391 -12.024   3.509  0.00  0.00    -0.241 OA
ENDBRANCH   5  19
BRANCH   1  22
ATOM     22  S   UNL     1      -5.293  -5.691  -1.050  0.00  0.00    -0.078 S 
BRANCH  22  23
ATOM     23  C   UNL     1      -3.582  -5.148  -0.811  0.00  0.00    +0.173 C 
BRANCH  23  28
ATOM     24  N   UNL     1      -0.804  -1.393  -1.947  0.00  0.00    -0.297 N 
ATOM     25  C   UNL     1      -2.008  -1.997  -1.997  0.00  0.00    +0.306 C 
ATOM     26  O   UNL     1      -2.935  -1.458  -2.568  0.00  0.00    -0.252 OA
ATOM     27  N   UNL     1      -2.183  -3.199  -1.413  0.00  0.00    -0.239 N 
ATOM     28  C   UNL     1      -3.386  -3.804  -1.463  0.00  0.00    +0.231 C 
ATOM     29  O   UNL     1      -4.311  -3.266  -2.033  0.00  0.00    -0.274 OA
ATOM     30  H   UNL     1      -0.064  -1.823  -1.491  0.00  0.00    +0.151 HD
ATOM     31  H   UNL     1      -1.443  -3.630  -0.957  0.00  0.00    +0.159 HD
BRANCH  24  32
ATOM     32  C   UNL     1      -0.613  -0.086  -2.581  0.00  0.00    +0.071 C 
ATOM     33  C   UNL     1      -1.044   1.018  -1.614  0.00  0.00    +0.028 C 
BRANCH  32  35
ATOM     34  C   UNL     1       1.262  -0.930  -4.000  0.00  0.00    +0.005 C 
ATOM     35  C   UNL     1       0.863   0.097  -2.939  0.00  0.00    +0.019 C 
ENDBRANCH  32  35
ENDBRANCH  24  32
ENDBRANCH  23  28
ENDBRANCH  22  23
ENDBRANCH   1  22
TORSDOF 7
