REMARK  Name = ZINC36630030
REMARK  6 active torsions:
REMARK  status: ('A' for Active; 'I' for Inactive)
REMARK    1  A    between atoms: C_1  and  C_2
REMARK    2  A    between atoms: C_2  and  C_3
REMARK    3  A    between atoms: N_9  and  S_10
REMARK    4  A    between atoms: S_10  and  C_13
REMARK    5  A    between atoms: C_16  and  C_19
REMARK    6  A    between atoms: C_25  and  C_27
REMARK                            x       y       z     vdW  Elec       q    Type
REMARK                         _______ _______ _______ _____ _____    ______ ____
ROOT
ATOM      1  C   UNL     1       3.260  -0.333   1.433  0.00  0.00    +0.106 A 
ATOM      2  C   UNL     1       2.392  -0.586   2.480  0.00  0.00    +0.029 A 
ATOM      3  C   UNL     1       2.789  -1.385   3.532  0.00  0.00    +0.015 A 
ATOM      4  C   UNL     1       4.070  -1.940   3.538  0.00  0.00    +0.037 A 
ATOM      5  C   UNL     1       4.941  -1.681   2.478  0.00  0.00    +0.015 A 
ATOM      6  C   UNL     1       4.529  -0.884   1.430  0.00  0.00    +0.029 A 
ENDROOT
BRANCH   4   7
ATOM      7  C   UNL     1       4.502  -2.796   4.662  0.00  0.00    +0.252 C 
ATOM      8  O   UNL     1       3.742  -3.019   5.584  0.00  0.00    -0.270 OA
ATOM      9  N   UNL     1       5.740  -3.330   4.665  0.00  0.00    -0.234 N 
ATOM     10  C   UNL     1       6.145  -4.134   5.720  0.00  0.00    +0.315 A 
ATOM     11  N   UNL     1       5.428  -4.458   6.767  0.00  0.00    -0.092 NA
ATOM     12  N   UNL     1       6.120  -5.216   7.543  0.00  0.00    -0.106 NA
ATOM     13  C   UNL     1       7.308  -5.406   7.020  0.00  0.00    +0.252 A 
ATOM     14  O   UNL     1       7.347  -4.729   5.851  0.00  0.00    -0.405 OA
ATOM     15  H   UNL     1       6.346  -3.152   3.930  0.00  0.00    +0.160 HD
BRANCH  13  16
ATOM     16  C   UNL     1       8.400  -6.215   7.598  0.00  0.00    +0.065 A 
ATOM     17  C   UNL     1       8.235  -6.902   8.852  0.00  0.00    +0.042 A 
ATOM     18  C   UNL     1       9.273  -7.625   9.325  0.00  0.00    +0.080 A 
ATOM     19  S   UNL     1      10.520  -7.393   8.072  0.00  0.00    -0.064 S 
ATOM     20  C   UNL     1       9.604  -6.342   6.960  0.00  0.00    +0.092 A 
ATOM     21 CL   UNL     1      10.113  -5.653   5.449  0.00  0.00    -0.075 Cl
ATOM     22 CL   UNL     1       9.369  -8.550  10.790  0.00  0.00    -0.076 Cl
ENDBRANCH  13  16
ENDBRANCH   4   7
BRANCH   1  23
ATOM     23  S   UNL     1       2.745   0.689   0.093  0.00  0.00    +0.061 S 
ATOM     24  O   UNL     1       3.907   1.358  -0.377  0.00  0.00    -0.153 OA
ATOM     25  O   UNL     1       1.590   1.389   0.537  0.00  0.00    -0.153 OA
BRANCH  23  31
ATOM     26  C   UNL     1       0.903  -0.900  -1.115  0.00  0.00    +0.080 C 
ATOM     27  C   UNL     1       1.021  -2.421  -1.261  0.00  0.00    +0.021 C 
ATOM     28  C   UNL     1       1.837  -2.747  -2.514  0.00  0.00    +0.003 C 
ATOM     29  C   UNL     1       3.245  -2.164  -2.374  0.00  0.00    +0.017 C 
ATOM     30  C   UNL     1       3.152  -0.641  -2.241  0.00  0.00    +0.110 C 
ATOM     31  N   UNL     1       2.251  -0.315  -1.127  0.00  0.00    -0.174 NA
BRANCH  26  33
ATOM     32  C   UNL     1      -1.129  -1.301   0.282  0.00  0.00    +0.005 C 
ATOM     33  C   UNL     1       0.209  -0.564   0.206  0.00  0.00    +0.017 C 
ENDBRANCH  26  33
ENDBRANCH  23  31
ENDBRANCH   1  23
TORSDOF 5
