REMARK  Name = ZINC22506424
REMARK  5 active torsions:
REMARK  status: ('A' for Active; 'I' for Inactive)
REMARK    1  A    between atoms: C_1  and  C_2
REMARK    2  A    between atoms: N_15  and  N_16
REMARK    3  A    between atoms: N_16  and  C_17
REMARK    4  A    between atoms: C_21  and  C_24
REMARK    5  A    between atoms: C_24  and  C_25
REMARK                            x       y       z     vdW  Elec       q    Type
REMARK                         _______ _______ _______ _____ _____    ______ ____
ROOT
ATOM      1  C   UNL     1       0.423  -3.274   3.494  0.00  0.00    +0.191 C 
ATOM      2  N   UNL     1      -0.591  -4.037   3.107  0.00  0.00    -0.155 NA
ATOM      3  C   UNL     1      -0.970  -5.127   3.716  0.00  0.00    +0.252 C 
ATOM      4  O   UNL     1      -1.907  -5.797   3.326  0.00  0.00    -0.272 OA
ATOM      5  C   UNL     1      -0.156  -5.502   4.948  0.00  0.00    +0.150 C 
ATOM      6  S   UNL     1       1.051  -4.111   4.944  0.00  0.00    -0.076 S 
ENDROOT
BRANCH   1   7
ATOM      7  N   UNL     1       0.883  -2.125   2.918  0.00  0.00    -0.094 NA
BRANCH   7  21
ATOM      8  C   UNL     1      -0.019   1.522   0.010  0.00  0.00    +0.014 C 
ATOM      9  C   UNL     1       0.002  -0.004   0.002  0.00  0.00    +0.032 C 
ATOM     10  C   UNL     1       0.678  -0.532  -1.260  0.00  0.00    +0.009 C 
ATOM     11  C   UNL     1       1.971   0.223  -1.555  0.00  0.00    +0.001 C 
ATOM     12  C   UNL     1       2.863  -0.630  -2.464  0.00  0.00    +0.000 C 
ATOM     13  C   UNL     1       4.324  -0.220  -2.268  0.00  0.00    +0.000 C 
ATOM     14  C   UNL     1       4.997  -1.172  -1.279  0.00  0.00    +0.000 C 
ATOM     15  C   UNL     1       5.436  -0.397  -0.035  0.00  0.00    +0.000 C 
ATOM     16  C   UNL     1       5.082  -1.195   1.220  0.00  0.00    +0.000 C 
ATOM     17  C   UNL     1       4.295  -0.311   2.188  0.00  0.00    +0.000 C 
ATOM     18  C   UNL     1       2.876  -0.861   2.349  0.00  0.00    +0.006 C 
ATOM     19  C   UNL     1       1.867   0.174   1.841  0.00  0.00    +0.053 C 
ATOM     20  C   UNL     1       0.689  -0.534   1.230  0.00  0.00    +0.042 C 
ATOM     21  N   UNL     1       0.256  -1.616   1.773  0.00  0.00    -0.167 NA
ENDBRANCH   7  21
ENDBRANCH   1   7
BRANCH   5  22
ATOM     22  C   UNL     1       0.547  -6.848   4.765  0.00  0.00    +0.120 C 
BRANCH  22  23
ATOM     23  C   UNL     1       1.236  -7.234   6.048  0.00  0.00    +0.220 C 
ATOM     24  O   UNL     1       1.171  -6.504   7.015  0.00  0.00    -0.275 OA
ATOM     25  N   UNL     1       1.925  -8.390   6.123  0.00  0.00    -0.265 N 
ATOM     26  C   UNL     1       2.561  -8.746   7.306  0.00  0.00    +0.165 A 
ATOM     27  N   UNL     1       2.594  -8.092   8.442  0.00  0.00    -0.229 NA
ATOM     28  C   UNL     1       3.252  -8.559   9.512  0.00  0.00    +0.054 A 
ATOM     29  C   UNL     1       3.873  -9.747   9.322  0.00  0.00    +0.014 A 
ATOM     30  S   UNL     1       3.469 -10.124   7.634  0.00  0.00    -0.057 S 
ATOM     31  C   UNL     1       4.593 -10.210  10.552  0.00  0.00    +0.045 C 
ATOM     32  C   UNL     1       4.705  -8.949  11.438  0.00  0.00    +0.011 C 
ATOM     33  C   UNL     1       3.506  -8.111  10.949  0.00  0.00    +0.056 C 
ATOM     34  H   UNL     1       1.978  -8.974   5.350  0.00  0.00    +0.157 HD
ENDBRANCH  22  23
ENDBRANCH   5  22
TORSDOF 4
