REMARK  Name = ZINC05900749
REMARK  6 active torsions:
REMARK  status: ('A' for Active; 'I' for Inactive)
REMARK    1  A    between atoms: C_1  and  C_2
REMARK    2  A    between atoms: C_9  and  C_11
REMARK    3  A    between atoms: C_14  and  N_17
REMARK    4  A    between atoms: N_19  and  C_20
REMARK    5  A    between atoms: C_22  and  C_27
REMARK    6  A    between atoms: C_24  and  C_26
REMARK                            x       y       z     vdW  Elec       q    Type
REMARK                         _______ _______ _______ _____ _____    ______ ____
ROOT
ATOM      1  C   UNL     1      -2.386  -8.242   0.841  0.00  0.00    +0.007 A 
ATOM      2  C   UNL     1      -1.950  -7.608  -0.325  0.00  0.00    +0.012 A 
ATOM      3  C   UNL     1      -1.294  -6.399  -0.246  0.00  0.00    +0.026 A 
ATOM      4  C   UNL     1      -1.066  -5.810   0.993  0.00  0.00    +0.042 A 
ATOM      5  C   UNL     1      -1.494  -6.441   2.156  0.00  0.00    +0.026 A 
ATOM      6  C   UNL     1      -2.156  -7.647   2.083  0.00  0.00    +0.012 A 
ENDROOT
BRANCH   1  15
ATOM      7  C   UNL     1      -6.135 -15.138   0.487  0.00  0.00    +0.044 C 
ATOM      8  C   UNL     1      -5.405 -13.841   0.247  0.00  0.00    -0.049 A 
ATOM      9  C   UNL     1      -5.088 -13.443  -1.044  0.00  0.00    +0.005 A 
ATOM     10  C   UNL     1      -4.431 -12.279  -1.292  0.00  0.00    +0.029 A 
ATOM     11  C   UNL     1      -4.045 -11.424  -0.231  0.00  0.00    +0.079 A 
ATOM     12  C   UNL     1      -4.382 -11.857   1.073  0.00  0.00    +0.040 A 
ATOM     13  C   UNL     1      -5.046 -13.035   1.312  0.00  0.00    +0.020 A 
ATOM     14  S   UNL     1      -3.742 -10.545   2.085  0.00  0.00    -0.067 S 
ATOM     15  C   UNL     1      -3.089  -9.539   0.760  0.00  0.00    +0.109 A 
ATOM     16  N   UNL     1      -3.399 -10.244  -0.306  0.00  0.00    -0.239 NA
ENDBRANCH   1  15
BRANCH   4  17
ATOM     17  N   UNL     1      -0.400  -4.585   1.069  0.00  0.00    -0.326 N 
ATOM     18  C   UNL     1       0.401  -4.306   2.146  0.00  0.00    +0.203 C 
ATOM     19  N   UNL     1       0.643  -3.056   2.481  0.00  0.00    -0.177 NA
ATOM     20  N   UNL     1       0.950  -5.328   2.874  0.00  0.00    -0.369 N 
ATOM     21  H   UNL     1      -0.519  -3.844   0.266  0.00  0.00    +0.169 HD
ATOM     22  H   UNL     1       1.592  -5.105   3.738  0.00  0.00    +0.159 HD
ATOM     23  H   UNL     1       0.748  -6.373   2.594  0.00  0.00    +0.159 HD
BRANCH  19  24
ATOM     24  C   UNL     1      -0.062  -2.048   1.900  0.00  0.00    +0.254 A 
ATOM     25  N   UNL     1      -1.080  -2.344   1.096  0.00  0.00    -0.216 NA
ATOM     26  C   UNL     1      -1.783  -1.387   0.517  0.00  0.00    +0.044 A 
ATOM     27  C   UNL     1      -1.454  -0.062   0.760  0.00  0.00    +0.046 A 
ATOM     28  C   UNL     1      -0.384   0.214   1.598  0.00  0.00    +0.044 A 
ATOM     29  N   UNL     1       0.281  -0.786   2.148  0.00  0.00    -0.216 NA
ATOM     30  C   UNL     1       0.011   1.640   1.884  0.00  0.00    +0.066 C 
ATOM     31  C   UNL     1      -2.935  -1.731  -0.393  0.00  0.00    +0.066 C 
ENDBRANCH  19  24
ENDBRANCH   4  17
TORSDOF 3
