REMARK  Name = ZINC14980411
REMARK  12 active torsions:
REMARK  status: ('A' for Active; 'I' for Inactive)
REMARK    1  A    between atoms: C_1  and  C_2
REMARK    2  A    between atoms: C_7  and  N_8
REMARK    3  A    between atoms: C_9  and  C_11
REMARK    4  A    between atoms: C_11  and  C_12
REMARK    5  A    between atoms: C_12  and  C_13
REMARK    6  A    between atoms: C_19  and  C_20
REMARK    7  A    between atoms: C_19  and  N_62
REMARK    8  A    between atoms: C_23  and  C_25
REMARK    9  A    between atoms: C_26  and  C_27
REMARK   10  A    between atoms: C_27  and  C_28
REMARK   11  A    between atoms: C_27  and  C_29
REMARK   12  A    between atoms: C_27  and  O_30
REMARK                            x       y       z     vdW  Elec       q    Type
REMARK                         _______ _______ _______ _____ _____    ______ ____
ROOT
ATOM      1  C   UNL     1      -4.732  -3.334  -0.428  0.00  0.00    -0.027 C 
ATOM      2  C   UNL     1      -5.429  -2.964  -1.740  0.00  0.00    -0.000 C 
ATOM      3  C   UNL     1      -6.715  -3.785  -1.875  0.00  0.00    -0.018 C 
ATOM      4  C   UNL     1      -6.371  -5.275  -1.819  0.00  0.00    -0.078 C 
ATOM      5  C   UNL     1      -4.445  -4.837  -0.414  0.00  0.00    -0.075 C 
ATOM      6  N   UNL     1      -5.724  -5.570  -0.522  0.00  0.00    +0.383 N 
ATOM      7  H   UNL     1      -6.346  -5.268   0.236  0.00  0.00    -0.081 HD
ENDROOT
BRANCH   1   8
ATOM      8  C   UNL     1      -3.416  -2.562  -0.314  0.00  0.00    +0.011 C 
BRANCH   8   9
ATOM      9  C   UNL     1      -3.711  -1.065  -0.203  0.00  0.00    +0.096 C 
BRANCH   9  11
ATOM     10  N   UNL     1      -2.428   1.039   0.019  0.00  0.00    -0.285 N 
ATOM     11  C   UNL     1      -2.414  -0.304  -0.091  0.00  0.00    +0.217 C 
ATOM     12  O   UNL     1      -1.358  -0.901  -0.099  0.00  0.00    -0.275 OA
ATOM     13  H   UNL     1      -3.272   1.510   0.106  0.00  0.00    +0.155 HD
BRANCH  10  20
ATOM     14  C   UNL     1      -2.365   3.582   1.293  0.00  0.00    +0.046 C 
ATOM     15  C   UNL     1      -1.151   3.000   0.616  0.00  0.00    -0.027 A 
ATOM     16  C   UNL     1       0.035   3.708   0.597  0.00  0.00    +0.043 A 
ATOM     17  C   UNL     1       1.152   3.174  -0.024  0.00  0.00    +0.124 A 
ATOM     18  C   UNL     1       1.082   1.928  -0.627  0.00  0.00    +0.040 A 
ATOM     19  C   UNL     1      -0.102   1.218  -0.610  0.00  0.00    +0.026 A 
ATOM     20  C   UNL     1      -1.225   1.755   0.006  0.00  0.00    +0.036 A 
ATOM     21  F   UNL     1       2.311   3.867  -0.042  0.00  0.00    -0.205 F 
ENDBRANCH  10  20
ENDBRANCH   9  11
ENDBRANCH   8   9
ENDBRANCH   1   8
BRANCH   6  22
ATOM     22  C   UNL     1      -5.485  -7.023  -0.396  0.00  0.00    -0.036 C 
BRANCH  22  23
ATOM     23  C   UNL     1      -6.814  -7.726  -0.290  0.00  0.00    -0.026 A 
ATOM     24  C   UNL     1      -7.595  -8.231  -1.280  0.00  0.00    +0.010 A 
ATOM     25  C   UNL     1      -8.783  -8.843  -0.952  0.00  0.00    +0.025 A 
ATOM     26  C   UNL     1      -9.145  -8.913   0.370  0.00  0.00    +0.062 A 
ATOM     27  S   UNL     1      -7.770  -8.102   1.170  0.00  0.00    -0.087 S 
BRANCH  26  28
ATOM     28  C   UNL     1     -10.318  -9.488   0.955  0.00  0.00    -0.056 C 
ATOM     29  C   UNL     1     -11.281  -9.959   1.435  0.00  0.00    -0.062 C 
BRANCH  29  30
ATOM     30  C   UNL     1     -12.487 -10.550   2.036  0.00  0.00    +0.121 C 
ATOM     31  C   UNL     1     -13.376 -11.129   0.933  0.00  0.00    +0.055 C 
ATOM     32  C   UNL     1     -12.082 -11.665   3.002  0.00  0.00    +0.055 C 
BRANCH  30  33
ATOM     33  O   UNL     1     -13.207  -9.541   2.748  0.00  0.00    -0.377 OA
ATOM     34  H   UNL     1     -12.704  -9.130   3.463  0.00  0.00    +0.211 HD
ENDBRANCH  30  33
ENDBRANCH  29  30
ENDBRANCH  26  28
ENDBRANCH  22  23
ENDBRANCH   6  22
TORSDOF 9
