REMARK  Name = ZINC59438618
REMARK  9 active torsions:
REMARK  status: ('A' for Active; 'I' for Inactive)
REMARK    1  A    between atoms: C_1  and  C_2
REMARK    2  A    between atoms: C_4  and  N_17
REMARK    3  A    between atoms: C_7  and  N_8
REMARK    4  A    between atoms: C_9  and  C_11
REMARK    5  A    between atoms: N_17  and  C_18
REMARK    6  A    between atoms: C_18  and  N_20
REMARK    7  A    between atoms: C_21  and  C_23
REMARK    8  A    between atoms: C_26  and  O_30
REMARK    9  A    between atoms: O_30  and  C_31
REMARK                            x       y       z     vdW  Elec       q    Type
REMARK                         _______ _______ _______ _____ _____    ______ ____
ROOT
ATOM      1  C   UNL     1      -0.162   1.327   0.230  0.00  0.00    +0.046 C 
ATOM      2  C   UNL     1      -0.184  -0.180   0.273  0.00  0.00    -0.027 A 
ATOM      3  C   UNL     1      -0.061  -0.905  -0.895  0.00  0.00    +0.028 A 
ATOM      4  C   UNL     1      -0.082  -2.293  -0.855  0.00  0.00    +0.033 A 
ATOM      5  C   UNL     1      -0.225  -2.951   0.359  0.00  0.00    +0.025 A 
ATOM      6  C   UNL     1      -0.347  -2.226   1.527  0.00  0.00    +0.025 A 
ATOM      7  C   UNL     1      -0.321  -0.838   1.488  0.00  0.00    +0.037 A 
ENDROOT
BRANCH   7   8
ATOM      8  N   UNL     1      -0.439  -0.102   2.674  0.00  0.00    -0.281 N 
ATOM      9  C   UNL     1      -1.119  -0.613   3.719  0.00  0.00    +0.248 C 
ATOM     10  O   UNL     1      -1.571  -1.740   3.658  0.00  0.00    -0.270 OA
ATOM     11  H   UNL     1      -0.032   0.776   2.742  0.00  0.00    +0.155 HD
BRANCH   9  12
ATOM     12  C   UNL     1      -1.314   0.197   4.941  0.00  0.00    +0.037 A 
ATOM     13  C   UNL     1      -0.801   1.493   5.012  0.00  0.00    +0.013 A 
ATOM     14  C   UNL     1      -0.987   2.243   6.154  0.00  0.00    +0.001 A 
ATOM     15  C   UNL     1      -1.681   1.714   7.228  0.00  0.00    +0.000 A 
ATOM     16  C   UNL     1      -2.192   0.429   7.164  0.00  0.00    +0.001 A 
ATOM     17  C   UNL     1      -2.018  -0.330   6.025  0.00  0.00    +0.013 A 
ENDBRANCH   9  12
ENDBRANCH   7   8
BRANCH   4  18
ATOM     18  N   UNL     1       0.042  -3.029  -2.040  0.00  0.00    -0.297 N 
ATOM     19  H   UNL     1      -0.549  -3.781  -2.208  0.00  0.00    +0.154 HD
BRANCH  18  20
ATOM     20  C   UNL     1       0.980  -2.694  -2.947  0.00  0.00    +0.141 C 
ATOM     21  S   UNL     1       1.953  -1.307  -2.699  0.00  0.00    -0.018 S 
BRANCH  20  22
ATOM     22  N   UNL     1       1.153  -3.450  -4.049  0.00  0.00    -0.264 N 
ATOM     23  C   UNL     1       2.092  -3.115  -4.956  0.00  0.00    +0.250 C 
ATOM     24  O   UNL     1       2.783  -2.130  -4.780  0.00  0.00    -0.270 OA
ATOM     25  H   UNL     1       0.602  -4.236  -4.190  0.00  0.00    +0.157 HD
BRANCH  23  26
ATOM     26  C   UNL     1       2.281  -3.942  -6.163  0.00  0.00    +0.039 A 
ATOM     27  C   UNL     1       1.484  -5.072  -6.370  0.00  0.00    +0.017 A 
ATOM     28  C   UNL     1       1.663  -5.842  -7.497  0.00  0.00    +0.048 A 
ATOM     29  C   UNL     1       2.636  -5.499  -8.429  0.00  0.00    +0.138 A 
ATOM     30  C   UNL     1       3.432  -4.376  -8.227  0.00  0.00    +0.083 A 
ATOM     31  C   UNL     1       3.254  -3.596  -7.105  0.00  0.00    +0.036 A 
ATOM     32 CL   UNL     1       4.645  -3.953  -9.394  0.00  0.00    -0.080 Cl
BRANCH  29  33
ATOM     33  O   UNL     1       2.809  -6.261  -9.538  0.00  0.00    -0.494 OA
ATOM     34  C   UNL     1       1.958  -7.400  -9.682  0.00  0.00    +0.277 C 
ENDBRANCH  29  33
ENDBRANCH  23  26
ENDBRANCH  20  22
ENDBRANCH  18  20
ENDBRANCH   4  18
TORSDOF 7
