REMARK  Name = ZINC12490061
REMARK  9 active torsions:
REMARK  status: ('A' for Active; 'I' for Inactive)
REMARK    1  A    between atoms: C_1  and  C_2
REMARK    2  A    between atoms: C_6  and  C_25
REMARK    3  A    between atoms: C_7  and  O_8
REMARK    4  A    between atoms: O_8  and  C_9
REMARK    5  A    between atoms: C_9  and  C_10
REMARK    6  A    between atoms: N_12  and  N_13
REMARK    7  A    between atoms: C_14  and  C_16
REMARK    8  A    between atoms: C_19  and  O_23
REMARK    9  A    between atoms: O_23  and  C_24
REMARK                            x       y       z     vdW  Elec       q    Type
REMARK                         _______ _______ _______ _____ _____    ______ ____
ROOT
ATOM      1  C   UNL     1      -6.060   3.178   0.074  0.00  0.00    +0.267 C 
ATOM      2  O   UNL     1      -6.046   1.966   0.068  0.00  0.00    -0.271 OA
ATOM      3  N   UNL     1      -4.901   3.866   0.067  0.00  0.00    -0.231 N 
ATOM      4  H   UNL     1      -4.912   4.836   0.071  0.00  0.00    +0.173 HD
ENDROOT
BRANCH   3   5
ATOM      5  N   UNL     1      -3.679   3.180   0.052  0.00  0.00    -0.230 N 
ATOM      6  C   UNL     1      -2.520   3.867   0.045  0.00  0.00    +0.260 C 
ATOM      7  O   UNL     1      -2.534   5.083   0.051  0.00  0.00    -0.269 OA
ATOM      8  H   UNL     1      -3.668   2.210   0.048  0.00  0.00    +0.173 HD
BRANCH   6   9
ATOM      9  C   UNL     1      -1.233   3.144   0.030  0.00  0.00    +0.039 A 
ATOM     10  C   UNL     1      -1.215   1.747   0.017  0.00  0.00    +0.017 A 
ATOM     11  C   UNL     1      -0.013   1.076   0.008  0.00  0.00    +0.047 A 
ATOM     12  C   UNL     1       1.182   1.786   0.000  0.00  0.00    +0.134 A 
ATOM     13  C   UNL     1       1.169   3.176   0.007  0.00  0.00    +0.060 A 
ATOM     14  C   UNL     1      -0.030   3.855   0.022  0.00  0.00    +0.032 A 
ATOM     15 BR   UNL     1       2.797   4.137  -0.004  0.00  0.00    -0.046 Br
BRANCH  12  16
ATOM     16  O   UNL     1       2.365   1.121  -0.015  0.00  0.00    -0.494 OA
ATOM     17  C   UNL     1       2.306  -0.307  -0.022  0.00  0.00    +0.277 C 
ENDBRANCH  12  16
ENDBRANCH   6   9
ENDBRANCH   3   5
BRANCH   1  18
ATOM     18  C   UNL     1      -7.373   3.917   0.090  0.00  0.00    +0.326 C 
BRANCH  18  19
ATOM     19  O   UNL     1      -8.449   2.975   0.095  0.00  0.00    -0.482 OA
BRANCH  19  26
ATOM     20  C   UNL     1      -9.639   3.436   2.615  0.00  0.00    +0.047 C 
ATOM     21  C   UNL     1     -10.347   3.727   1.317  0.00  0.00    -0.007 A 
ATOM     22  C   UNL     1     -11.627   4.245   1.329  0.00  0.00    +0.022 A 
ATOM     23  C   UNL     1     -12.280   4.507   0.138  0.00  0.00    +0.019 A 
ATOM     24  C   UNL     1     -11.649   4.257  -1.068  0.00  0.00    +0.022 A 
ATOM     25  C   UNL     1     -10.367   3.744  -1.085  0.00  0.00    -0.007 A 
ATOM     26  C   UNL     1      -9.711   3.480   0.109  0.00  0.00    +0.127 A 
ATOM     27  C   UNL     1      -9.680   3.471  -2.398  0.00  0.00    +0.047 C 
ATOM     28 BR   UNL     1     -14.035   5.209   0.157  0.00  0.00    -0.050 Br
ENDBRANCH  19  26
ENDBRANCH  18  19
ENDBRANCH   1  18
TORSDOF 6
