REMARK  Name = ZINC12661862
REMARK  5 active torsions:
REMARK  status: ('A' for Active; 'I' for Inactive)
REMARK    1  A    between atoms: C_9  and  C_11
REMARK    2  A    between atoms: C_14  and  N_17
REMARK    3  A    between atoms: C_18  and  C_20
REMARK    4  A    between atoms: N_25  and  S_27
REMARK    5  A    between atoms: S_27  and  C_30
REMARK                            x       y       z     vdW  Elec       q    Type
REMARK                         _______ _______ _______ _____ _____    ______ ____
ROOT
ATOM      1  N   UNL     1      -1.195   2.161   0.019  0.00  0.00    -0.285 N 
ATOM      2  C   UNL     1      -0.024   1.516  -0.158  0.00  0.00    +0.222 C 
ATOM      3  O   UNL     1       0.998   2.149  -0.318  0.00  0.00    -0.275 OA
ATOM      4  H   UNL     1      -2.022   1.658   0.069  0.00  0.00    +0.155 HD
ENDROOT
BRANCH   1   8
ATOM      5  C   UNL     1      -1.257   6.314   0.358  0.00  0.00    +0.017 A 
ATOM      6  C   UNL     1      -2.321   5.646  -0.251  0.00  0.00    +0.013 A 
ATOM      7  C   UNL     1      -2.298   4.273  -0.361  0.00  0.00    +0.024 A 
ATOM      8  C   UNL     1      -1.215   3.553   0.133  0.00  0.00    +0.033 A 
ATOM      9  C   UNL     1      -0.156   4.215   0.744  0.00  0.00    +0.024 A 
ATOM     10  C   UNL     1      -0.171   5.588   0.852  0.00  0.00    +0.013 A 
BRANCH   5  19
ATOM     11  C   UNL     1      -0.800  12.250   1.127  0.00  0.00    +0.002 A 
ATOM     12  C   UNL     1      -2.034  12.242   0.490  0.00  0.00    +0.002 A 
ATOM     13  C   UNL     1      -2.605  11.068   0.091  0.00  0.00    +0.030 A 
ATOM     14  C   UNL     1      -1.943   9.857   0.323  0.00  0.00    +0.089 A 
ATOM     15  C   UNL     1      -0.693   9.865   0.968  0.00  0.00    +0.066 A 
ATOM     16  C   UNL     1      -0.130  11.069   1.366  0.00  0.00    +0.028 A 
ATOM     17  N   UNL     1      -0.297   8.545   1.058  0.00  0.00    -0.338 N 
ATOM     18  H   UNL     1       0.548   8.206   1.470  0.00  0.00    +0.167 HD
ATOM     19  C   UNL     1      -1.279   7.787   0.478  0.00  0.00    +0.139 A 
ATOM     20  N   UNL     1      -2.245   8.564   0.051  0.00  0.00    -0.228 NA
ENDBRANCH   5  19
ENDBRANCH   1   8
BRANCH   2  21
ATOM     21  C   UNL     1       0.013   0.010  -0.164  0.00  0.00    +0.091 C 
ATOM     22  C   UNL     1      -0.880  -0.519  -1.289  0.00  0.00    +0.015 C 
ATOM     23  C   UNL     1      -0.868  -2.049  -1.276  0.00  0.00    +0.018 C 
ATOM     24  C   UNL     1       0.560  -2.547  -1.517  0.00  0.00    +0.109 C 
ATOM     25  N   UNL     1       1.451  -1.928  -0.526  0.00  0.00    -0.176 NA
ATOM     26  C   UNL     1       1.452  -0.465  -0.393  0.00  0.00    +0.122 C 
BRANCH  25  27
ATOM     27  S   UNL     1       2.435  -2.862   0.423  0.00  0.00    +0.061 S 
ATOM     28  O   UNL     1       2.717  -2.100   1.589  0.00  0.00    -0.153 OA
ATOM     29  O   UNL     1       1.839  -4.151   0.482  0.00  0.00    -0.153 OA
BRANCH  27  30
ATOM     30  C   UNL     1       3.961  -3.052  -0.436  0.00  0.00    +0.106 A 
ATOM     31  C   UNL     1       4.139  -4.115  -1.302  0.00  0.00    +0.031 A 
ATOM     32  C   UNL     1       5.334  -4.263  -1.980  0.00  0.00    +0.040 A 
ATOM     33  C   UNL     1       6.357  -3.350  -1.785  0.00  0.00    +0.124 A 
ATOM     34  C   UNL     1       6.179  -2.288  -0.915  0.00  0.00    +0.040 A 
ATOM     35  C   UNL     1       4.982  -2.140  -0.241  0.00  0.00    +0.031 A 
ATOM     36  F   UNL     1       7.527  -3.495  -2.445  0.00  0.00    -0.205 F 
ENDBRANCH  27  30
ENDBRANCH  25  27
ENDBRANCH   2  21
TORSDOF 5
