REMARK  Name = ZINC46793249
REMARK  7 active torsions:
REMARK  status: ('A' for Active; 'I' for Inactive)
REMARK    1  A    between atoms: C_1  and  C_2
REMARK    2  A    between atoms: C_5  and  N_30
REMARK    3  A    between atoms: C_7  and  N_8
REMARK    4  A    between atoms: C_9  and  C_11
REMARK    5  A    between atoms: N_14  and  S_17
REMARK    6  A    between atoms: S_17  and  C_20
REMARK    7  A    between atoms: C_31  and  C_33
REMARK                            x       y       z     vdW  Elec       q    Type
REMARK                         _______ _______ _______ _____ _____    ______ ____
ROOT
ATOM      1  C   UNL     1       0.937  -0.247   4.774  0.00  0.00    +0.078 C 
ATOM      2  C   UNL     1       1.959   0.888   4.681  0.00  0.00    +0.030 C 
ATOM      3  C   UNL     1       2.047   1.602   6.033  0.00  0.00    +0.110 C 
ATOM      4  N   UNL     1       2.342   0.609   7.075  0.00  0.00    -0.177 NA
ATOM      5  C   UNL     1       1.474  -0.571   7.192  0.00  0.00    +0.110 C 
ATOM      6  C   UNL     1       1.392  -1.261   5.827  0.00  0.00    +0.030 C 
ENDROOT
BRANCH   1   8
ATOM      7  N   UNL     1       0.434  -0.230   2.352  0.00  0.00    -0.285 N 
ATOM      8  C   UNL     1       0.823  -0.931   3.436  0.00  0.00    +0.220 C 
ATOM      9  O   UNL     1       1.079  -2.112   3.334  0.00  0.00    -0.275 OA
ATOM     10  H   UNL     1       0.289   0.727   2.420  0.00  0.00    +0.155 HD
BRANCH   7  17
ATOM     11  C   UNL     1      -1.442   0.876   0.524  0.00  0.00    +0.045 C 
ATOM     12  C   UNL     1      -0.666  -0.376   0.207  0.00  0.00    -0.029 A 
ATOM     13  C   UNL     1      -0.853  -1.016  -1.003  0.00  0.00    +0.007 A 
ATOM     14  C   UNL     1      -0.143  -2.164  -1.297  0.00  0.00    +0.024 A 
ATOM     15  C   UNL     1       0.761  -2.679  -0.376  0.00  0.00    +0.035 A 
ATOM     16  C   UNL     1       0.952  -2.038   0.839  0.00  0.00    +0.047 A 
ATOM     17  C   UNL     1       0.241  -0.882   1.130  0.00  0.00    +0.038 A 
BRANCH  15  18
ATOM     18  N   UNL     1       1.479  -3.842  -0.675  0.00  0.00    -0.285 N 
ATOM     19  C   UNL     1       1.892  -4.074  -1.937  0.00  0.00    +0.220 C 
ATOM     20  O   UNL     1       1.571  -3.317  -2.829  0.00  0.00    -0.275 OA
ATOM     21  H   UNL     1       1.680  -4.482   0.026  0.00  0.00    +0.155 HD
BRANCH  19  22
ATOM     22  C   UNL     1       2.751  -5.275  -2.240  0.00  0.00    +0.075 C 
ATOM     23  C   UNL     1       4.204  -5.019  -2.647  0.00  0.00    +0.013 C 
ATOM     24  C   UNL     1       3.187  -5.483  -3.692  0.00  0.00    +0.013 C 
ENDBRANCH  19  22
ENDBRANCH  15  18
ENDBRANCH   7  17
ENDBRANCH   1   8
BRANCH   4  25
ATOM     25  S   UNL     1       3.630   0.814   8.096  0.00  0.00    +0.061 S 
ATOM     26  O   UNL     1       3.986  -0.479   8.565  0.00  0.00    -0.153 OA
ATOM     27  O   UNL     1       4.551   1.661   7.423  0.00  0.00    -0.153 OA
BRANCH  25  28
ATOM     28  C   UNL     1       3.047   1.714   9.494  0.00  0.00    +0.106 A 
ATOM     29  C   UNL     1       3.084   3.096   9.494  0.00  0.00    +0.029 A 
ATOM     30  C   UNL     1       2.628   3.793  10.594  0.00  0.00    +0.006 A 
ATOM     31  C   UNL     1       2.131   3.119  11.702  0.00  0.00    -0.044 A 
ATOM     32  C   UNL     1       2.090   1.742  11.700  0.00  0.00    -0.042 A 
ATOM     33  C   UNL     1       2.547   1.042  10.591  0.00  0.00    +0.032 A 
ATOM     34  C   UNL     1       1.550   0.946  12.859  0.00  0.00    +0.035 C 
ATOM     35  C   UNL     1       1.495   1.804  14.121  0.00  0.00    +0.005 C 
ATOM     36  C   UNL     1       0.764   3.110  13.787  0.00  0.00    +0.005 C 
ATOM     37  C   UNL     1       1.659   3.942  12.871  0.00  0.00    +0.035 C 
ENDBRANCH  25  28
ENDBRANCH   4  25
TORSDOF 6
