REMARK  Name = ZINC37558255
REMARK  4 active torsions:
REMARK  status: ('A' for Active; 'I' for Inactive)
REMARK    1  A    between atoms: C_3  and  N_11
REMARK    2  A    between atoms: C_6  and  C_7
REMARK    3  A    between atoms: N_11  and  S_12
REMARK    4  A    between atoms: S_12  and  C_15
REMARK                            x       y       z     vdW  Elec       q    Type
REMARK                         _______ _______ _______ _____ _____    ______ ____
ROOT
ATOM      1  N   UNL     1       3.547   1.998  -0.018  0.00  0.00    -0.216 N 
ATOM      2  H   UNL     1       3.613   2.716  -0.668  0.00  0.00    +0.174 HD
ENDROOT
BRANCH   1   5
ATOM      3  C   UNL     1       0.033   0.925  -0.036  0.00  0.00    +0.014 A 
ATOM      4  C   UNL     1       1.148   1.739  -0.059  0.00  0.00    +0.025 A 
ATOM      5  C   UNL     1       2.417   1.178   0.005  0.00  0.00    +0.048 A 
ATOM      6  C   UNL     1       2.560  -0.201   0.091  0.00  0.00    +0.025 A 
ATOM      7  C   UNL     1       1.441  -1.010   0.114  0.00  0.00    +0.014 A 
ATOM      8  C   UNL     1       0.179  -0.448   0.050  0.00  0.00    +0.055 A 
BRANCH   8   9
ATOM      9  C   UNL     1      -1.041  -1.333   0.074  0.00  0.00    +0.417 C 
ATOM     10  F   UNL     1      -1.387  -1.686  -1.234  0.00  0.00    -0.166 F 
ATOM     11  F   UNL     1      -0.763  -2.489   0.811  0.00  0.00    -0.166 F 
ATOM     12  F   UNL     1      -2.104  -0.646   0.669  0.00  0.00    -0.166 F 
ENDBRANCH   8   9
ENDBRANCH   1   5
BRANCH   1  13
ATOM     13  S   UNL     1       4.776   1.747   1.064  0.00  0.00    +0.077 S 
ATOM     14  O   UNL     1       5.130   0.374   0.965  0.00  0.00    -0.150 OA
ATOM     15  O   UNL     1       5.716   2.793   0.862  0.00  0.00    -0.150 OA
BRANCH  13  16
ATOM     16  C   UNL     1       4.104   1.978   2.677  0.00  0.00    +0.167 A 
ATOM     17  C   UNL     1       3.992   1.031   3.636  0.00  0.00    +0.135 A 
ATOM     18  N   UNL     1       3.430   1.604   4.721  0.00  0.00    -0.281 N 
ATOM     19  H   UNL     1       3.230   1.161   5.560  0.00  0.00    +0.188 HD
ATOM     20  N   UNL     1       3.186   2.951   4.422  0.00  0.00    -0.157 NA
ATOM     21  C   UNL     1       3.596   3.179   3.197  0.00  0.00    +0.165 A 
ATOM     22  N   UNL     1       3.535   4.405   2.524  0.00  0.00    -0.340 N 
ATOM     23  H   UNL     1       3.927   4.495   1.641  0.00  0.00    +0.144 HD
ATOM     24  H   UNL     1       3.099   5.166   2.940  0.00  0.00    +0.144 HD
ENDBRANCH  13  16
ENDBRANCH   1  13
TORSDOF 4
