REMARK  Name = ZINC13016794
REMARK  9 active torsions:
REMARK  status: ('A' for Active; 'I' for Inactive)
REMARK    1  A    between atoms: C_1  and  C_2
REMARK    2  A    between atoms: C_5  and  C_35
REMARK    3  A    between atoms: C_6  and  N_8
REMARK    4  A    between atoms: C_9  and  C_11
REMARK    5  A    between atoms: C_11  and  C_13
REMARK    6  A    between atoms: C_11  and  S_14
REMARK    7  A    between atoms: S_14  and  C_15
REMARK    8  A    between atoms: C_19  and  C_33
REMARK    9  A    between atoms: N_25  and  C_26
REMARK                            x       y       z     vdW  Elec       q    Type
REMARK                         _______ _______ _______ _____ _____    ______ ____
ROOT
ATOM      1  C   UNL     1      -0.418   0.237  -7.553  0.00  0.00    +0.177 A 
ATOM      2  N   UNL     1       0.001   1.452  -7.302  0.00  0.00    -0.223 NA
ATOM      3  C   UNL     1       0.100   2.384  -8.279  0.00  0.00    +0.080 A 
ATOM      4  C   UNL     1       0.553   3.679  -8.009  0.00  0.00    +0.043 A 
ATOM      5  C   UNL     1       0.633   4.603  -9.043  0.00  0.00    +0.065 A 
ATOM      6  C   UNL     1       0.265   4.245 -10.347  0.00  0.00    +0.016 A 
ATOM      7  C   UNL     1      -0.180   2.984 -10.622  0.00  0.00    +0.016 A 
ATOM      8  C   UNL     1      -0.269   2.040  -9.599  0.00  0.00    +0.065 A 
ATOM      9  C   UNL     1      -0.741   0.670  -9.852  0.00  0.00    +0.267 A 
ATOM     10  O   UNL     1      -1.072   0.313 -10.968  0.00  0.00    -0.267 OA
ATOM     11  N   UNL     1      -0.794  -0.179  -8.800  0.00  0.00    -0.255 N 
ENDROOT
BRANCH  11  12
ATOM     12  C   UNL     1      -1.238  -1.495  -8.990  0.00  0.00    +0.052 A 
ATOM     13  C   UNL     1      -0.429  -2.561  -8.621  0.00  0.00    +0.029 A 
ATOM     14  C   UNL     1      -0.871  -3.857  -8.804  0.00  0.00    +0.040 A 
ATOM     15  C   UNL     1      -2.114  -4.093  -9.365  0.00  0.00    +0.124 A 
ATOM     16  C   UNL     1      -2.920  -3.031  -9.739  0.00  0.00    +0.040 A 
ATOM     17  C   UNL     1      -2.485  -1.733  -9.553  0.00  0.00    +0.029 A 
ATOM     18  F   UNL     1      -2.542  -5.361  -9.547  0.00  0.00    -0.205 F 
ENDBRANCH  11  12
BRANCH   5  19
ATOM     19  C   UNL     1       1.112   5.975  -8.766  0.00  0.00    +0.387 C 
ATOM     20  O   UNL     1       1.433   6.290  -7.638  0.00  0.00    -0.241 OA
ATOM     21  O   UNL     1       1.192   6.875  -9.764  0.00  0.00    -0.241 OA
ENDBRANCH   5  19
BRANCH   1  22
ATOM     22  S   UNL     1      -0.508  -0.913  -6.221  0.00  0.00    -0.075 S 
BRANCH  22  23
ATOM     23  C   UNL     1       0.083   0.130  -4.865  0.00  0.00    +0.137 C 
ATOM     24  C   UNL     1       1.543   0.511  -5.114  0.00  0.00    +0.029 C 
BRANCH  23  26
ATOM     25  N   UNL     1      -0.137   0.045  -2.402  0.00  0.00    -0.284 N 
ATOM     26  C   UNL     1      -0.025  -0.626  -3.566  0.00  0.00    +0.230 C 
ATOM     27  O   UNL     1      -0.011  -1.839  -3.567  0.00  0.00    -0.274 OA
ATOM     28  H   UNL     1      -0.233   1.010  -2.407  0.00  0.00    +0.155 HD
BRANCH  25  34
ATOM     29  C   UNL     1       1.204  -3.919   0.179  0.00  0.00    +0.044 C 
ATOM     30  C   UNL     1       0.530  -2.574   0.091  0.00  0.00    -0.049 A 
ATOM     31  C   UNL     1      -0.072  -2.029   1.210  0.00  0.00    +0.004 A 
ATOM     32  C   UNL     1      -0.692  -0.795   1.134  0.00  0.00    +0.005 A 
ATOM     33  C   UNL     1      -0.712  -0.104  -0.061  0.00  0.00    -0.029 A 
ATOM     34  C   UNL     1      -0.113  -0.651  -1.188  0.00  0.00    +0.037 A 
ATOM     35  C   UNL     1       0.514  -1.888  -1.107  0.00  0.00    +0.027 A 
ATOM     36  C   UNL     1      -1.389   1.240  -0.144  0.00  0.00    +0.045 C 
ENDBRANCH  25  34
ENDBRANCH  23  26
ENDBRANCH  22  23
ENDBRANCH   1  22
TORSDOF 6
