REMARK  Name = ZINC00716530
REMARK  7 active torsions:
REMARK  status: ('A' for Active; 'I' for Inactive)
REMARK    1  A    between atoms: C_6  and  N_7
REMARK    2  A    between atoms: C_8  and  C_10
REMARK    3  A    between atoms: C_19  and  S_21
REMARK    4  A    between atoms: S_21  and  C_22
REMARK    5  A    between atoms: C_22  and  C_23
REMARK    6  A    between atoms: N_25  and  C_26
REMARK    7  A    between atoms: C_26  and  C_27
REMARK                            x       y       z     vdW  Elec       q    Type
REMARK                         _______ _______ _______ _____ _____    ______ ____
ROOT
ATOM      1  C   UNL     1       2.305  -0.217  -0.202  0.00  0.00    +0.025 A 
ATOM      2  C   UNL     1       3.457  -0.950  -0.312  0.00  0.00    +0.031 A 
ATOM      3  C   UNL     1       4.721  -0.316  -0.317  0.00  0.00    +0.080 A 
ATOM      4  C   UNL     1       4.716   1.093  -0.211  0.00  0.00    +0.042 A 
ATOM      5  C   UNL     1       3.561   1.825  -0.107  0.00  0.00    +0.040 A 
ATOM      6  C   UNL     1       2.334   1.172  -0.104  0.00  0.00    +0.035 A 
ATOM      7  S   UNL     1       6.449   1.483  -0.255  0.00  0.00    -0.061 S 
ATOM      8  C   UNL     1       7.053  -0.192  -0.407  0.00  0.00    +0.136 A 
ATOM      9  N   UNL     1       5.941  -0.892  -0.412  0.00  0.00    -0.233 NA
ENDROOT
BRANCH   6  10
ATOM     10  N   UNL     1       1.143   1.901   0.001  0.00  0.00    -0.281 N 
ATOM     11  C   UNL     1       1.043   3.116  -0.575  0.00  0.00    +0.250 C 
ATOM     12  O   UNL     1       2.012   3.615  -1.113  0.00  0.00    -0.270 OA
ATOM     13  H   UNL     1       0.391   1.532   0.489  0.00  0.00    +0.155 HD
BRANCH  11  14
ATOM     14  C   UNL     1      -0.242   3.842  -0.547  0.00  0.00    +0.055 A 
ATOM     15  C   UNL     1      -1.357   3.271   0.070  0.00  0.00    +0.016 A 
ATOM     16  C   UNL     1      -2.554   3.955   0.093  0.00  0.00    +0.021 A 
ATOM     17  C   UNL     1      -2.653   5.206  -0.494  0.00  0.00    +0.042 A 
ATOM     18  C   UNL     1      -1.553   5.778  -1.108  0.00  0.00    +0.040 A 
ATOM     19  C   UNL     1      -0.346   5.106  -1.134  0.00  0.00    +0.054 A 
ATOM     20 CL   UNL     1       1.035   5.828  -1.898  0.00  0.00    -0.083 Cl
ATOM     21 CL   UNL     1      -4.165   6.059  -0.460  0.00  0.00    -0.083 Cl
ENDBRANCH  11  14
ENDBRANCH   6  10
BRANCH   8  22
ATOM     22  S   UNL     1       8.717  -0.761  -0.519  0.00  0.00    -0.089 S 
BRANCH  22  23
ATOM     23  C   UNL     1       8.432  -2.545  -0.641  0.00  0.00    +0.172 C 
BRANCH  23  24
ATOM     24  C   UNL     1       9.754  -3.259  -0.750  0.00  0.00    +0.223 C 
ATOM     25  O   UNL     1      10.788  -2.624  -0.746  0.00  0.00    -0.275 OA
ATOM     26  N   UNL     1       9.789  -4.602  -0.853  0.00  0.00    -0.312 N 
ATOM     27  H   UNL     1       8.962  -5.109  -0.857  0.00  0.00    +0.149 HD
BRANCH  26  28
ATOM     28  C   UNL     1      11.074  -5.296  -0.959  0.00  0.00    +0.135 C 
BRANCH  28  29
ATOM     29  C   UNL     1      10.833  -6.803  -1.062  0.00  0.00    +0.135 C 
ATOM     30  C   UNL     1      12.181  -7.543  -1.174  0.00  0.00    +0.035 C 
ATOM     31  C   UNL     1      12.187  -8.506   0.038  0.00  0.00    +0.031 C 
ATOM     32  C   UNL     1      10.678  -8.611   0.377  0.00  0.00    +0.160 C 
ATOM     33  O   UNL     1      10.183  -7.277   0.129  0.00  0.00    -0.375 OA
ENDBRANCH  28  29
ENDBRANCH  26  28
ENDBRANCH  23  24
ENDBRANCH  22  23
ENDBRANCH   8  22
TORSDOF 7
