REMARK  Name = ZINC14273325
REMARK  9 active torsions:
REMARK  status: ('A' for Active; 'I' for Inactive)
REMARK    1  A    between atoms: C_1  and  C_2
REMARK    2  A    between atoms: C_2  and  C_3
REMARK    3  A    between atoms: C_2  and  C_4
REMARK    4  A    between atoms: C_2  and  C_5
REMARK    5  A    between atoms: C_12  and  N_17
REMARK    6  A    between atoms: C_13  and  C_14
REMARK    7  A    between atoms: C_18  and  C_20
REMARK    8  A    between atoms: C_23  and  O_27
REMARK    9  A    between atoms: O_27  and  C_28
REMARK                            x       y       z     vdW  Elec       q    Type
REMARK                         _______ _______ _______ _____ _____    ______ ____
ROOT
ATOM      1  C   UNL     1      -0.735   2.019   1.269  0.00  0.00    -0.000 C 
ATOM      2  C   UNL     1      -0.751   3.550   1.284  0.00  0.00    +0.009 C 
ATOM      3  C   UNL     1      -1.668   4.051   2.400  0.00  0.00    +0.037 C 
ATOM      4  C   UNL     1      -1.266   3.377   3.707  0.00  0.00    -0.023 A 
ATOM      5  C   UNL     1      -0.519   2.252   3.708  0.00  0.00    -0.004 A 
ATOM      6  S   UNL     1      -0.310   1.850   5.420  0.00  0.00    -0.077 S 
ATOM      7  C   UNL     1      -1.202   3.156   6.125  0.00  0.00    +0.085 A 
ATOM      8  C   UNL     1      -1.641   3.873   5.020  0.00  0.00    +0.068 A 
ATOM      9  C   UNL     1       0.010   1.518   2.515  0.00  0.00    +0.046 C 
ENDROOT
BRANCH   8  10
ATOM     10  C   UNL     1      -2.451   5.085   5.173  0.00  0.00    +0.244 C 
ATOM     11  O   UNL     1      -1.910   6.171   5.266  0.00  0.00    -0.270 OA
ATOM     12  N   UNL     1      -3.796   4.997   5.209  0.00  0.00    -0.325 N 
ATOM     13  H   UNL     1      -4.227   4.131   5.135  0.00  0.00    +0.145 HD
ATOM     14  H   UNL     1      -4.332   5.799   5.310  0.00  0.00    +0.145 HD
ENDBRANCH   8  10
BRANCH   1  16
ATOM     15  C   UNL     1       0.002  -0.004   0.002  0.00  0.00    +0.011 C 
ATOM     16  C   UNL     1      -0.019   1.526   0.010  0.00  0.00    -0.035 C 
ATOM     17  C   UNL     1       1.417   2.055  -0.000  0.00  0.00    +0.011 C 
ATOM     18  C   UNL     1      -0.759   2.033  -1.229  0.00  0.00    +0.011 C 
ENDBRANCH   1  16
BRANCH   7  19
ATOM     19  N   UNL     1      -1.425   3.422   7.467  0.00  0.00    -0.275 N 
ATOM     20  C   UNL     1      -0.913   2.605   8.409  0.00  0.00    +0.249 C 
ATOM     21  O   UNL     1      -0.257   1.635   8.082  0.00  0.00    -0.270 OA
ATOM     22  H   UNL     1      -1.948   4.196   7.728  0.00  0.00    +0.156 HD
BRANCH  20  23
ATOM     23  C   UNL     1      -1.150   2.887   9.838  0.00  0.00    +0.040 A 
ATOM     24  C   UNL     1      -1.899   4.005  10.216  0.00  0.00    +0.036 A 
ATOM     25  C   UNL     1      -2.122   4.262  11.552  0.00  0.00    +0.085 A 
ATOM     26  C   UNL     1      -1.594   3.418  12.522  0.00  0.00    +0.157 A 
ATOM     27  C   UNL     1      -0.843   2.309  12.150  0.00  0.00    +0.085 A 
ATOM     28  C   UNL     1      -0.620   2.041  10.816  0.00  0.00    +0.036 A 
ATOM     29 CL   UNL     1      -0.186   1.259  13.366  0.00  0.00    -0.080 Cl
ATOM     30 CL   UNL     1      -3.059   5.646  12.023  0.00  0.00    -0.080 Cl
BRANCH  26  31
ATOM     31  O   UNL     1      -1.812   3.678  13.837  0.00  0.00    -0.492 OA
ATOM     32  C   UNL     1      -0.856   4.507  14.501  0.00  0.00    +0.277 C 
ENDBRANCH  26  31
ENDBRANCH  20  23
ENDBRANCH   7  19
TORSDOF 5
