REMARK  Name = ZINC67052042
REMARK  6 active torsions:
REMARK  status: ('A' for Active; 'I' for Inactive)
REMARK    1  A    between atoms: C_1  and  N_2
REMARK    2  A    between atoms: C_3  and  C_8
REMARK    3  A    between atoms: C_8  and  C_9
REMARK    4  A    between atoms: C_9  and  N_10
REMARK    5  A    between atoms: C_11  and  C_13
REMARK    6  A    between atoms: C_16  and  C_18
REMARK                            x       y       z     vdW  Elec       q    Type
REMARK                         _______ _______ _______ _____ _____    ______ ____
ROOT
ATOM      1  N   UNL     1      -0.451   6.521  -0.626  0.00  0.00    -0.310 N 
ATOM      2  C   UNL     1      -0.720   7.770  -1.055  0.00  0.00    +0.263 C 
ATOM      3  O   UNL     1      -1.335   7.938  -2.091  0.00  0.00    -0.269 OA
ATOM      4  H   UNL     1       0.039   6.387   0.200  0.00  0.00    +0.149 HD
ENDROOT
BRANCH   2   5
ATOM      5  C   UNL     1      -0.268   8.931  -0.270  0.00  0.00    +0.133 A 
ATOM      6  C   UNL     1      -0.540  10.204  -0.695  0.00  0.00    +0.080 A 
ATOM      7  S   UNL     1       0.163  11.148   0.508  0.00  0.00    -0.075 S 
ATOM      8  C   UNL     1       0.792   9.828   1.531  0.00  0.00    +0.109 A 
ATOM      9  N   UNL     1       0.403   8.759   0.861  0.00  0.00    -0.234 NA
BRANCH   8  10
ATOM     10  C   UNL     1       1.547   9.911   2.800  0.00  0.00    +0.011 A 
ATOM     11  C   UNL     1       1.957   8.744   3.446  0.00  0.00    +0.014 A 
ATOM     12  C   UNL     1       2.661   8.822   4.629  0.00  0.00    +0.050 A 
ATOM     13  C   UNL     1       2.964  10.059   5.181  0.00  0.00    +0.166 A 
ATOM     14  C   UNL     1       2.558  11.228   4.539  0.00  0.00    +0.167 A 
ATOM     15  C   UNL     1       1.856  11.155   3.350  0.00  0.00    +0.060 A 
ATOM     16  O   UNL     1       2.975  12.298   5.277  0.00  0.00    -0.453 OA
ATOM     17  C   UNL     1       3.283  11.769   6.580  0.00  0.00    +0.466 C 
ATOM     18  O   UNL     1       3.637  10.398   6.319  0.00  0.00    -0.453 OA
ENDBRANCH   8  10
ENDBRANCH   2   5
BRANCH   1  19
ATOM     19  C   UNL     1      -0.900   5.365  -1.407  0.00  0.00    +0.112 C 
BRANCH  19  20
ATOM     20  C   UNL     1      -0.469   4.076  -0.704  0.00  0.00    +0.095 C 
BRANCH  20  23
ATOM     21  C   UNL     1      -0.013   1.086   0.008  0.00  0.00    +0.152 C 
ATOM     22  N   UNL     1      -0.721   1.571  -1.179  0.00  0.00    -0.310 N 
ATOM     23  C   UNL     1      -0.931   2.888  -1.508  0.00  0.00    +0.133 A 
ATOM     24  N   UNL     1      -1.590   2.941  -2.620  0.00  0.00    -0.159 NA
ATOM     25  N   UNL     1      -1.829   1.628  -3.048  0.00  0.00    -0.254 N 
ATOM     26  C   UNL     1      -1.274   0.801  -2.138  0.00  0.00    +0.175 A 
ATOM     27  S   UNL     1      -1.274  -0.910  -2.189  0.00  0.00    -0.011 S 
ATOM     28  H   UNL     1      -2.303   1.363  -3.852  0.00  0.00    +0.191 HD
ENDBRANCH  20  23
ENDBRANCH  19  20
ENDBRANCH   1  19
TORSDOF 5
