REMARK  Name = ZINC37066399
REMARK  8 active torsions:
REMARK  status: ('A' for Active; 'I' for Inactive)
REMARK    1  A    between atoms: C_1  and  C_2
REMARK    2  A    between atoms: C_2  and  C_3
REMARK    3  A    between atoms: C_2  and  C_4
REMARK    4  A    between atoms: C_2  and  O_5
REMARK    5  A    between atoms: O_5  and  C_6
REMARK    6  A    between atoms: C_7  and  N_22
REMARK    7  A    between atoms: C_10  and  N_12
REMARK    8  A    between atoms: C_16  and  C_19
REMARK                            x       y       z     vdW  Elec       q    Type
REMARK                         _______ _______ _______ _____ _____    ______ ____
ROOT
ATOM      1  C   UNL     1       1.913   0.101  -1.457  0.00  0.00    +0.238 A 
ATOM      2  C   UNL     1       2.666  -0.490  -2.470  0.00  0.00    +0.087 A 
ATOM      3  C   UNL     1       4.039  -0.277  -2.506  0.00  0.00    +0.031 A 
ATOM      4  C   UNL     1       4.610   0.520  -1.526  0.00  0.00    +0.046 A 
ATOM      5  C   UNL     1       3.800   1.077  -0.546  0.00  0.00    +0.125 A 
ATOM      6  N   UNL     1       2.493   0.859  -0.542  0.00  0.00    -0.196 NA
ENDROOT
BRANCH   5   7
ATOM      7  N   UNL     1       4.367   1.879   0.442  0.00  0.00    -0.314 N 
ATOM      8  C   UNL     1       3.585   2.283   1.618  0.00  0.00    +0.106 C 
ATOM      9  C   UNL     1       3.641   3.808   1.747  0.00  0.00    +0.020 C 
ATOM     10  C   UNL     1       5.102   4.261   1.778  0.00  0.00    +0.016 C 
ATOM     11  C   UNL     1       5.790   3.861   0.471  0.00  0.00    +0.092 C 
ATOM     12  C   UNL     1       5.760   2.331   0.330  0.00  0.00    +0.119 C 
BRANCH  11  13
ATOM     13  C   UNL     1       7.220   4.336   0.489  0.00  0.00    +0.215 C 
ATOM     14  O   UNL     1       8.126   3.535   0.394  0.00  0.00    -0.276 OA
ATOM     15  N   UNL     1       7.492   5.650   0.611  0.00  0.00    -0.329 N 
ATOM     16  H   UNL     1       6.768   6.290   0.687  0.00  0.00    +0.145 HD
ATOM     17  H   UNL     1       8.413   5.956   0.622  0.00  0.00    +0.145 HD
ENDBRANCH  11  13
ENDBRANCH   5   7
BRANCH   2  18
ATOM     18  N   UNL     1       2.045  -1.291  -3.441  0.00  0.00    -0.354 N 
ATOM     19  H   UNL     1       1.086  -1.436  -3.410  0.00  0.00    +0.142 HD
ATOM     20  H   UNL     1       2.575  -1.699  -4.144  0.00  0.00    +0.142 HD
ENDBRANCH   2  18
BRANCH   1  21
ATOM     21  O   UNL     1       0.571  -0.100  -1.412  0.00  0.00    -0.469 OA
BRANCH  21  23
ATOM     22  C   UNL     1       0.041   2.053  -0.452  0.00  0.00    +0.055 C 
ATOM     23  C   UNL     1      -0.145   0.538  -0.353  0.00  0.00    +0.104 C 
ATOM     24  C   UNL     1       0.389   0.045   0.993  0.00  0.00    +0.055 C 
ATOM     25  C   UNL     1      -1.633   0.198  -0.467  0.00  0.00    +0.055 C 
ENDBRANCH  21  23
ENDBRANCH   1  21
TORSDOF 5
