REMARK  Name = ZINC56753544
REMARK  7 active torsions:
REMARK  status: ('A' for Active; 'I' for Inactive)
REMARK    1  A    between atoms: C_1  and  C_2
REMARK    2  A    between atoms: C_2  and  C_4
REMARK    3  A    between atoms: C_2  and  N_12
REMARK    4  A    between atoms: C_4  and  C_5
REMARK    5  A    between atoms: N_15  and  C_16
REMARK    6  A    between atoms: C_19  and  C_22
REMARK    7  A    between atoms: N_27  and  C_30
REMARK                            x       y       z     vdW  Elec       q    Type
REMARK                         _______ _______ _______ _____ _____    ______ ____
ROOT
ATOM      1  N   UNL     1       0.698   0.034  -1.752  0.00  0.00    -0.296 N 
ATOM      2  C   UNL     1       2.044  -0.042  -1.754  0.00  0.00    +0.304 C 
ATOM      3  O   UNL     1       2.703   0.830  -1.222  0.00  0.00    -0.253 OA
ATOM      4  N   UNL     1       2.659  -1.086  -2.345  0.00  0.00    -0.269 N 
ATOM      5  H   UNL     1       0.172  -0.661  -2.176  0.00  0.00    +0.151 HD
ATOM      6  H   UNL     1       2.133  -1.815  -2.710  0.00  0.00    +0.156 HD
ENDROOT
BRANCH   4   7
ATOM      7  C   UNL     1       4.050  -1.117  -2.433  0.00  0.00    +0.035 A 
ATOM      8  C   UNL     1       4.822  -0.601  -1.397  0.00  0.00    +0.024 A 
ATOM      9  C   UNL     1       6.196  -0.630  -1.480  0.00  0.00    +0.015 A 
ATOM     10  C   UNL     1       6.815  -1.179  -2.607  0.00  0.00    +0.037 A 
ATOM     11  C   UNL     1       6.036  -1.696  -3.646  0.00  0.00    +0.015 A 
ATOM     12  C   UNL     1       4.662  -1.669  -3.554  0.00  0.00    +0.024 A 
BRANCH  10  13
ATOM     13  C   UNL     1       8.287  -1.211  -2.700  0.00  0.00    +0.246 C 
ATOM     14  O   UNL     1       8.949  -1.559  -1.741  0.00  0.00    -0.270 OA
ATOM     15  N   UNL     1       8.898  -0.856  -3.848  0.00  0.00    -0.301 N 
ATOM     16  C   UNL     1       8.116  -0.515  -5.046  0.00  0.00    +0.089 C 
ATOM     17  C   UNL     1       8.619   0.827  -5.589  0.00  0.00    -0.060 C 
ATOM     18  N   UNL     1      10.069   0.751  -5.812  0.00  0.00    +0.380 N 
ATOM     19  C   UNL     1      10.762   0.557  -4.532  0.00  0.00    -0.060 C 
ATOM     20  C   UNL     1      10.365  -0.792  -3.936  0.00  0.00    +0.089 C 
ATOM     21  C   UNL     1      10.533   1.999  -6.434  0.00  0.00    -0.096 C 
ATOM     22  H   UNL     1      10.274  -0.024  -6.425  0.00  0.00    -0.082 HD
ENDBRANCH  10  13
ENDBRANCH   4   7
BRANCH   1  24
ATOM     23  C   UNL     1      -0.051   2.337  -2.094  0.00  0.00    +0.028 C 
ATOM     24  C   UNL     1       0.030   1.169  -1.109  0.00  0.00    +0.076 C 
BRANCH  24  25
ATOM     25  C   UNL     1      -1.382   0.757  -0.689  0.00  0.00    +0.060 C 
BRANCH  25  26
ATOM     26  C   UNL     1      -1.299  -0.310   0.372  0.00  0.00    -0.010 A 
ATOM     27  C   UNL     1      -1.367  -1.645   0.017  0.00  0.00    +0.006 A 
ATOM     28  C   UNL     1      -1.290  -2.624   0.990  0.00  0.00    +0.000 A 
ATOM     29  C   UNL     1      -1.147  -2.270   2.318  0.00  0.00    +0.003 A 
ATOM     30  C   UNL     1      -1.080  -0.937   2.676  0.00  0.00    +0.038 A 
ATOM     31  C   UNL     1      -1.150   0.045   1.702  0.00  0.00    +0.127 A 
ATOM     32  F   UNL     1      -1.079   1.348   2.049  0.00  0.00    -0.205 F 
ENDBRANCH  25  26
ENDBRANCH  24  25
ENDBRANCH   1  24
TORSDOF 5
