REMARK  Name = ZINC40813879
REMARK  10 active torsions:
REMARK  status: ('A' for Active; 'I' for Inactive)
REMARK    1  A    between atoms: C_1  and  C_2
REMARK    2  A    between atoms: C_6  and  C_7
REMARK    3  A    between atoms: C_7  and  O_9
REMARK    4  A    between atoms: O_9  and  C_10
REMARK    5  A    between atoms: C_13  and  C_16
REMARK    6  A    between atoms: C_19  and  C_22
REMARK    7  A    between atoms: N_28  and  N_29
REMARK    8  A    between atoms: C_30  and  C_32
REMARK    9  A    between atoms: C_35  and  O_38
REMARK   10  A    between atoms: O_38  and  C_39
REMARK                            x       y       z     vdW  Elec       q    Type
REMARK                         _______ _______ _______ _____ _____    ______ ____
ROOT
ATOM      1  C   UNL     1       0.108   1.494   0.003  0.00  0.00    +0.048 C 
ATOM      2  C   UNL     1       0.079  -0.013  -0.002  0.00  0.00    +0.011 A 
ATOM      3  C   UNL     1       0.070  -0.850  -1.124  0.00  0.00    +0.042 A 
ATOM      4  C   UNL     1       0.041  -2.148  -0.670  0.00  0.00    +0.115 A 
ATOM      5  O   UNL     1       0.036  -2.119   0.660  0.00  0.00    -0.452 OA
ATOM      6  C   UNL     1       0.064  -0.837   1.090  0.00  0.00    +0.215 A 
ATOM      7  C   UNL     1       0.018  -3.340  -1.594  0.00  0.00    +0.075 C 
ATOM      8  C   UNL     1      -0.479  -2.902  -2.975  0.00  0.00    +0.014 C 
ATOM      9  C   UNL     1       0.337  -1.712  -3.491  0.00  0.00    +0.058 C 
ATOM     10  C   UNL     1       0.087  -0.528  -2.568  0.00  0.00    +0.070 C 
ATOM     11  N   UNL     1      -0.098   0.676  -3.015  0.00  0.00    -0.184 NA
ENDROOT
BRANCH  11  12
ATOM     12  N   UNL     1      -0.070   0.923  -4.394  0.00  0.00    -0.203 N 
ATOM     13  C   UNL     1      -0.262   2.174  -4.858  0.00  0.00    +0.263 C 
ATOM     14  O   UNL     1      -0.459   3.088  -4.080  0.00  0.00    -0.268 OA
ATOM     15  H   UNL     1       0.086   0.194  -5.014  0.00  0.00    +0.178 HD
BRANCH  13  16
ATOM     16  C   UNL     1      -0.234   2.434  -6.310  0.00  0.00    +0.039 A 
ATOM     17  C   UNL     1      -0.014   1.384  -7.206  0.00  0.00    +0.016 A 
ATOM     18  C   UNL     1       0.011   1.631  -8.560  0.00  0.00    +0.046 A 
ATOM     19  C   UNL     1      -0.181   2.923  -9.037  0.00  0.00    +0.120 A 
ATOM     20  C   UNL     1      -0.400   3.970  -8.149  0.00  0.00    +0.046 A 
ATOM     21  C   UNL     1      -0.432   3.730  -6.793  0.00  0.00    +0.016 A 
BRANCH  19  22
ATOM     22  O   UNL     1      -0.155   3.162 -10.373  0.00  0.00    -0.495 OA
ATOM     23  C   UNL     1      -0.360   4.512 -10.794  0.00  0.00    +0.277 C 
ENDBRANCH  19  22
ENDBRANCH  13  16
ENDBRANCH  11  12
BRANCH   6  24
ATOM     24  C   UNL     1       0.071  -0.404   2.490  0.00  0.00    +0.380 C 
ATOM     25  O   UNL     1       0.093   0.782   2.759  0.00  0.00    -0.241 OA
BRANCH  24  26
ATOM     26  O   UNL     1       0.054  -1.320   3.480  0.00  0.00    -0.420 OA
BRANCH  26  27
ATOM     27  C   UNL     1       0.165  -0.878   4.760  0.00  0.00    +0.132 A 
ATOM     28  C   UNL     1      -0.931  -0.306   5.393  0.00  0.00    +0.047 A 
ATOM     29  C   UNL     1      -0.822   0.144   6.691  0.00  0.00    +0.012 A 
ATOM     30  C   UNL     1       0.391   0.023   7.370  0.00  0.00    -0.018 A 
ATOM     31  C   UNL     1       1.489  -0.552   6.732  0.00  0.00    +0.012 A 
ATOM     32  C   UNL     1       1.372  -1.005   5.435  0.00  0.00    +0.047 A 
BRANCH  30  33
ATOM     33  C   UNL     1       0.512   0.505   8.766  0.00  0.00    -0.018 A 
ATOM     34  C   UNL     1      -0.590   1.076   9.404  0.00  0.00    +0.010 A 
ATOM     35  C   UNL     1      -0.479   1.524  10.701  0.00  0.00    +0.019 A 
ATOM     36  C   UNL     1       0.738   1.408  11.378  0.00  0.00    +0.052 A 
ATOM     37  C   UNL     1       1.841   0.836  10.738  0.00  0.00    +0.019 A 
ATOM     38  C   UNL     1       1.726   0.384   9.443  0.00  0.00    +0.010 A 
BRANCH  36  39
ATOM     39  C   UNL     1       0.855   1.875  12.727  0.00  0.00    +0.099 C 
ATOM     40  N   UNL     1       0.948   2.245  13.797  0.00  0.00    -0.191 NA
ENDBRANCH  36  39
ENDBRANCH  30  33
ENDBRANCH  26  27
ENDBRANCH  24  26
ENDBRANCH   6  24
TORSDOF 8
