REMARK  Name = ZINC34756481
REMARK  7 active torsions:
REMARK  status: ('A' for Active; 'I' for Inactive)
REMARK    1  A    between atoms: C_1  and  C_2
REMARK    2  A    between atoms: C_5  and  C_33
REMARK    3  A    between atoms: C_6  and  C_8
REMARK    4  A    between atoms: C_8  and  N_9
REMARK    5  A    between atoms: C_22  and  S_24
REMARK    6  A    between atoms: S_24  and  C_25
REMARK    7  A    between atoms: C_25  and  C_26
REMARK                            x       y       z     vdW  Elec       q    Type
REMARK                         _______ _______ _______ _____ _____    ______ ____
ROOT
ATOM      1  N   UNL     1       1.421  -3.290   2.787  0.00  0.00    +0.384 N 
ATOM      2  C   UNL     1       2.263  -2.108   3.010  0.00  0.00    -0.059 C 
ATOM      3  C   UNL     1       3.719  -2.547   3.199  0.00  0.00    +0.088 C 
ATOM      4  N   UNL     1       3.769  -3.541   4.282  0.00  0.00    -0.318 N 
ATOM      5  C   UNL     1       2.840  -4.680   4.222  0.00  0.00    +0.088 C 
ATOM      6  C   UNL     1       1.425  -4.140   3.985  0.00  0.00    -0.059 C 
ATOM      7  C   UNL     1       4.666  -3.410   5.327  0.00  0.00    +0.134 A 
ATOM      8  C   UNL     1       5.918  -4.086   5.291  0.00  0.00    +0.051 A 
ATOM      9  C   UNL     1       6.452  -4.967   4.250  0.00  0.00    -0.025 A 
ATOM     10  C   UNL     1       7.678  -5.487   4.459  0.00  0.00    -0.004 A 
ATOM     11  S   UNL     1       8.190  -4.847   6.031  0.00  0.00    -0.073 S 
ATOM     12  C   UNL     1       6.752  -3.879   6.407  0.00  0.00    +0.115 A 
ATOM     13  N   UNL     1       6.384  -3.108   7.412  0.00  0.00    -0.214 NA
ATOM     14  C   UNL     1       5.204  -2.503   7.392  0.00  0.00    +0.191 A 
ATOM     15  N   UNL     1       4.372  -2.650   6.368  0.00  0.00    -0.206 NA
ATOM     16  C   UNL     1       8.439  -6.409   3.556  0.00  0.00    +0.043 C 
ATOM     17  C   UNL     1       7.466  -6.980   2.514  0.00  0.00    +0.005 C 
ATOM     18  C   UNL     1       6.645  -5.828   1.927  0.00  0.00    +0.005 C 
ATOM     19  C   UNL     1       5.673  -5.294   2.979  0.00  0.00    +0.037 C 
ATOM     20  H   UNL     1       1.782  -3.814   2.003  0.00  0.00    -0.081 HD
ENDROOT
BRANCH   1  21
ATOM     21  C   UNL     1       0.046  -2.862   2.497  0.00  0.00    -0.043 C 
BRANCH  21  27
ATOM     22  C   UNL     1      -0.063   1.502   0.049  0.00  0.00    +0.044 C 
ATOM     23  C   UNL     1      -0.031  -0.005   0.030  0.00  0.00    -0.050 A 
ATOM     24  C   UNL     1      -0.023  -0.681  -1.175  0.00  0.00    +0.003 A 
ATOM     25  C   UNL     1       0.007  -2.063  -1.193  0.00  0.00    +0.004 A 
ATOM     26  C   UNL     1       0.029  -2.769  -0.004  0.00  0.00    -0.049 A 
ATOM     27  C   UNL     1       0.022  -2.093   1.201  0.00  0.00    -0.061 A 
ATOM     28  C   UNL     1      -0.003  -0.711   1.218  0.00  0.00    +0.005 A 
ATOM     29  C   UNL     1       0.061  -4.276  -0.023  0.00  0.00    +0.044 C 
ENDBRANCH  21  27
ENDBRANCH   1  21
BRANCH  14  30
ATOM     30  S   UNL     1       4.735  -1.478   8.747  0.00  0.00    -0.077 S 
BRANCH  30  31
ATOM     31  C   UNL     1       6.152  -1.569   9.877  0.00  0.00    +0.172 C 
BRANCH  31  32
ATOM     32  C   UNL     1       5.878  -0.725  11.095  0.00  0.00    +0.221 C 
ATOM     33  O   UNL     1       4.830  -0.122  11.191  0.00  0.00    -0.275 OA
ATOM     34  N   UNL     1       6.797  -0.641  12.077  0.00  0.00    -0.329 N 
ATOM     35  H   UNL     1       7.635  -1.124  11.999  0.00  0.00    +0.145 HD
ATOM     36  H   UNL     1       6.621  -0.098  12.861  0.00  0.00    +0.145 HD
ENDBRANCH  31  32
ENDBRANCH  30  31
ENDBRANCH  14  30
TORSDOF 5
