REMARK  Name = ZINC33761422
REMARK  8 active torsions:
REMARK  status: ('A' for Active; 'I' for Inactive)
REMARK    1  A    between atoms: C_1  and  C_2
REMARK    2  A    between atoms: C_5  and  N_8
REMARK    3  A    between atoms: C_9  and  C_21
REMARK    4  A    between atoms: C_12  and  S_13
REMARK    5  A    between atoms: S_13  and  C_14
REMARK    6  A    between atoms: C_14  and  C_15
REMARK    7  A    between atoms: C_21  and  N_22
REMARK    8  A    between atoms: N_25  and  C_26
REMARK                            x       y       z     vdW  Elec       q    Type
REMARK                         _______ _______ _______ _____ _____    ______ ____
ROOT
ATOM      1  N   UNL     1       3.017   0.246  -1.148  0.00  0.00    -0.273 N 
ATOM      2  C   UNL     1       2.406   0.752  -0.031  0.00  0.00    +0.156 A 
ATOM      3  N   UNL     1       3.016   0.249   1.005  0.00  0.00    -0.132 NA
ATOM      4  N   UNL     1       3.958  -0.539   0.625  0.00  0.00    -0.122 NA
ATOM      5  C   UNL     1       4.007  -0.577  -0.686  0.00  0.00    +0.196 A 
ENDROOT
BRANCH   1  10
ATOM      6  C   UNL     1       1.711   1.337  -6.563  0.00  0.00    +0.044 C 
ATOM      7  C   UNL     1       2.057   1.048  -5.125  0.00  0.00    -0.050 A 
ATOM      8  C   UNL     1       3.281   1.442  -4.617  0.00  0.00    +0.005 A 
ATOM      9  C   UNL     1       3.602   1.178  -3.300  0.00  0.00    +0.026 A 
ATOM     10  C   UNL     1       2.694   0.516  -2.486  0.00  0.00    +0.050 A 
ATOM     11  C   UNL     1       1.468   0.116  -2.999  0.00  0.00    +0.026 A 
ATOM     12  C   UNL     1       1.151   0.388  -4.316  0.00  0.00    +0.005 A 
ENDBRANCH   1  10
BRANCH   5  13
ATOM     13  S   UNL     1       5.134  -1.512  -1.666  0.00  0.00    -0.081 S 
BRANCH  13  14
ATOM     14  C   UNL     1       6.096  -2.314  -0.359  0.00  0.00    +0.112 C 
BRANCH  14  15
ATOM     15  C   UNL     1       7.153  -3.191  -0.979  0.00  0.00    -0.037 A 
ATOM     16  C   UNL     1       6.875  -4.515  -1.261  0.00  0.00    +0.004 A 
ATOM     17  C   UNL     1       7.843  -5.318  -1.835  0.00  0.00    +0.000 A 
ATOM     18  C   UNL     1       9.092  -4.800  -2.117  0.00  0.00    +0.000 A 
ATOM     19  C   UNL     1       9.373  -3.477  -1.830  0.00  0.00    +0.000 A 
ATOM     20  C   UNL     1       8.403  -2.672  -1.262  0.00  0.00    +0.004 A 
ENDBRANCH  14  15
ENDBRANCH  13  14
ENDBRANCH   5  13
BRANCH   2  21
ATOM     21  C   UNL     1       1.248   1.715  -0.004  0.00  0.00    +0.182 C 
BRANCH  21  22
ATOM     22  N   UNL     1      -0.011   0.966   0.002  0.00  0.00    -0.292 N 
ATOM     23  C   UNL     1      -1.187   1.624   0.018  0.00  0.00    +0.304 C 
ATOM     24  O   UNL     1      -1.204   2.839   0.034  0.00  0.00    -0.252 OA
ATOM     25  N   UNL     1      -2.345   0.934   0.018  0.00  0.00    -0.269 N 
ATOM     26  H   UNL     1       0.004  -0.134  -0.008  0.00  0.00    +0.151 HD
ATOM     27  H   UNL     1      -2.333  -0.162  -0.072  0.00  0.00    +0.156 HD
BRANCH  25  28
ATOM     28  C   UNL     1      -3.564   1.613   0.133  0.00  0.00    +0.035 A 
ATOM     29  C   UNL     1      -4.619   1.035   0.827  0.00  0.00    +0.024 A 
ATOM     30  C   UNL     1      -5.819   1.709   0.943  0.00  0.00    +0.017 A 
ATOM     31  C   UNL     1      -5.974   2.954   0.360  0.00  0.00    +0.018 A 
ATOM     32  C   UNL     1      -4.926   3.530  -0.336  0.00  0.00    +0.017 A 
ATOM     33  C   UNL     1      -3.722   2.863  -0.450  0.00  0.00    +0.024 A 
ATOM     34 BR   UNL     1      -7.620   3.871   0.515  0.00  0.00    -0.050 Br
ENDBRANCH  25  28
ENDBRANCH  21  22
ENDBRANCH   2  21
TORSDOF 7
