REMARK  Name = ZINC40172995
REMARK  12 active torsions:
REMARK  status: ('A' for Active; 'I' for Inactive)
REMARK    1  A    between atoms: C_1  and  C_2
REMARK    2  A    between atoms: C_2  and  C_3
REMARK    3  A    between atoms: C_3  and  C_5
REMARK    4  A    between atoms: C_3  and  N_22
REMARK    5  A    between atoms: N_7  and  C_8
REMARK    6  A    between atoms: C_9  and  C_17
REMARK    7  A    between atoms: C_17  and  O_19
REMARK    8  A    between atoms: O_19  and  C_20
REMARK    9  A    between atoms: C_20  and  C_21
REMARK   10  A    between atoms: C_26  and  S_27
REMARK   11  A    between atoms: S_27  and  C_28
REMARK   12  A    between atoms: C_28  and  C_29
REMARK                            x       y       z     vdW  Elec       q    Type
REMARK                         _______ _______ _______ _____ _____    ______ ____
ROOT
ATOM      1  C   UNL     1      -1.389  -0.642  -0.033  0.00  0.00    +0.178 C 
ENDROOT
BRANCH   1   2
ATOM      2  N   UNL     1      -1.288  -2.091   0.156  0.00  0.00    -0.279 N 
ATOM      3  C   UNL     1      -0.608  -2.960  -0.649  0.00  0.00    +0.216 A 
ATOM      4  N   UNL     1      -0.750  -4.166  -0.155  0.00  0.00    -0.113 NA
ATOM      5  N   UNL     1      -1.541  -4.071   0.997  0.00  0.00    -0.121 NA
ATOM      6  C   UNL     1      -1.852  -2.810   1.173  0.00  0.00    +0.194 A 
ATOM      7  N   UNL     1       0.108  -2.625  -1.791  0.00  0.00    -0.328 N 
ATOM      8  H   UNL     1       0.156  -1.700  -2.079  0.00  0.00    +0.145 HD
ATOM      9  H   UNL     1       0.561  -3.316  -2.300  0.00  0.00    +0.145 HD
BRANCH   6  10
ATOM     10  S   UNL     1      -2.830  -2.157   2.485  0.00  0.00    -0.081 S 
BRANCH  10  11
ATOM     11  C   UNL     1      -3.262  -3.613   3.477  0.00  0.00    +0.112 C 
BRANCH  11  12
ATOM     12  C   UNL     1      -4.110  -3.189   4.648  0.00  0.00    -0.037 A 
ATOM     13  C   UNL     1      -3.510  -2.834   5.843  0.00  0.00    +0.004 A 
ATOM     14  C   UNL     1      -4.288  -2.445   6.917  0.00  0.00    +0.000 A 
ATOM     15  C   UNL     1      -5.665  -2.411   6.798  0.00  0.00    +0.000 A 
ATOM     16  C   UNL     1      -6.264  -2.765   5.603  0.00  0.00    +0.000 A 
ATOM     17  C   UNL     1      -5.486  -3.150   4.527  0.00  0.00    +0.004 A 
ENDBRANCH  11  12
ENDBRANCH  10  11
ENDBRANCH   6  10
ENDBRANCH   1   2
BRANCH   1  18
ATOM     18  C   UNL     1      -2.040  -0.353  -1.360  0.00  0.00    +0.241 C 
ATOM     19  O   UNL     1      -2.452  -1.265  -2.045  0.00  0.00    -0.273 OA
ATOM     20  N   UNL     1      -2.166   0.920  -1.786  0.00  0.00    -0.278 N 
ATOM     21  H   UNL     1      -1.903   1.653  -1.208  0.00  0.00    +0.155 HD
BRANCH  20  22
ATOM     22  C   UNL     1      -2.671   1.181  -3.051  0.00  0.00    +0.086 A 
ATOM     23  C   UNL     1      -2.864   2.415  -3.654  0.00  0.00    +0.091 A 
ATOM     24  C   UNL     1      -3.412   2.417  -4.999  0.00  0.00    -0.021 A 
ATOM     25  C   UNL     1      -3.667   1.187  -5.494  0.00  0.00    -0.004 A 
ATOM     26  S   UNL     1      -3.182   0.075  -4.207  0.00  0.00    -0.077 S 
ATOM     27  C   UNL     1      -4.233   0.858  -6.841  0.00  0.00    +0.043 C 
ATOM     28  C   UNL     1      -4.834   2.140  -7.438  0.00  0.00    +0.005 C 
ATOM     29  C   UNL     1      -3.820   3.278  -7.289  0.00  0.00    +0.005 C 
ATOM     30  C   UNL     1      -3.690   3.671  -5.816  0.00  0.00    +0.037 C 
BRANCH  23  31
ATOM     31  C   UNL     1      -2.529   3.662  -2.964  0.00  0.00    +0.342 C 
ATOM     32  O   UNL     1      -1.416   4.139  -3.075  0.00  0.00    -0.245 OA
BRANCH  31  33
ATOM     33  O   UNL     1      -3.456   4.283  -2.205  0.00  0.00    -0.461 OA
BRANCH  33  34
ATOM     34  C   UNL     1      -3.061   5.495  -1.561  0.00  0.00    +0.229 C 
ATOM     35  C   UNL     1      -4.236   6.049  -0.752  0.00  0.00    +0.048 C 
ENDBRANCH  33  34
ENDBRANCH  31  33
ENDBRANCH  23  31
ENDBRANCH  20  22
ENDBRANCH   1  18
BRANCH   1  37
ATOM     36  C   UNL     1       0.619  -0.197   1.387  0.00  0.00    +0.006 C 
ATOM     37  C   UNL     1       0.011  -0.025  -0.007  0.00  0.00    +0.031 C 
ENDBRANCH   1  37
TORSDOF 10
