REMARK  Name = ZINC22534051
REMARK  9 active torsions:
REMARK  status: ('A' for Active; 'I' for Inactive)
REMARK    1  A    between atoms: C_1  and  C_2
REMARK    2  A    between atoms: C_5  and  C_20
REMARK    3  A    between atoms: C_7  and  S_8
REMARK    4  A    between atoms: S_8  and  N_11
REMARK    5  A    between atoms: N_11  and  C_12
REMARK    6  A    between atoms: C_14  and  C_19
REMARK    7  A    between atoms: C_16  and  C_18
REMARK    8  A    between atoms: N_22  and  C_23
REMARK    9  A    between atoms: C_26  and  N_29
REMARK                            x       y       z     vdW  Elec       q    Type
REMARK                         _______ _______ _______ _____ _____    ______ ____
ROOT
ATOM      1  C   UNL     1       5.066   4.338  -0.110  0.00  0.00    +0.046 C 
ATOM      2  C   UNL     1       3.940   3.338  -0.041  0.00  0.00    -0.024 A 
ATOM      3  C   UNL     1       4.219   1.998   0.160  0.00  0.00    +0.006 A 
ATOM      4  C   UNL     1       3.193   1.079   0.231  0.00  0.00    +0.013 A 
ATOM      5  C   UNL     1       1.871   1.502   0.086  0.00  0.00    +0.039 A 
ATOM      6  C   UNL     1       1.595   2.855  -0.117  0.00  0.00    +0.042 A 
ATOM      7  C   UNL     1       2.631   3.765  -0.179  0.00  0.00    +0.112 A 
ENDROOT
BRANCH   5   8
ATOM      8  C   UNL     1       0.766   0.522   0.153  0.00  0.00    +0.248 C 
ATOM      9  O   UNL     1      -0.385   0.893   0.027  0.00  0.00    -0.270 OA
ATOM     10  N   UNL     1       1.035  -0.784   0.349  0.00  0.00    -0.282 N 
ATOM     11  H   UNL     1       2.078  -1.133   0.375  0.00  0.00    +0.155 HD
BRANCH  10  12
ATOM     12  C   UNL     1      -0.013  -1.696   0.520  0.00  0.00    +0.034 A 
ATOM     13  C   UNL     1      -1.174  -1.306   1.175  0.00  0.00    +0.025 A 
ATOM     14  C   UNL     1      -2.209  -2.204   1.338  0.00  0.00    +0.025 A 
ATOM     15  C   UNL     1      -2.085  -3.502   0.858  0.00  0.00    +0.036 A 
ATOM     16  C   UNL     1      -0.922  -3.893   0.208  0.00  0.00    +0.025 A 
ATOM     17  C   UNL     1       0.111  -2.994   0.040  0.00  0.00    +0.025 A 
BRANCH  15  18
ATOM     18  N   UNL     1      -3.134  -4.414   1.028  0.00  0.00    -0.271 N 
ATOM     19  C   UNL     1      -3.059  -5.837   0.675  0.00  0.00    +0.114 C 
ATOM     20  C   UNL     1      -4.524  -6.325   0.619  0.00  0.00    +0.029 C 
ATOM     21  C   UNL     1      -5.226  -5.325   1.566  0.00  0.00    +0.098 C 
ATOM     22  C   UNL     1      -4.336  -4.101   1.542  0.00  0.00    +0.220 C 
ATOM     23  O   UNL     1      -4.661  -2.998   1.927  0.00  0.00    -0.275 OA
ENDBRANCH  15  18
ENDBRANCH  10  12
ENDBRANCH   5   8
BRANCH   7  24
ATOM     24  S   UNL     1       2.286   5.474  -0.436  0.00  0.00    +0.073 S 
ATOM     25  O   UNL     1       3.107   5.896  -1.517  0.00  0.00    -0.150 OA
ATOM     26  O   UNL     1       0.871   5.603  -0.458  0.00  0.00    -0.150 OA
BRANCH  24  27
ATOM     27  N   UNL     1       2.815   6.287   0.906  0.00  0.00    -0.216 N 
ATOM     28  H   UNL     1       3.604   7.048   0.812  0.00  0.00    +0.174 HD
BRANCH  27  29
ATOM     29  C   UNL     1       2.260   6.007   2.156  0.00  0.00    +0.049 A 
ATOM     30  C   UNL     1       0.882   5.909   2.300  0.00  0.00    +0.028 A 
ATOM     31  C   UNL     1       0.337   5.627   3.537  0.00  0.00    -0.048 A 
ATOM     32  C   UNL     1       1.160   5.452   4.634  0.00  0.00    +0.006 A 
ATOM     33  C   UNL     1       2.532   5.553   4.495  0.00  0.00    -0.048 A 
ATOM     34  C   UNL     1       3.085   5.830   3.260  0.00  0.00    +0.028 A 
ATOM     35  C   UNL     1       3.426   5.362   5.694  0.00  0.00    +0.044 C 
ATOM     36  C   UNL     1      -1.158   5.515   3.693  0.00  0.00    +0.044 C 
ENDBRANCH  27  29
ENDBRANCH  24  27
ENDBRANCH   7  24
TORSDOF 6
