REMARK  Name = ZINC35529918
REMARK  9 active torsions:
REMARK  status: ('A' for Active; 'I' for Inactive)
REMARK    1  A    between atoms: C_1  and  C_2
REMARK    2  A    between atoms: C_2  and  C_3
REMARK    3  A    between atoms: C_2  and  N_4
REMARK    4  A    between atoms: C_5  and  C_7
REMARK    5  A    between atoms: C_7  and  N_8
REMARK    6  A    between atoms: N_11  and  C_14
REMARK    7  A    between atoms: C_17  and  N_23
REMARK    8  A    between atoms: C_18  and  C_20
REMARK    9  A    between atoms: C_24  and  C_26
REMARK                            x       y       z     vdW  Elec       q    Type
REMARK                         _______ _______ _______ _____ _____    ______ ____
ROOT
ATOM      1  C   UNL     1      -1.063  -0.510   8.421  0.00  0.00    +0.031 A 
ATOM      2  C   UNL     1      -1.502   0.791   8.650  0.00  0.00    +0.025 A 
ATOM      3  C   UNL     1      -1.656   1.259   9.938  0.00  0.00    +0.026 A 
ATOM      4  C   UNL     1      -1.374   0.433  11.019  0.00  0.00    +0.048 A 
ATOM      5  C   UNL     1      -0.931  -0.880  10.796  0.00  0.00    +0.086 A 
ATOM      6  C   UNL     1      -0.783  -1.347   9.486  0.00  0.00    +0.040 A 
ENDROOT
BRANCH   1  10
ATOM      7  N   UNL     1       0.284  -1.440   4.636  0.00  0.00    -0.291 NA
ATOM      8  C   UNL     1      -0.147  -0.078   4.976  0.00  0.00    +0.104 C 
ATOM      9  C   UNL     1      -1.316  -0.146   5.964  0.00  0.00    +0.120 C 
ATOM     10  N   UNL     1      -0.910  -0.974   7.110  0.00  0.00    -0.327 N 
ATOM     11  C   UNL     1      -0.339  -2.303   6.842  0.00  0.00    +0.120 C 
ATOM     12  C   UNL     1       0.791  -2.149   5.819  0.00  0.00    +0.104 C 
BRANCH   7  13
ATOM     13  C   UNL     1       1.286  -1.423   3.562  0.00  0.00    +0.180 C 
BRANCH  13  15
ATOM     14  N   UNL     1       1.390  -0.809   1.168  0.00  0.00    -0.312 N 
ATOM     15  C   UNL     1       0.654  -0.912   2.293  0.00  0.00    +0.227 C 
ATOM     16  O   UNL     1      -0.516  -0.594   2.284  0.00  0.00    -0.274 OA
ATOM     17  H   UNL     1       2.325  -1.064   1.176  0.00  0.00    +0.149 HD
BRANCH  14  19
ATOM     18  C   UNL     1       0.815   1.217  -0.075  0.00  0.00    +0.027 C 
ATOM     19  C   UNL     1       0.775  -0.313  -0.066  0.00  0.00    +0.067 C 
ATOM     20  C   UNL     1       1.548  -0.850  -1.272  0.00  0.00    +0.027 C 
ENDBRANCH  14  19
ENDBRANCH  13  15
ENDBRANCH   7  13
ENDBRANCH   1  10
BRANCH   4  21
ATOM     21  N   UNL     1      -1.530   0.907  12.319  0.00  0.00    -0.281 N 
ATOM     22  C   UNL     1      -2.530   1.763  12.610  0.00  0.00    +0.248 C 
ATOM     23  O   UNL     1      -3.247   2.183  11.723  0.00  0.00    -0.270 OA
ATOM     24  H   UNL     1      -0.918   0.622  13.016  0.00  0.00    +0.155 HD
BRANCH  22  25
ATOM     25  C   UNL     1      -2.754   2.191  14.006  0.00  0.00    +0.038 A 
ATOM     26  C   UNL     1      -1.928   1.715  15.027  0.00  0.00    +0.013 A 
ATOM     27  C   UNL     1      -2.143   2.118  16.328  0.00  0.00    +0.002 A 
ATOM     28  C   UNL     1      -3.174   2.991  16.625  0.00  0.00    +0.020 A 
ATOM     29  C   UNL     1      -3.998   3.467  15.618  0.00  0.00    +0.042 A 
ATOM     30  C   UNL     1      -3.789   3.076  14.310  0.00  0.00    +0.033 A 
ATOM     31 CL   UNL     1      -5.290   4.561  16.001  0.00  0.00    -0.084 Cl
ENDBRANCH  22  25
ENDBRANCH   4  21
BRANCH   5  32
ATOM     32  C   UNL     1      -0.629  -1.762  11.935  0.00  0.00    +0.388 C 
ATOM     33  O   UNL     1      -0.149  -2.870  11.740  0.00  0.00    -0.241 OA
ATOM     34  O   UNL     1      -0.858  -1.387  13.077  0.00  0.00    -0.241 OA
ENDBRANCH   5  32
TORSDOF 7
