REMARK  Name = ZINC37042096
REMARK  5 active torsions:
REMARK  status: ('A' for Active; 'I' for Inactive)
REMARK    1  A    between atoms: C_1  and  C_2
REMARK    2  A    between atoms: C_5  and  C_9
REMARK    3  A    between atoms: C_7  and  N_8
REMARK    4  A    between atoms: N_11  and  C_12
REMARK    5  A    between atoms: C_17  and  N_18
REMARK                            x       y       z     vdW  Elec       q    Type
REMARK                         _______ _______ _______ _____ _____    ______ ____
ROOT
ATOM      1  C   UNL     1       0.057  -4.256  -0.030  0.00  0.00    +0.248 C 
ATOM      2  O   UNL     1       0.056  -4.873   1.016  0.00  0.00    -0.270 OA
ATOM      3  N   UNL     1       0.064  -4.918  -1.204  0.00  0.00    -0.280 N 
ATOM      4  H   UNL     1      -0.016  -4.429  -2.038  0.00  0.00    +0.155 HD
ENDROOT
BRANCH   1   9
ATOM      5  C   UNL     1       0.033   1.504   0.008  0.00  0.00    +0.045 C 
ATOM      6  C   UNL     1       0.039  -0.003   0.000  0.00  0.00    -0.030 A 
ATOM      7  C   UNL     1       0.047  -0.686  -1.202  0.00  0.00    +0.006 A 
ATOM      8  C   UNL     1       0.053  -2.066  -1.218  0.00  0.00    +0.013 A 
ATOM      9  C   UNL     1       0.051  -2.777  -0.017  0.00  0.00    +0.039 A 
ATOM     10  C   UNL     1       0.043  -2.089   1.197  0.00  0.00    +0.036 A 
ATOM     11  C   UNL     1       0.043  -0.703   1.202  0.00  0.00    +0.028 A 
BRANCH  11  12
ATOM     12  N   UNL     1       0.041  -0.008   2.414  0.00  0.00    -0.358 N 
ATOM     13  H   UNL     1       0.037   0.962   2.417  0.00  0.00    +0.142 HD
ATOM     14  H   UNL     1       0.044  -0.496   3.252  0.00  0.00    +0.142 HD
ENDBRANCH  11  12
ENDBRANCH   1   9
BRANCH   3  15
ATOM     15  C   UNL     1       0.187  -6.312  -1.220  0.00  0.00    +0.064 A 
ATOM     16  C   UNL     1       0.807  -6.967  -0.164  0.00  0.00    +0.027 A 
ATOM     17  C   UNL     1       0.927  -8.343  -0.181  0.00  0.00    +0.017 A 
ATOM     18  C   UNL     1       0.430  -9.068  -1.250  0.00  0.00    +0.020 A 
ATOM     19  C   UNL     1      -0.189  -8.418  -2.303  0.00  0.00    +0.050 A 
ATOM     20  C   UNL     1      -0.316  -7.043  -2.288  0.00  0.00    +0.148 A 
ATOM     21 BR   UNL     1       0.596 -10.952  -1.271  0.00  0.00    -0.050 Br
BRANCH  20  22
ATOM     22  N   UNL     1      -0.982  -6.348  -3.412  0.00  0.00    +0.058 N 
ATOM     23  O   UNL     1      -1.498  -6.989  -4.298  0.00  0.00    -0.126 OA
ATOM     24  O   UNL     1      -1.010  -5.139  -3.445  0.00  0.00    -0.126 OA
ENDBRANCH  20  22
ENDBRANCH   3  15
TORSDOF 4
