REMARK  Name = ZINC08684877
REMARK  7 active torsions:
REMARK  status: ('A' for Active; 'I' for Inactive)
REMARK    1  A    between atoms: C_1  and  C_2
REMARK    2  A    between atoms: C_4  and  C_15
REMARK    3  A    between atoms: C_5  and  C_14
REMARK    4  A    between atoms: N_6  and  C_7
REMARK    5  A    between atoms: N_16  and  N_17
REMARK    6  A    between atoms: N_17  and  C_18
REMARK    7  A    between atoms: C_18  and  N_20
REMARK                            x       y       z     vdW  Elec       q    Type
REMARK                         _______ _______ _______ _____ _____    ______ ____
ROOT
ATOM      1  C   UNL     1      -0.018   1.503   0.010  0.00  0.00    +0.064 C 
ATOM      2  C   UNL     1       0.002  -0.004   0.002  0.00  0.00    +0.022 A 
ATOM      3  C   UNL     1       0.008  -0.781  -1.097  0.00  0.00    +0.032 A 
ATOM      4  C   UNL     1       0.030  -2.170  -0.628  0.00  0.00    +0.016 A 
ATOM      5  C   UNL     1       0.035  -2.113   0.736  0.00  0.00    +0.030 A 
ATOM      6  N   UNL     1       0.024  -0.804   1.108  0.00  0.00    -0.317 N 
ATOM      7  C   UNL     1       0.056  -3.297   1.669  0.00  0.00    +0.064 C 
ENDROOT
BRANCH   6   8
ATOM      8  C   UNL     1       0.030  -0.345   2.433  0.00  0.00    +0.047 A 
ATOM      9  C   UNL     1       1.133  -0.577   3.244  0.00  0.00    +0.027 A 
ATOM     10  C   UNL     1       1.136  -0.123   4.548  0.00  0.00    +0.022 A 
ATOM     11  C   UNL     1       0.042   0.561   5.048  0.00  0.00    +0.041 A 
ATOM     12  C   UNL     1      -1.058   0.793   4.241  0.00  0.00    +0.022 A 
ATOM     13  C   UNL     1      -1.064   0.347   2.934  0.00  0.00    +0.027 A 
ATOM     14 CL   UNL     1       0.049   1.129   6.688  0.00  0.00    -0.084 Cl
ENDBRANCH   6   8
BRANCH   4  15
ATOM     15  C   UNL     1       0.043  -3.385  -1.464  0.00  0.00    +0.140 C 
ATOM     16  N   UNL     1       0.062  -4.556  -0.905  0.00  0.00    -0.188 NA
BRANCH  16  17
ATOM     17  N   UNL     1       0.074  -5.710  -1.698  0.00  0.00    -0.219 N 
ATOM     18  H   UNL     1       0.069  -5.634  -2.665  0.00  0.00    +0.176 HD
BRANCH  17  19
ATOM     19  C   UNL     1       0.094  -6.927  -1.118  0.00  0.00    +0.147 C 
ATOM     20  S   UNL     1       0.109  -8.338  -2.088  0.00  0.00    -0.017 S 
BRANCH  19  21
ATOM     21  N   UNL     1       0.101  -7.032   0.226  0.00  0.00    -0.339 N 
ATOM     22  H   UNL     1       0.092  -6.233   0.775  0.00  0.00    +0.144 HD
ATOM     23  H   UNL     1       0.115  -7.908   0.643  0.00  0.00    +0.144 HD
ENDBRANCH  19  21
ENDBRANCH  17  19
ENDBRANCH  16  17
ENDBRANCH   4  15
TORSDOF 5
