REMARK  Name = ZINC35023524
REMARK  9 active torsions:
REMARK  status: ('A' for Active; 'I' for Inactive)
REMARK    1  A    between atoms: C_1  and  C_2
REMARK    2  A    between atoms: C_5  and  C_8
REMARK    3  A    between atoms: C_8  and  O_32
REMARK    4  A    between atoms: C_9  and  C_26
REMARK    5  A    between atoms: C_11  and  C_17
REMARK    6  A    between atoms: C_20  and  C_23
REMARK    7  A    between atoms: C_23  and  C_24
REMARK    8  A    between atoms: C_23  and  C_25
REMARK    9  A    between atoms: C_26  and  C_28
REMARK                            x       y       z     vdW  Elec       q    Type
REMARK                         _______ _______ _______ _____ _____    ______ ____
ROOT
ATOM      1  C   UNL     1       0.688  -4.994  -0.708  0.00  0.00    +0.172 C 
ATOM      2  C   UNL     1      -0.808  -4.913  -0.385  0.00  0.00    +0.144 C 
ATOM      3  C   UNL     1      -1.334  -6.333  -0.150  0.00  0.00    +0.120 C 
ATOM      4  N   UNL     1      -1.027  -7.158  -1.319  0.00  0.00    -0.292 N 
ATOM      5  C   UNL     1       0.043  -6.909  -2.088  0.00  0.00    +0.302 C 
ATOM      6  O   UNL     1       0.259  -7.632  -3.041  0.00  0.00    -0.253 OA
ATOM      7  N   UNL     1       0.885  -5.893  -1.847  0.00  0.00    -0.267 N 
ATOM      8  H   UNL     1      -1.610  -7.901  -1.542  0.00  0.00    +0.151 HD
ATOM      9  H   UNL     1       1.640  -5.751  -2.439  0.00  0.00    +0.153 HD
ENDROOT
BRANCH   1  14
ATOM     10  C   UNL     1       2.664   0.271  -2.035  0.00  0.00    +0.044 C 
ATOM     11  C   UNL     1       2.149  -1.102  -1.689  0.00  0.00    -0.050 A 
ATOM     12  C   UNL     1       1.648  -1.923  -2.682  0.00  0.00    +0.004 A 
ATOM     13  C   UNL     1       1.175  -3.183  -2.365  0.00  0.00    +0.008 A 
ATOM     14  C   UNL     1       1.204  -3.622  -1.054  0.00  0.00    +0.003 A 
ATOM     15  C   UNL     1       1.706  -2.801  -0.061  0.00  0.00    +0.008 A 
ATOM     16  C   UNL     1       2.183  -1.543  -0.379  0.00  0.00    +0.004 A 
ENDBRANCH   1  14
BRANCH   3  17
ATOM     17  C   UNL     1      -0.673  -6.919   1.071  0.00  0.00    -0.026 A 
ATOM     18  C   UNL     1      -1.160  -6.623   2.330  0.00  0.00    +0.006 A 
ATOM     19  C   UNL     1      -0.553  -7.162   3.450  0.00  0.00    +0.004 A 
ATOM     20  C   UNL     1       0.540  -7.996   3.309  0.00  0.00    -0.045 A 
ATOM     21  C   UNL     1       1.026  -8.293   2.050  0.00  0.00    +0.004 A 
ATOM     22  C   UNL     1       0.417  -7.758   0.930  0.00  0.00    +0.006 A 
BRANCH  20  23
ATOM     23  C   UNL     1       1.202  -8.582   4.530  0.00  0.00    +0.013 C 
ATOM     24  C   UNL     1       1.139 -10.109   4.460  0.00  0.00    +0.012 C 
ATOM     25  C   UNL     1       2.663  -8.133   4.582  0.00  0.00    +0.012 C 
ENDBRANCH  20  23
ENDBRANCH   3  17
BRANCH   2  26
ATOM     26  C   UNL     1      -1.541  -4.282  -1.540  0.00  0.00    +0.245 C 
ATOM     27  O   UNL     1      -1.125  -4.418  -2.666  0.00  0.00    -0.287 OA
BRANCH  26  28
ATOM     28  C   UNL     1      -2.794  -3.482  -1.291  0.00  0.00    +0.451 C 
ATOM     29  F   UNL     1      -3.290  -3.001  -2.508  0.00  0.00    -0.163 F 
ATOM     30  F   UNL     1      -3.755  -4.297  -0.685  0.00  0.00    -0.163 F 
ATOM     31  F   UNL     1      -2.499  -2.404  -0.449  0.00  0.00    -0.163 F 
ENDBRANCH  26  28
ENDBRANCH   2  26
BRANCH   1  32
ATOM     32  O   UNL     1       1.396  -5.499   0.427  0.00  0.00    -0.367 OA
ATOM     33  H   UNL     1       2.350  -5.579   0.291  0.00  0.00    +0.212 HD
ENDBRANCH   1  32
TORSDOF 6
