REMARK  Name = ZINC40313686
REMARK  4 active torsions:
REMARK  status: ('A' for Active; 'I' for Inactive)
REMARK    1  A    between atoms: C_3  and  N_17
REMARK    2  A    between atoms: C_6  and  N_7
REMARK    3  A    between atoms: C_8  and  C_10
REMARK    4  A    between atoms: C_12  and  N_16
REMARK                            x       y       z     vdW  Elec       q    Type
REMARK                         _______ _______ _______ _____ _____    ______ ____
ROOT
ATOM      1  N   UNL     1      -1.201  -0.721   0.010  0.00  0.00    -0.280 N 
ATOM      2  C   UNL     1      -2.149  -0.081  -0.703  0.00  0.00    +0.265 C 
ATOM      3  O   UNL     1      -1.872   0.940  -1.305  0.00  0.00    -0.268 OA
ATOM      4  H   UNL     1      -1.400  -1.575   0.425  0.00  0.00    +0.155 HD
ENDROOT
BRANCH   1  10
ATOM      5  C   UNL     1       0.210   1.226   0.243  0.00  0.00    +0.025 A 
ATOM      6  C   UNL     1       1.464   1.786   0.383  0.00  0.00    +0.025 A 
ATOM      7  C   UNL     1       2.587   0.970   0.433  0.00  0.00    +0.030 A 
ATOM      8  C   UNL     1       2.448  -0.409   0.342  0.00  0.00    +0.025 A 
ATOM      9  C   UNL     1       1.194  -0.969   0.202  0.00  0.00    +0.025 A 
ATOM     10  C   UNL     1       0.071  -0.153   0.152  0.00  0.00    +0.034 A 
BRANCH   7  11
ATOM     11  N   UNL     1       3.858   1.537   0.575  0.00  0.00    -0.330 N 
ATOM     12  C   UNL     1       5.044   0.685   0.743  0.00  0.00    +0.105 C 
ATOM     13  C   UNL     1       6.082   1.070  -0.316  0.00  0.00    +0.019 C 
ATOM     14  C   UNL     1       6.368   2.570  -0.223  0.00  0.00    +0.003 C 
ATOM     15  C   UNL     1       5.083   3.354  -0.498  0.00  0.00    +0.019 C 
ATOM     16  C   UNL     1       4.034   2.995   0.552  0.00  0.00    +0.105 C 
ENDBRANCH   7  11
ENDBRANCH   1  10
BRANCH   2  17
ATOM     17  C   UNL     1      -3.514  -0.614  -0.753  0.00  0.00    +0.104 A 
ATOM     18  C   UNL     1      -4.577  -0.068  -1.443  0.00  0.00    +0.055 A 
ATOM     19  C   UNL     1      -5.685  -0.896  -1.217  0.00  0.00    +0.043 A 
ATOM     20  C   UNL     1      -5.285  -1.912  -0.407  0.00  0.00    +0.106 A 
ATOM     21  N   UNL     1      -3.965  -1.751  -0.124  0.00  0.00    -0.355 N 
ATOM     22  H   UNL     1      -3.430  -2.340   0.431  0.00  0.00    +0.166 HD
BRANCH  19  23
ATOM     23  N   UNL     1      -6.980  -0.708  -1.734  0.00  0.00    -0.357 N 
ATOM     24  H   UNL     1      -7.168   0.052  -2.306  0.00  0.00    +0.142 HD
ATOM     25  H   UNL     1      -7.684  -1.339  -1.519  0.00  0.00    +0.142 HD
ENDBRANCH  19  23
ENDBRANCH   2  17
TORSDOF 4
