REMARK  Name = ZINC20288661
REMARK  10 active torsions:
REMARK  status: ('A' for Active; 'I' for Inactive)
REMARK    1  A    between atoms: C_1  and  C_2
REMARK    2  A    between atoms: C_2  and  N_24
REMARK    3  A    between atoms: C_4  and  C_16
REMARK    4  A    between atoms: N_6  and  C_9
REMARK    5  A    between atoms: C_19  and  O_22
REMARK    6  A    between atoms: O_22  and  C_23
REMARK    7  A    between atoms: N_24  and  C_25
REMARK    8  A    between atoms: C_25  and  C_26
REMARK    9  A    between atoms: C_29  and  S_32
REMARK   10  A    between atoms: S_32  and  N_35
REMARK                            x       y       z     vdW  Elec       q    Type
REMARK                         _______ _______ _______ _____ _____    ______ ____
ROOT
ATOM      1  C   UNL     1      -0.034   1.508  -0.013  0.00  0.00    +0.061 C 
ATOM      2  C   UNL     1       0.011   0.001  -0.002  0.00  0.00    +0.015 C 
ATOM      3  C   UNL     1       0.030  -0.680   1.200  0.00  0.00    +0.083 C 
ATOM      4  C   UNL     1      -0.045  -2.141   1.399  0.00  0.00    +0.103 C 
ATOM      5  N   UNL     1       0.007  -2.357   2.689  0.00  0.00    -0.171 NA
ATOM      6  N   UNL     1       0.112  -1.147   3.376  0.00  0.00    -0.156 N 
ATOM      7  C   UNL     1       0.134  -0.121   2.504  0.00  0.00    +0.274 C 
ATOM      8  O   UNL     1       0.224   1.063   2.781  0.00  0.00    -0.268 OA
ENDROOT
BRANCH   6   9
ATOM      9  C   UNL     1       0.189  -1.019   4.769  0.00  0.00    +0.061 A 
ATOM     10  C   UNL     1       0.285   0.240   5.347  0.00  0.00    +0.028 A 
ATOM     11  C   UNL     1       0.361   0.364   6.721  0.00  0.00    +0.040 A 
ATOM     12  C   UNL     1       0.341  -0.766   7.521  0.00  0.00    +0.124 A 
ATOM     13  C   UNL     1       0.246  -2.022   6.946  0.00  0.00    +0.040 A 
ATOM     14  C   UNL     1       0.164  -2.151   5.574  0.00  0.00    +0.028 A 
ATOM     15  F   UNL     1       0.415  -0.642   8.864  0.00  0.00    -0.205 F 
ENDBRANCH   6   9
BRANCH   4  16
ATOM     16  C   UNL     1      -0.159  -3.169   0.339  0.00  0.00    +0.003 A 
ATOM     17  C   UNL     1       0.986  -3.802  -0.147  0.00  0.00    +0.013 A 
ATOM     18  C   UNL     1       0.876  -4.758  -1.134  0.00  0.00    +0.046 A 
ATOM     19  C   UNL     1      -0.371  -5.091  -1.645  0.00  0.00    +0.120 A 
ATOM     20  C   UNL     1      -1.512  -4.463  -1.164  0.00  0.00    +0.046 A 
ATOM     21  C   UNL     1      -1.411  -3.511  -0.172  0.00  0.00    +0.013 A 
BRANCH  19  22
ATOM     22  O   UNL     1      -0.475  -6.034  -2.618  0.00  0.00    -0.495 OA
ATOM     23  C   UNL     1      -1.789  -6.328  -3.098  0.00  0.00    +0.277 C 
ENDBRANCH  19  22
ENDBRANCH   4  16
BRANCH   2  24
ATOM     24  N   UNL     1       0.032  -0.682  -1.165  0.00  0.00    -0.343 N 
ATOM     25  H   UNL     1      -0.014  -1.651  -1.160  0.00  0.00    +0.146 HD
BRANCH  24  26
ATOM     26  C   UNL     1       0.123   0.040  -2.437  0.00  0.00    +0.136 C 
BRANCH  26  27
ATOM     27  C   UNL     1       0.129  -0.948  -3.575  0.00  0.00    -0.030 A 
ATOM     28  C   UNL     1       1.325  -1.461  -4.040  0.00  0.00    +0.007 A 
ATOM     29  C   UNL     1       1.331  -2.367  -5.084  0.00  0.00    +0.029 A 
ATOM     30  C   UNL     1       0.139  -2.760  -5.664  0.00  0.00    +0.105 A 
ATOM     31  C   UNL     1      -1.058  -2.247  -5.199  0.00  0.00    +0.029 A 
ATOM     32  C   UNL     1      -1.063  -1.345  -4.152  0.00  0.00    +0.007 A 
BRANCH  30  33
ATOM     33  S   UNL     1       0.145  -3.913  -6.996  0.00  0.00    +0.056 S 
ATOM     34  O   UNL     1      -1.057  -3.702  -7.722  0.00  0.00    -0.153 OA
ATOM     35  O   UNL     1       1.427  -3.826  -7.603  0.00  0.00    -0.153 OA
BRANCH  33  36
ATOM     36  N   UNL     1       0.038  -5.427  -6.333  0.00  0.00    -0.204 NA
ATOM     37  H   UNL     1      -0.395  -6.142  -6.825  0.00  0.00    +0.144 HD
ATOM     38  H   UNL     1       0.408  -5.598  -5.453  0.00  0.00    +0.144 HD
ENDBRANCH  33  36
ENDBRANCH  30  33
ENDBRANCH  26  27
ENDBRANCH  24  26
ENDBRANCH   2  24
TORSDOF 8
