REMARK  Name = ZINC44848602
REMARK  8 active torsions:
REMARK  status: ('A' for Active; 'I' for Inactive)
REMARK    1  A    between atoms: C_1  and  O_2
REMARK    2  A    between atoms: O_2  and  C_3
REMARK    3  A    between atoms: C_3  and  C_5
REMARK    4  A    between atoms: C_9  and  N_10
REMARK    5  A    between atoms: C_11  and  C_13
REMARK    6  A    between atoms: C_16  and  N_20
REMARK    7  A    between atoms: N_20  and  S_21
REMARK    8  A    between atoms: S_21  and  C_24
REMARK                            x       y       z     vdW  Elec       q    Type
REMARK                         _______ _______ _______ _____ _____    ______ ____
ROOT
ATOM      1  N   UNL     1       2.828  -2.276   0.085  0.00  0.00    -0.275 N 
ATOM      2  C   UNL     1       3.769  -3.119   0.553  0.00  0.00    +0.250 C 
ATOM      3  O   UNL     1       3.644  -4.318   0.394  0.00  0.00    -0.270 OA
ATOM      4  H   UNL     1       2.927  -1.319   0.211  0.00  0.00    +0.156 HD
ENDROOT
BRANCH   1   9
ATOM      5  C   UNL     1       0.659  -2.064  -1.123  0.00  0.00    +0.091 A 
ATOM      6  C   UNL     1      -0.388  -2.830  -1.776  0.00  0.00    -0.021 A 
ATOM      7  C   UNL     1      -0.188  -4.165  -1.760  0.00  0.00    -0.004 A 
ATOM      8  S   UNL     1       1.345  -4.379  -0.903  0.00  0.00    -0.077 S 
ATOM      9  C   UNL     1       1.718  -2.775  -0.578  0.00  0.00    +0.087 A 
ATOM     10  C   UNL     1      -1.080  -5.217  -2.344  0.00  0.00    +0.043 C 
ATOM     11  C   UNL     1      -2.447  -4.581  -2.636  0.00  0.00    +0.005 C 
ATOM     12  C   UNL     1      -2.231  -3.260  -3.380  0.00  0.00    +0.005 C 
ATOM     13  C   UNL     1      -1.619  -2.224  -2.434  0.00  0.00    +0.037 C 
BRANCH   5  14
ATOM     14  C   UNL     1       0.601  -0.603  -1.048  0.00  0.00    +0.342 C 
ATOM     15  O   UNL     1       1.094   0.071  -1.933  0.00  0.00    -0.245 OA
BRANCH  14  17
ATOM     16  C   UNL     1      -0.017   1.425   0.010  0.00  0.00    +0.280 C 
ATOM     17  O   UNL     1       0.002  -0.004   0.002  0.00  0.00    -0.464 OA
ENDBRANCH  14  17
ENDBRANCH   5  14
ENDBRANCH   1   9
BRANCH   2  18
ATOM     18  C   UNL     1       4.949  -2.588   1.258  0.00  0.00    +0.055 A 
ATOM     19  C   UNL     1       5.092  -1.210   1.446  0.00  0.00    +0.016 A 
ATOM     20  C   UNL     1       6.186  -0.718   2.099  0.00  0.00    +0.027 A 
ATOM     21  C   UNL     1       7.164  -1.585   2.580  0.00  0.00    +0.076 A 
ATOM     22  C   UNL     1       7.032  -2.958   2.398  0.00  0.00    +0.047 A 
ATOM     23  C   UNL     1       5.928  -3.462   1.745  0.00  0.00    +0.055 A 
ATOM     24 CL   UNL     1       5.755  -5.175   1.520  0.00  0.00    -0.083 Cl
BRANCH  21  25
ATOM     25  N   UNL     1       8.275  -1.077   3.244  0.00  0.00    -0.098 NA
BRANCH  25  26
ATOM     26  S   UNL     1       9.439  -2.107   3.817  0.00  0.00    +0.092 S 
ATOM     27  O   UNL     1       8.831  -2.874   4.848  0.00  0.00    -0.148 OA
ATOM     28  O   UNL     1      10.048  -2.704   2.681  0.00  0.00    -0.148 OA
BRANCH  26  29
ATOM     29  C   UNL     1      10.675  -1.117   4.590  0.00  0.00    +0.110 A 
ATOM     30  C   UNL     1      11.742  -0.642   3.850  0.00  0.00    +0.029 A 
ATOM     31  C   UNL     1      12.712   0.135   4.455  0.00  0.00    +0.002 A 
ATOM     32  C   UNL     1      12.615   0.437   5.801  0.00  0.00    +0.000 A 
ATOM     33  C   UNL     1      11.548  -0.037   6.540  0.00  0.00    +0.002 A 
ATOM     34  C   UNL     1      10.575  -0.810   5.934  0.00  0.00    +0.029 A 
ENDBRANCH  26  29
ENDBRANCH  25  26
ENDBRANCH  21  25
ENDBRANCH   2  18
TORSDOF 7
