REMARK  Name = ZINC32528120
REMARK  7 active torsions:
REMARK  status: ('A' for Active; 'I' for Inactive)
REMARK    1  A    between atoms: C_1  and  C_2
REMARK    2  A    between atoms: C_2  and  C_3
REMARK    3  A    between atoms: C_3  and  C_5
REMARK    4  A    between atoms: C_3  and  S_21
REMARK    5  A    between atoms: C_13  and  S_17
REMARK    6  A    between atoms: S_17  and  N_20
REMARK    7  A    between atoms: S_21  and  C_22
REMARK                            x       y       z     vdW  Elec       q    Type
REMARK                         _______ _______ _______ _____ _____    ______ ____
ROOT
ATOM      1  C   UNL     1       0.858  -0.829   0.050  0.00  0.00    +0.232 C 
ATOM      2  O   UNL     1       1.721  -0.003   0.256  0.00  0.00    -0.274 OA
ATOM      3  N   UNL     1      -0.437  -0.456   0.013  0.00  0.00    -0.264 N 
ATOM      4  C   UNL     1      -0.781   0.871   0.209  0.00  0.00    +0.165 A 
ATOM      5  N   UNL     1       0.001   1.899   0.442  0.00  0.00    -0.225 NA
ATOM      6  C   UNL     1      -0.476   3.150   0.615  0.00  0.00    +0.080 A 
ATOM      7  C   UNL     1       0.253   4.335   0.870  0.00  0.00    +0.031 A 
ATOM      8  C   UNL     1      -0.392   5.535   1.022  0.00  0.00    +0.030 A 
ATOM      9  C   UNL     1      -1.774   5.632   0.932  0.00  0.00    +0.106 A 
ATOM     10  C   UNL     1      -2.518   4.493   0.684  0.00  0.00    +0.045 A 
ATOM     11  C   UNL     1      -1.880   3.287   0.531  0.00  0.00    +0.043 A 
ATOM     12  S   UNL     1      -2.404   1.621   0.203  0.00  0.00    -0.052 S 
ATOM     13  H   UNL     1      -1.220  -1.206  -0.173  0.00  0.00    +0.157 HD
ENDROOT
BRANCH   9  14
ATOM     14  S   UNL     1      -2.571   7.190   1.132  0.00  0.00    +0.056 S 
ATOM     15  O   UNL     1      -1.607   8.184   0.813  0.00  0.00    -0.153 OA
ATOM     16  O   UNL     1      -3.820   7.097   0.460  0.00  0.00    -0.153 OA
BRANCH  14  17
ATOM     17  N   UNL     1      -2.913   7.363   2.743  0.00  0.00    -0.204 NA
ATOM     18  H   UNL     1      -3.413   8.328   2.911  0.00  0.00    +0.144 HD
ATOM     19  H   UNL     1      -1.978   7.329   3.322  0.00  0.00    +0.144 HD
ENDBRANCH  14  17
ENDBRANCH   9  14
BRANCH   1  20
ATOM     20  C   UNL     1       1.232  -2.273  -0.163  0.00  0.00    +0.139 C 
BRANCH  20  22
ATOM     21  C   UNL     1      -0.027  -2.393  -2.318  0.00  0.00    +0.005 C 
ATOM     22  C   UNL     1       1.346  -2.554  -1.663  0.00  0.00    +0.020 C 
ENDBRANCH  20  22
BRANCH  20  23
ATOM     23  S   UNL     1       2.821  -2.609   0.636  0.00  0.00    -0.093 S 
BRANCH  23  24
ATOM     24  C   UNL     1       2.857  -4.367   0.517  0.00  0.00    +0.098 A 
ATOM     25  C   UNL     1       4.020  -5.055   0.897  0.00  0.00    +0.035 A 
ATOM     26  C   UNL     1       4.060  -6.414   0.816  0.00  0.00    +0.012 A 
ATOM     27  C   UNL     1       2.920  -7.090   0.335  0.00  0.00    +0.000 A 
ATOM     28  C   UNL     1       2.896  -8.488   0.219  0.00  0.00    +0.010 A 
ATOM     29  C   UNL     1       1.777  -9.107  -0.250  0.00  0.00    +0.001 A 
ATOM     30  C   UNL     1       0.654  -8.369  -0.617  0.00  0.00    +0.002 A 
ATOM     31  C   UNL     1       0.643  -7.012  -0.518  0.00  0.00    +0.028 A 
ATOM     32  C   UNL     1       1.779  -6.338  -0.038  0.00  0.00    +0.072 A 
ATOM     33  N   UNL     1       1.795  -5.004   0.068  0.00  0.00    -0.240 NA
ENDBRANCH  23  24
ENDBRANCH  20  23
ENDBRANCH   1  20
TORSDOF 6
