REMARK  Name = ZINC39687237
REMARK  7 active torsions:
REMARK  status: ('A' for Active; 'I' for Inactive)
REMARK    1  A    between atoms: C_1  and  C_2
REMARK    2  A    between atoms: C_7  and  C_8
REMARK    3  A    between atoms: C_12  and  C_21
REMARK    4  A    between atoms: N_23  and  C_24
REMARK    5  A    between atoms: C_24  and  C_26
REMARK    6  A    between atoms: C_24  and  C_33
REMARK    7  A    between atoms: C_26  and  C_27
REMARK                            x       y       z     vdW  Elec       q    Type
REMARK                         _______ _______ _______ _____ _____    ______ ____
ROOT
ATOM      1  C   UNL     1       0.453   1.010   2.986  0.00  0.00    +0.247 C 
ATOM      2  O   UNL     1       0.504   2.199   3.236  0.00  0.00    -0.270 OA
ATOM      3  N   UNL     1       0.542   0.108   3.982  0.00  0.00    -0.296 N 
ATOM      4  C   UNL     1       0.608  -1.368   3.867  0.00  0.00    +0.121 C 
ATOM      5  C   UNL     1       1.627  -1.798   4.946  0.00  0.00    +0.100 C 
ATOM      6  C   UNL     1       1.613  -0.657   5.977  0.00  0.00    -0.004 C 
ATOM      7  C   UNL     1       0.602   0.367   5.441  0.00  0.00    +0.115 C 
ATOM      8  C   UNL     1       2.995  -0.020   6.079  0.00  0.00    -0.010 C 
ATOM      9  C   UNL     1       2.970   1.074   7.151  0.00  0.00    -0.082 C 
ATOM     10  N   UNL     1       2.582   0.490   8.440  0.00  0.00    +0.379 N 
ATOM     11  C   UNL     1       1.214  -0.039   8.359  0.00  0.00    -0.082 C 
ATOM     12  C   UNL     1       1.165  -1.179   7.338  0.00  0.00    -0.010 C 
ATOM     13  H   UNL     1       3.217  -0.259   8.673  0.00  0.00    -0.086 HD
ATOM     14  H   UNL     1       2.624   1.199   9.156  0.00  0.00    -0.086 HD
ENDROOT
BRANCH   1  21
ATOM     15  C   UNL     1      -1.653   2.132   1.348  0.00  0.00    +0.044 C 
ATOM     16  C   UNL     1      -0.720   1.089   0.789  0.00  0.00    -0.038 A 
ATOM     17  C   UNL     1      -0.860   0.665  -0.516  0.00  0.00    +0.004 A 
ATOM     18  C   UNL     1      -0.004  -0.292  -1.032  0.00  0.00    +0.000 A 
ATOM     19  C   UNL     1       0.998  -0.830  -0.243  0.00  0.00    +0.001 A 
ATOM     20  C   UNL     1       1.149  -0.414   1.064  0.00  0.00    +0.013 A 
ATOM     21  C   UNL     1       0.292   0.556   1.588  0.00  0.00    +0.040 A 
ENDBRANCH   1  21
BRANCH   5  22
ATOM     22  C   UNL     1       3.000  -1.946   4.342  0.00  0.00    +0.219 C 
ATOM     23  O   UNL     1       3.664  -2.932   4.580  0.00  0.00    -0.275 OA
ATOM     24  N   UNL     1       3.490  -0.981   3.539  0.00  0.00    -0.303 N 
ATOM     25  H   UNL     1       2.990  -0.160   3.406  0.00  0.00    +0.149 HD
BRANCH  24  26
ATOM     26  C   UNL     1       4.777  -1.172   2.866  0.00  0.00    +0.163 C 
BRANCH  26  27
ATOM     27  C   UNL     1       5.388   0.172   2.559  0.00  0.00    +0.236 C 
ATOM     28  O   UNL     1       4.682   1.156   2.486  0.00  0.00    -0.274 OA
ATOM     29  N   UNL     1       6.717   0.280   2.365  0.00  0.00    -0.300 N 
ATOM     30  C   UNL     1       7.569  -0.917   2.339  0.00  0.00    +0.108 C 
ATOM     31  C   UNL     1       8.385  -0.912   1.042  0.00  0.00    +0.019 C 
ATOM     32  C   UNL     1       9.152   0.407   0.932  0.00  0.00    +0.003 C 
ATOM     33  C   UNL     1       8.161   1.572   0.882  0.00  0.00    +0.019 C 
ATOM     34  C   UNL     1       7.341   1.595   2.171  0.00  0.00    +0.108 C 
ENDBRANCH  26  27
BRANCH  26  35
ATOM     35  C   UNL     1       4.562  -1.944   1.563  0.00  0.00    +0.067 C 
BRANCH  35  36
ATOM     36  C   UNL     1       4.093  -3.341   1.878  0.00  0.00    -0.045 A 
ATOM     37  C   UNL     1       5.014  -4.354   2.063  0.00  0.00    +0.004 A 
ATOM     38  C   UNL     1       4.584  -5.636   2.352  0.00  0.00    +0.000 A 
ATOM     39  C   UNL     1       3.232  -5.903   2.458  0.00  0.00    +0.000 A 
ATOM     40  C   UNL     1       2.310  -4.889   2.274  0.00  0.00    +0.000 A 
ATOM     41  C   UNL     1       2.741  -3.607   1.989  0.00  0.00    +0.004 A 
ENDBRANCH  35  36
ENDBRANCH  26  35
ENDBRANCH  24  26
ENDBRANCH   5  22
TORSDOF 6
