REMARK  Name = ZINC64103707
REMARK  7 active torsions:
REMARK  status: ('A' for Active; 'I' for Inactive)
REMARK    1  A    between atoms: C_1  and  C_2
REMARK    2  A    between atoms: C_2  and  C_4
REMARK    3  A    between atoms: C_2  and  N_13
REMARK    4  A    between atoms: C_14  and  C_16
REMARK    5  A    between atoms: C_19  and  S_21
REMARK    6  A    between atoms: S_21  and  N_24
REMARK    7  A    between atoms: N_24  and  C_25
REMARK                            x       y       z     vdW  Elec       q    Type
REMARK                         _______ _______ _______ _____ _____    ______ ____
ROOT
ATOM      1  C   UNL     1       0.696  -1.083  -3.570  0.00  0.00    +0.108 C 
ATOM      2  N   UNL     1       1.948  -1.417  -3.677  0.00  0.00    -0.253 NA
ATOM      3  C   UNL     1       2.293  -1.813  -4.907  0.00  0.00    +0.136 C 
ATOM      4  C   UNL     1       1.268  -1.778  -5.763  0.00  0.00    +0.112 C 
ATOM      5  C   UNL     1       0.087  -1.288  -4.944  0.00  0.00    +0.118 C 
ENDROOT
BRANCH   1   7
ATOM      6  N   UNL     1       0.688  -0.476  -1.203  0.00  0.00    -0.301 N 
ATOM      7  C   UNL     1       0.006  -0.608  -2.358  0.00  0.00    +0.259 C 
ATOM      8  O   UNL     1      -1.178  -0.335  -2.400  0.00  0.00    -0.269 OA
ATOM      9  H   UNL     1       1.632  -0.695  -1.170  0.00  0.00    +0.150 HD
BRANCH   6  11
ATOM     10  C   UNL     1      -0.019   1.526   0.010  0.00  0.00    +0.036 C 
ATOM     11  C   UNL     1       0.002  -0.004   0.002  0.00  0.00    +0.136 C 
BRANCH  11  12
ATOM     12  C   UNL     1       0.731  -0.503   1.223  0.00  0.00    +0.126 A 
ATOM     13  C   UNL     1       0.140  -0.958   2.336  0.00  0.00    +0.055 A 
ATOM     14  C   UNL     1       1.225  -1.333   3.251  0.00  0.00    +0.020 A 
ATOM     15  C   UNL     1       1.275  -1.860   4.541  0.00  0.00    +0.011 A 
ATOM     16  C   UNL     1       2.486  -2.101   5.129  0.00  0.00    +0.001 A 
ATOM     17  C   UNL     1       3.663  -1.824   4.450  0.00  0.00    +0.004 A 
ATOM     18  C   UNL     1       3.634  -1.302   3.174  0.00  0.00    +0.047 A 
ATOM     19  C   UNL     1       2.414  -1.051   2.558  0.00  0.00    +0.135 A 
ATOM     20  O   UNL     1       2.068  -0.562   1.351  0.00  0.00    -0.458 OA
ENDBRANCH  11  12
ENDBRANCH   6  11
ENDBRANCH   1   7
BRANCH   4  21
ATOM     21  S   UNL     1       1.282  -2.213  -7.470  0.00  0.00    +0.090 S 
ATOM     22  O   UNL     1       2.545  -2.811  -7.726  0.00  0.00    -0.149 OA
ATOM     23  O   UNL     1       0.056  -2.884  -7.728  0.00  0.00    -0.149 OA
BRANCH  21  24
ATOM     24  N   UNL     1       1.241  -0.802  -8.335  0.00  0.00    -0.095 NA
BRANCH  24  25
ATOM     25  C   UNL     1       1.243  -0.839  -9.733  0.00  0.00    +0.109 A 
ATOM     26  C   UNL     1       1.273  -2.058 -10.397  0.00  0.00    +0.029 A 
ATOM     27  C   UNL     1       1.275  -2.091 -11.778  0.00  0.00    +0.002 A 
ATOM     28  C   UNL     1       1.247  -0.912 -12.501  0.00  0.00    +0.003 A 
ATOM     29  C   UNL     1       1.217   0.304 -11.844  0.00  0.00    +0.040 A 
ATOM     30  C   UNL     1       1.209   0.345 -10.462  0.00  0.00    +0.148 A 
ATOM     31  F   UNL     1       1.174   1.534  -9.820  0.00  0.00    -0.203 F 
ENDBRANCH  24  25
ENDBRANCH  21  24
ENDBRANCH   4  21
TORSDOF 6
