REMARK  Name = ZINC09345498
REMARK  6 active torsions:
REMARK  status: ('A' for Active; 'I' for Inactive)
REMARK    1  A    between atoms: C_1  and  O_2
REMARK    2  A    between atoms: O_2  and  C_3
REMARK    3  A    between atoms: C_6  and  C_10
REMARK    4  A    between atoms: N_15  and  C_16
REMARK    5  A    between atoms: C_16  and  N_18
REMARK    6  A    between atoms: C_19  and  C_21
REMARK                            x       y       z     vdW  Elec       q    Type
REMARK                         _______ _______ _______ _____ _____    ______ ____
ROOT
ATOM      1  C   UNL     1       2.476  -2.493  -4.373  0.00  0.00    +0.055 A 
ATOM      2  C   UNL     1       3.042  -1.775  -5.368  0.00  0.00    +0.074 A 
ATOM      3  S   UNL     1       3.665  -3.054  -6.442  0.00  0.00    -0.060 S 
ATOM      4  C   UNL     1       3.169  -4.397  -5.562  0.00  0.00    +0.162 A 
ATOM      5  N   UNL     1       2.550  -3.855  -4.477  0.00  0.00    -0.335 N 
ATOM      6  N   UNL     1       3.344  -5.684  -5.853  0.00  0.00    -0.169 NA
ATOM      7  H   UNL     1       2.165  -4.424  -3.792  0.00  0.00    +0.168 HD
ENDROOT
BRANCH   1  11
ATOM      8  C   UNL     1       0.573  -0.610  -1.072  0.00  0.00    +0.134 A 
ATOM      9  C   UNL     1       1.139   0.162  -2.078  0.00  0.00    +0.047 A 
ATOM     10  C   UNL     1       1.757  -0.446  -3.150  0.00  0.00    +0.013 A 
ATOM     11  C   UNL     1       1.814  -1.838  -3.224  0.00  0.00    +0.000 A 
ATOM     12  C   UNL     1       1.245  -2.611  -2.211  0.00  0.00    +0.029 A 
ATOM     13  C   UNL     1       0.632  -1.996  -1.139  0.00  0.00    +0.060 A 
ATOM     14 BR   UNL     1      -0.133  -3.041   0.239  0.00  0.00    -0.046 Br
BRANCH   8  16
ATOM     15  C   UNL     1      -0.061   1.421  -0.012  0.00  0.00    +0.277 C 
ATOM     16  O   UNL     1      -0.036  -0.007  -0.017  0.00  0.00    -0.494 OA
ENDBRANCH   8  16
ENDBRANCH   1  11
BRANCH   6  17
ATOM     17  C   UNL     1       3.893  -6.035  -7.019  0.00  0.00    +0.163 C 
ATOM     18  S   UNL     1       4.496  -4.834  -8.079  0.00  0.00    -0.016 S 
BRANCH  17  19
ATOM     19  N   UNL     1       3.972  -7.337  -7.361  0.00  0.00    -0.260 N 
ATOM     20  C   UNL     1       4.526  -7.692  -8.537  0.00  0.00    +0.285 C 
ATOM     21  O   UNL     1       4.954  -6.838  -9.290  0.00  0.00    -0.266 OA
ATOM     22  H   UNL     1       3.630  -8.018  -6.760  0.00  0.00    +0.157 HD
BRANCH  20  23
ATOM     23  C   UNL     1       4.612  -9.110  -8.909  0.00  0.00    +0.191 A 
ATOM     24  C   UNL     1       5.152  -9.584 -10.062  0.00  0.00    +0.063 A 
ATOM     25  C   UNL     1       5.021 -11.039 -10.003  0.00  0.00    +0.021 A 
ATOM     26  C   UNL     1       5.374 -12.085 -10.860  0.00  0.00    +0.011 A 
ATOM     27  C   UNL     1       5.105 -13.375 -10.500  0.00  0.00    +0.001 A 
ATOM     28  C   UNL     1       4.483 -13.653  -9.290  0.00  0.00    +0.004 A 
ATOM     29  C   UNL     1       4.126 -12.636  -8.431  0.00  0.00    +0.047 A 
ATOM     30  C   UNL     1       4.391 -11.316  -8.775  0.00  0.00    +0.136 A 
ATOM     31  O   UNL     1       4.172 -10.139  -8.156  0.00  0.00    -0.450 OA
ENDBRANCH  20  23
ENDBRANCH  17  19
ENDBRANCH   6  17
TORSDOF 5
