REMARK  Name = ZINC32946448
REMARK  6 active torsions:
REMARK  status: ('A' for Active; 'I' for Inactive)
REMARK    1  A    between atoms: C_1  and  O_2
REMARK    2  A    between atoms: O_2  and  C_3
REMARK    3  A    between atoms: C_3  and  C_5
REMARK    4  A    between atoms: C_13  and  C_17
REMARK    5  A    between atoms: N_19  and  C_20
REMARK    6  A    between atoms: C_20  and  C_21
REMARK                            x       y       z     vdW  Elec       q    Type
REMARK                         _______ _______ _______ _____ _____    ______ ____
ROOT
ATOM      1  C   UNL     1      -0.017   1.390   0.010  0.00  0.00    +0.061 A 
ATOM      2  C   UNL     1       1.180   2.111   0.002  0.00  0.00    +0.016 A 
ATOM      3  C   UNL     1       2.389   1.450  -0.014  0.00  0.00    +0.016 A 
ATOM      4  C   UNL     1       2.411   0.056  -0.021  0.00  0.00    +0.065 A 
ATOM      5  C   UNL     1       1.218  -0.671  -0.013  0.00  0.00    +0.063 A 
ATOM      6  C   UNL     1       0.002  -0.004   0.002  0.00  0.00    +0.042 A 
ATOM      7  N   UNL     1       1.238  -2.082  -0.021  0.00  0.00    -0.281 N 
ATOM      8  C   UNL     1       2.433  -2.735  -0.036  0.00  0.00    +0.162 A 
ATOM      9  C   UNL     1       2.392  -4.124  -0.043  0.00  0.00    +0.119 A 
ATOM     10  S   UNL     1       0.645  -4.455  -0.029  0.00  0.00    -0.055 S 
ATOM     11  C   UNL     1       0.085  -2.821  -0.014  0.00  0.00    +0.132 A 
ATOM     12  S   UNL     1      -1.531  -2.257   0.004  0.00  0.00    -0.024 S 
ATOM     13  N   UNL     1       3.636  -2.030  -0.043  0.00  0.00    -0.189 NA
ATOM     14  C   UNL     1       3.685  -0.690  -0.035  0.00  0.00    +0.281 A 
ATOM     15  O   UNL     1       4.751  -0.105  -0.041  0.00  0.00    -0.265 OA
ENDROOT
BRANCH   9  16
ATOM     16  C   UNL     1       3.467  -5.042  -0.059  0.00  0.00    +0.255 C 
ATOM     17  O   UNL     1       4.616  -4.634  -0.068  0.00  0.00    -0.269 OA
ATOM     18  N   UNL     1       3.223  -6.367  -0.064  0.00  0.00    -0.306 N 
ATOM     19  H   UNL     1       2.186  -6.735  -0.056  0.00  0.00    +0.149 HD
BRANCH  18  20
ATOM     20  C   UNL     1       4.337  -7.318  -0.081  0.00  0.00    +0.147 C 
BRANCH  20  21
ATOM     21  C   UNL     1       3.797  -8.725  -0.084  0.00  0.00    +0.007 A 
ATOM     22  C   UNL     1       3.476  -9.513  -1.138  0.00  0.00    +0.013 A 
ATOM     23  C   UNL     1       2.995 -10.787  -0.900  0.00  0.00    +0.008 A 
ATOM     24  C   UNL     1       2.849 -11.206   0.381  0.00  0.00    +0.045 A 
ATOM     25  S   UNL     1       3.407  -9.782   1.301  0.00  0.00    -0.100 S 
ENDBRANCH  20  21
ENDBRANCH  18  20
ENDBRANCH   9  16
BRANCH   1  26
ATOM     26  C   UNL     1      -1.310   2.108   0.020  0.00  0.00    +0.339 C 
ATOM     27  O   UNL     1      -2.352   1.484   0.021  0.00  0.00    -0.245 OA
BRANCH  26  29
ATOM     28  C   UNL     1      -2.636   4.093   0.037  0.00  0.00    +0.280 C 
ATOM     29  O   UNL     1      -1.332   3.455   0.027  0.00  0.00    -0.464 OA
ENDBRANCH  26  29
ENDBRANCH   1  26
TORSDOF 5
