REMARK  Name = ZINC43391717
REMARK  3 active torsions:
REMARK  status: ('A' for Active; 'I' for Inactive)
REMARK    1  A    between atoms: C_4  and  C_7
REMARK    2  A    between atoms: C_5  and  N_6
REMARK    3  A    between atoms: C_9  and  C_12
REMARK                            x       y       z     vdW  Elec       q    Type
REMARK                         _______ _______ _______ _____ _____    ______ ____
ROOT
ATOM      1  C   UNL     1       1.631  -2.001  -0.024  0.00  0.00    +0.267 A 
ATOM      2  N   UNL     1       2.858  -2.486  -0.033  0.00  0.00    -0.187 NA
ATOM      3  C   UNL     1       2.819  -3.826  -0.042  0.00  0.00    +0.203 A 
ATOM      4  N   UNL     1       1.567  -4.215  -0.039  0.00  0.00    -0.056 NA
ATOM      5  O   UNL     1       0.772  -3.039  -0.022  0.00  0.00    -0.332 OA
ENDROOT
BRANCH   3   6
ATOM      6  C   UNL     1       4.001  -4.723  -0.053  0.00  0.00    +0.028 A 
ATOM      7  C   UNL     1       5.286  -4.185  -0.050  0.00  0.00    +0.053 A 
ATOM      8  C   UNL     1       6.385  -5.024  -0.061  0.00  0.00    +0.162 A 
ATOM      9  C   UNL     1       6.209  -6.399  -0.075  0.00  0.00    +0.193 A 
ATOM     10  C   UNL     1       4.931  -6.938  -0.079  0.00  0.00    +0.162 A 
ATOM     11  C   UNL     1       3.828  -6.106  -0.062  0.00  0.00    +0.053 A 
ATOM     12  F   UNL     1       4.764  -8.279  -0.094  0.00  0.00    -0.202 F 
ATOM     13  F   UNL     1       7.285  -7.216  -0.086  0.00  0.00    -0.199 F 
ATOM     14  F   UNL     1       7.631  -4.503  -0.058  0.00  0.00    -0.202 F 
ENDBRANCH   3   6
BRANCH   1  18
ATOM     15  C   UNL     1      -0.017   1.379   0.010  0.00  0.00    +0.031 A 
ATOM     16  C   UNL     1       1.157   2.051   0.002  0.00  0.00    +0.048 A 
ATOM     17  S   UNL     1       2.328   0.848  -0.016  0.00  0.00    -0.090 S 
ATOM     18  C   UNL     1       1.267  -0.585  -0.013  0.00  0.00    +0.097 A 
ATOM     19  C   UNL     1       0.002  -0.004   0.002  0.00  0.00    +0.044 A 
BRANCH  19  20
ATOM     20  N   UNL     1      -1.168  -0.766   0.009  0.00  0.00    -0.357 N 
ATOM     21  H   UNL     1      -2.032  -0.326   0.020  0.00  0.00    +0.142 HD
ATOM     22  H   UNL     1      -1.116  -1.734   0.004  0.00  0.00    +0.142 HD
ENDBRANCH  19  20
ENDBRANCH   1  18
TORSDOF 3
