REMARK  Name = ZINC17138841
REMARK  12 active torsions:
REMARK  status: ('A' for Active; 'I' for Inactive)
REMARK    1  A    between atoms: C_1  and  C_2
REMARK    2  A    between atoms: C_2  and  C_4
REMARK    3  A    between atoms: C_10  and  C_42
REMARK    4  A    between atoms: N_22  and  O_23
REMARK    5  A    between atoms: O_23  and  C_24
REMARK    6  A    between atoms: C_24  and  C_25
REMARK    7  A    between atoms: N_27  and  C_28
REMARK    8  A    between atoms: C_28  and  C_29
REMARK    9  A    between atoms: C_29  and  C_30
REMARK   10  A    between atoms: C_33  and  O_37
REMARK   11  A    between atoms: C_34  and  O_36
REMARK   12  A    between atoms: C_40  and  C_41
REMARK                            x       y       z     vdW  Elec       q    Type
REMARK                         _______ _______ _______ _____ _____    ______ ____
ROOT
ATOM      1  C   UNL     1      -0.735  -0.351   6.190  0.00  0.00    +0.061 C 
ATOM      2  C   UNL     1       0.538  -1.066   6.679  0.00  0.00    +0.012 C 
ATOM      3  C   UNL     1       0.786  -2.263   5.752  0.00  0.00    +0.005 C 
ATOM      4  C   UNL     1      -0.147  -2.089   4.533  0.00  0.00    -0.001 C 
ATOM      5  C   UNL     1      -1.258  -1.151   4.998  0.00  0.00    -0.019 C 
ATOM      6  C   UNL     1      -1.915  -0.332   3.918  0.00  0.00    +0.008 C 
ATOM      7  C   UNL     1      -0.973   0.178   2.839  0.00  0.00    +0.005 C 
ATOM      8  C   UNL     1      -0.205  -1.014   2.259  0.00  0.00    +0.002 C 
ATOM      9  C   UNL     1       0.684  -1.586   3.358  0.00  0.00    -0.003 C 
ATOM     10  C   UNL     1       1.740  -0.577   3.795  0.00  0.00    +0.008 C 
ATOM     11  C   UNL     1       2.656  -0.252   2.603  0.00  0.00    +0.031 C 
ATOM     12  C   UNL     1       1.767   0.283   1.493  0.00  0.00    -0.062 C 
ATOM     13  C   UNL     1       2.053   1.476   0.985  0.00  0.00    +0.026 C 
ATOM     14  C   UNL     1       1.177   2.021  -0.071  0.00  0.00    +0.080 C 
ATOM     15  N   UNL     1       1.609   2.824  -0.986  0.00  0.00    -0.089 NA
ATOM     16  C   UNL     1      -0.271   1.567  -0.000  0.00  0.00    +0.059 C 
ATOM     17  C   UNL     1      -0.265   0.040  -0.021  0.00  0.00    +0.017 C 
ATOM     18  C   UNL     1       0.614  -0.562   1.054  0.00  0.00    -0.007 C 
ATOM     19  C   UNL     1       1.211  -1.826   0.421  0.00  0.00    +0.016 C 
ATOM     20  C   UNL     1      -2.385  -2.067   5.559  0.00  0.00    +0.012 C 
ENDROOT
BRANCH   1  22
ATOM     21  C   UNL     1      -1.609   2.086   5.898  0.00  0.00    +0.086 C 
ATOM     22  C   UNL     1      -0.472   1.098   5.895  0.00  0.00    +0.134 C 
ATOM     23  O   UNL     1       0.652   1.470   5.654  0.00  0.00    -0.297 OA
ENDBRANCH   1  22
BRANCH  15  24
ATOM     24  O   UNL     1       2.971   3.212  -1.001  0.00  0.00    -0.384 OA
BRANCH  24  25
ATOM     25  C   UNL     1       3.310   4.102  -2.067  0.00  0.00    +0.358 C 
BRANCH  25  26
ATOM     26  C   UNL     1       4.775   4.447  -1.986  0.00  0.00    +0.253 C 
ATOM     27  O   UNL     1       5.461   3.977  -1.104  0.00  0.00    -0.272 OA
ATOM     28  N   UNL     1       5.322   5.278  -2.895  0.00  0.00    -0.312 N 
ATOM     29  H   UNL     1       4.774   5.654  -3.601  0.00  0.00    +0.149 HD
BRANCH  28  30
ATOM     30  C   UNL     1       6.746   5.613  -2.817  0.00  0.00    +0.109 C 
BRANCH  30  31
ATOM     31  C   UNL     1       7.109   6.566  -3.958  0.00  0.00    +0.054 C 
BRANCH  31  32
ATOM     32  C   UNL     1       8.574   6.911  -3.878  0.00  0.00    -0.042 A 
ATOM     33  C   UNL     1       9.503   6.132  -4.541  0.00  0.00    +0.007 A 
ATOM     34  C   UNL     1      10.848   6.444  -4.471  0.00  0.00    +0.049 A 
ATOM     35  C   UNL     1      11.267   7.540  -3.734  0.00  0.00    +0.158 A 
ATOM     36  C   UNL     1      10.332   8.325  -3.067  0.00  0.00    +0.158 A 
ATOM     37  C   UNL     1       8.985   8.009  -3.145  0.00  0.00    +0.052 A 
BRANCH  36  38
ATOM     38  O   UNL     1      10.738   9.402  -2.342  0.00  0.00    -0.503 OA
ATOM     39  H   UNL     1      10.774  10.225  -2.848  0.00  0.00    +0.292 HD
ENDBRANCH  36  38
BRANCH  35  40
ATOM     40  O   UNL     1      12.590   7.849  -3.664  0.00  0.00    -0.503 OA
ATOM     41  H   UNL     1      12.891   8.450  -4.359  0.00  0.00    +0.292 HD
ENDBRANCH  35  40
ENDBRANCH  31  32
ENDBRANCH  30  31
ENDBRANCH  28  30
ENDBRANCH  25  26
ENDBRANCH  24  25
ENDBRANCH  15  24
TORSDOF 9
