REMARK  Name = ZINC00735874
REMARK  7 active torsions:
REMARK  status: ('A' for Active; 'I' for Inactive)
REMARK    1  A    between atoms: C_1  and  C_2
REMARK    2  A    between atoms: C_7  and  N_8
REMARK    3  A    between atoms: N_11  and  C_12
REMARK    4  A    between atoms: C_15  and  N_25
REMARK    5  A    between atoms: C_16  and  C_18
REMARK    6  A    between atoms: C_28  and  C_31
REMARK    7  A    between atoms: C_31  and  C_32
REMARK                            x       y       z     vdW  Elec       q    Type
REMARK                         _______ _______ _______ _____ _____    ______ ____
ROOT
ATOM      1  C   UNL     1       4.848  -1.685  -4.203  0.00  0.00    +0.036 A 
ATOM      2  C   UNL     1       3.785  -0.965  -4.740  0.00  0.00    +0.025 A 
ATOM      3  C   UNL     1       2.906  -0.297  -3.913  0.00  0.00    +0.026 A 
ATOM      4  C   UNL     1       3.077  -0.339  -2.535  0.00  0.00    +0.042 A 
ATOM      5  C   UNL     1       4.149  -1.058  -1.987  0.00  0.00    +0.060 A 
ATOM      6  C   UNL     1       5.031  -1.736  -2.833  0.00  0.00    +0.038 A 
ENDROOT
BRANCH   5   7
ATOM      7  C   UNL     1       4.342  -1.103  -0.526  0.00  0.00    +0.248 C 
ATOM      8  O   UNL     1       4.407  -0.069   0.111  0.00  0.00    -0.270 OA
ATOM      9  N   UNL     1       4.445  -2.290   0.104  0.00  0.00    -0.297 N 
ATOM     10  C   UNL     1       4.478  -3.607  -0.550  0.00  0.00    +0.108 C 
ATOM     11  C   UNL     1       4.579  -4.669   0.565  0.00  0.00    +0.020 C 
ATOM     12  C   UNL     1       4.018  -3.923   1.805  0.00  0.00    +0.020 C 
ATOM     13  C   UNL     1       4.537  -2.484   1.562  0.00  0.00    +0.108 C 
ENDBRANCH   5   7
BRANCH   1  17
ATOM     14  N   UNL     1       6.150  -3.469  -7.064  0.00  0.00    -0.269 N 
ATOM     15  C   UNL     1       5.282  -2.919  -6.193  0.00  0.00    +0.308 C 
ATOM     16  O   UNL     1       4.091  -2.926  -6.435  0.00  0.00    -0.252 OA
ATOM     17  N   UNL     1       5.735  -2.361  -5.053  0.00  0.00    -0.269 N 
ATOM     18  H   UNL     1       7.222  -3.515  -6.819  0.00  0.00    +0.156 HD
ATOM     19  H   UNL     1       6.800  -2.435  -4.789  0.00  0.00    +0.156 HD
BRANCH  14  26
ATOM     20  C   UNL     1       7.970  -3.586  -9.249  0.00  0.00    +0.045 C 
ATOM     21  C   UNL     1       6.544  -4.057  -9.374  0.00  0.00    -0.029 A 
ATOM     22  C   UNL     1       6.085  -4.564 -10.574  0.00  0.00    +0.005 A 
ATOM     23  C   UNL     1       4.777  -4.997 -10.689  0.00  0.00    +0.000 A 
ATOM     24  C   UNL     1       3.924  -4.924  -9.603  0.00  0.00    +0.002 A 
ATOM     25  C   UNL     1       4.377  -4.423  -8.399  0.00  0.00    +0.023 A 
ATOM     26  C   UNL     1       5.689  -3.982  -8.282  0.00  0.00    +0.038 A 
ENDBRANCH  14  26
ENDBRANCH   1  17
BRANCH   4  27
ATOM     27  N   UNL     1       2.190   0.335  -1.702  0.00  0.00    -0.329 N 
ATOM     28  C   UNL     1       0.820  -0.162  -1.879  0.00  0.00    +0.105 C 
ATOM     29  C   UNL     1      -0.100   0.496  -0.849  0.00  0.00    +0.023 C 
ATOM     30  C   UNL     1      -0.061   2.016  -1.033  0.00  0.00    -0.004 C 
ATOM     31  C   UNL     1       1.384   2.502  -0.891  0.00  0.00    +0.023 C 
ATOM     32  C   UNL     1       2.261   1.786  -1.921  0.00  0.00    +0.105 C 
BRANCH  30  33
ATOM     33  C   UNL     1      -0.932   2.683   0.034  0.00  0.00    +0.038 C 
BRANCH  33  34
ATOM     34  C   UNL     1      -0.991   4.167  -0.223  0.00  0.00    -0.047 A 
ATOM     35  C   UNL     1      -0.056   5.006   0.354  0.00  0.00    +0.003 A 
ATOM     36  C   UNL     1      -0.108   6.366   0.116  0.00  0.00    +0.000 A 
ATOM     37  C   UNL     1      -1.101   6.889  -0.692  0.00  0.00    +0.000 A 
ATOM     38  C   UNL     1      -2.039   6.051  -1.265  0.00  0.00    +0.000 A 
ATOM     39  C   UNL     1      -1.984   4.689  -1.030  0.00  0.00    +0.003 A 
ENDBRANCH  33  34
ENDBRANCH  30  33
ENDBRANCH   4  27
TORSDOF 6
