REMARK  Name = ZINC58278104
REMARK  7 active torsions:
REMARK  status: ('A' for Active; 'I' for Inactive)
REMARK    1  A    between atoms: C_1  and  C_2
REMARK    2  A    between atoms: C_2  and  C_3
REMARK    3  A    between atoms: C_2  and  N_19
REMARK    4  A    between atoms: C_6  and  N_9
REMARK    5  A    between atoms: N_12  and  C_13
REMARK    6  A    between atoms: C_20  and  C_22
REMARK    7  A    between atoms: C_23  and  C_24
REMARK                            x       y       z     vdW  Elec       q    Type
REMARK                         _______ _______ _______ _____ _____    ______ ____
ROOT
ATOM      1  C   UNL     1       0.648   0.078   1.529  0.00  0.00    -0.027 A 
ATOM      2  C   UNL     1       0.150   0.150   2.817  0.00  0.00    +0.007 A 
ATOM      3  C   UNL     1       0.830  -0.453   3.857  0.00  0.00    +0.023 A 
ATOM      4  C   UNL     1       2.016  -1.132   3.609  0.00  0.00    +0.035 A 
ATOM      5  C   UNL     1       2.514  -1.202   2.314  0.00  0.00    +0.023 A 
ATOM      6  C   UNL     1       1.826  -0.603   1.278  0.00  0.00    +0.007 A 
ENDROOT
BRANCH   4   7
ATOM      7  N   UNL     1       2.707  -1.743   4.660  0.00  0.00    -0.269 N 
ATOM      8  C   UNL     1       2.028  -2.270   5.698  0.00  0.00    +0.308 C 
ATOM      9  O   UNL     1       0.812  -2.300   5.676  0.00  0.00    -0.252 OA
ATOM     10  N   UNL     1       2.695  -2.765   6.759  0.00  0.00    -0.269 N 
ATOM     11  H   UNL     1       3.676  -1.787   4.643  0.00  0.00    +0.156 HD
ATOM     12  H   UNL     1       3.659  -2.675   6.811  0.00  0.00    +0.156 HD
BRANCH  10  13
ATOM     13  C   UNL     1       1.996  -3.410   7.786  0.00  0.00    +0.035 A 
ATOM     14  C   UNL     1       0.855  -4.146   7.496  0.00  0.00    +0.023 A 
ATOM     15  C   UNL     1       0.168  -4.782   8.511  0.00  0.00    +0.002 A 
ATOM     16  C   UNL     1       0.616  -4.685   9.816  0.00  0.00    +0.000 A 
ATOM     17  C   UNL     1       1.752  -3.953  10.109  0.00  0.00    +0.002 A 
ATOM     18  C   UNL     1       2.446  -3.320   9.097  0.00  0.00    +0.023 A 
ENDBRANCH  10  13
ENDBRANCH   4   7
BRANCH   1  20
ATOM     19  C   UNL     1       0.213   2.235   0.386  0.00  0.00    +0.033 C 
ATOM     20  C   UNL     1      -0.097   0.736   0.397  0.00  0.00    +0.100 C 
BRANCH  20  21
ATOM     21  N   UNL     1      -1.536   0.536   0.578  0.00  0.00    -0.305 N 
ATOM     22  C   UNL     1      -2.360   0.567  -0.488  0.00  0.00    +0.237 C 
ATOM     23  O   UNL     1      -1.908   0.761  -1.601  0.00  0.00    -0.271 OA
ATOM     24  H   UNL     1      -1.897   0.382   1.465  0.00  0.00    +0.150 HD
BRANCH  22  25
ATOM     25  C   UNL     1      -3.802   0.367  -0.307  0.00  0.00    +0.069 C 
ATOM     26  C   UNL     1      -4.625   0.398  -1.373  0.00  0.00    +0.033 C 
BRANCH  26  27
ATOM     27  C   UNL     1      -6.074   0.197  -1.191  0.00  0.00    +0.064 A 
ATOM     28  C   UNL     1      -6.922   0.224  -2.300  0.00  0.00    +0.028 A 
ATOM     29  C   UNL     1      -8.280   0.033  -2.112  0.00  0.00    +0.004 A 
ATOM     30  C   UNL     1      -8.747  -0.179  -0.823  0.00  0.00    +0.020 A 
ATOM     31  C   UNL     1      -7.850  -0.194   0.232  0.00  0.00    +0.111 A 
ATOM     32  N   UNL     1      -6.562  -0.015   0.027  0.00  0.00    -0.256 NA
ENDBRANCH  26  27
ENDBRANCH  22  25
ENDBRANCH  20  21
ENDBRANCH   1  20
TORSDOF 6
