REMARK  Name = ZINC40214972
REMARK  8 active torsions:
REMARK  status: ('A' for Active; 'I' for Inactive)
REMARK    1  A    between atoms: C_1  and  C_2
REMARK    2  A    between atoms: C_5  and  N_12
REMARK    3  A    between atoms: C_7  and  S_8
REMARK    4  A    between atoms: S_8  and  N_11
REMARK    5  A    between atoms: N_15  and  C_16
REMARK    6  A    between atoms: C_16  and  C_17
REMARK    7  A    between atoms: C_16  and  C_18
REMARK    8  A    between atoms: C_16  and  C_19
REMARK                            x       y       z     vdW  Elec       q    Type
REMARK                         _______ _______ _______ _____ _____    ______ ____
ROOT
ATOM      1  C   UNL     1      -0.045   1.502   0.014  0.00  0.00    +0.046 C 
ATOM      2  C   UNL     1      -0.018  -0.004   0.004  0.00  0.00    -0.024 A 
ATOM      3  C   UNL     1      -0.754  -0.702  -0.935  0.00  0.00    +0.007 A 
ATOM      4  C   UNL     1      -0.731  -2.083  -0.946  0.00  0.00    +0.024 A 
ATOM      5  C   UNL     1       0.033  -2.771  -0.013  0.00  0.00    +0.037 A 
ATOM      6  C   UNL     1       0.771  -2.067   0.929  0.00  0.00    +0.052 A 
ATOM      7  C   UNL     1       0.749  -0.686   0.932  0.00  0.00    +0.110 A 
ENDROOT
BRANCH   5   8
ATOM      8  N   UNL     1       0.058  -4.170  -0.021  0.00  0.00    -0.269 N 
ATOM      9  C   UNL     1      -0.041  -4.839  -1.187  0.00  0.00    +0.304 C 
ATOM     10  O   UNL     1      -0.054  -4.229  -2.239  0.00  0.00    -0.252 OA
ATOM     11  N   UNL     1      -0.124  -6.184  -1.187  0.00  0.00    -0.294 N 
ATOM     12  H   UNL     1       0.146  -4.658   0.812  0.00  0.00    +0.156 HD
ATOM     13  H   UNL     1      -0.114  -6.671  -0.348  0.00  0.00    +0.151 HD
BRANCH  11  14
ATOM     14  C   UNL     1      -0.231  -6.911  -2.454  0.00  0.00    +0.028 C 
ATOM     15  C   UNL     1       0.998  -6.617  -3.317  0.00  0.00    +0.031 C 
ATOM     16  C   UNL     1      -0.311  -8.413  -2.175  0.00  0.00    +0.031 C 
ATOM     17  C   UNL     1      -1.493  -6.462  -3.195  0.00  0.00    +0.031 C 
ENDBRANCH  11  14
ENDBRANCH   5   8
BRANCH   7  18
ATOM     18  S   UNL     1       1.691   0.208   2.122  0.00  0.00    +0.056 S 
ATOM     19  O   UNL     1       0.814   1.167   2.697  0.00  0.00    -0.153 OA
ATOM     20  O   UNL     1       2.380  -0.759   2.903  0.00  0.00    -0.153 OA
BRANCH  18  21
ATOM     21  N   UNL     1       2.846   1.058   1.294  0.00  0.00    -0.204 NA
ATOM     22  H   UNL     1       2.895   0.995   0.328  0.00  0.00    +0.144 HD
ATOM     23  H   UNL     1       3.473   1.620   1.776  0.00  0.00    +0.144 HD
ENDBRANCH  18  21
ENDBRANCH   7  18
TORSDOF 4
