REMARK  Name = ZINC21096623
REMARK  7 active torsions:
REMARK  status: ('A' for Active; 'I' for Inactive)
REMARK    1  A    between atoms: C_1  and  O_2
REMARK    2  A    between atoms: O_2  and  C_3
REMARK    3  A    between atoms: C_7  and  C_9
REMARK    4  A    between atoms: C_9  and  N_10
REMARK    5  A    between atoms: N_12  and  C_13
REMARK    6  A    between atoms: C_17  and  C_19
REMARK    7  A    between atoms: N_25  and  C_28
REMARK                            x       y       z     vdW  Elec       q    Type
REMARK                         _______ _______ _______ _____ _____    ______ ____
ROOT
ATOM      1  N   UNL     1      -2.967   0.731   1.445  0.00  0.00    -0.357 N 
ATOM      2  C   UNL     1      -4.173   0.107   1.645  0.00  0.00    +0.161 C 
ATOM      3  N   UNL     1      -4.792  -0.463   0.637  0.00  0.00    -0.289 N 
ATOM      4  N   UNL     1      -4.731   0.077   2.898  0.00  0.00    -0.302 N 
ATOM      5  C   UNL     1      -3.894  -0.110   4.093  0.00  0.00    +0.126 C 
ATOM      6  C   UNL     1      -4.232   1.003   5.098  0.00  0.00    +0.124 C 
ATOM      7  N   UNL     1      -5.680   1.006   5.349  0.00  0.00    -0.327 N 
ATOM      8  C   UNL     1      -6.431   1.321   4.126  0.00  0.00    +0.124 C 
ATOM      9  C   UNL     1      -6.183   0.227   3.082  0.00  0.00    +0.126 C 
ATOM     10  H   UNL     1      -2.489   1.281   2.270  0.00  0.00    +0.162 HD
ATOM     11  H   UNL     1      -4.413  -0.331  -0.387  0.00  0.00    +0.155 HD
ENDROOT
BRANCH   7  12
ATOM     12  C   UNL     1      -6.008   1.891   6.380  0.00  0.00    +0.030 A 
ATOM     13  C   UNL     1      -6.934   2.903   6.160  0.00  0.00    +0.026 A 
ATOM     14  C   UNL     1      -7.260   3.773   7.183  0.00  0.00    +0.040 A 
ATOM     15  C   UNL     1      -6.656   3.644   8.422  0.00  0.00    +0.124 A 
ATOM     16  C   UNL     1      -5.729   2.639   8.642  0.00  0.00    +0.040 A 
ATOM     17  C   UNL     1      -5.404   1.763   7.624  0.00  0.00    +0.026 A 
ATOM     18  F   UNL     1      -6.973   4.499   9.419  0.00  0.00    -0.205 F 
ENDBRANCH   7  12
BRANCH   3  19
ATOM     19  C   UNL     1      -5.912  -1.221   0.861  0.00  0.00    +0.034 A 
ATOM     20  C   UNL     1      -5.855  -2.312   1.731  0.00  0.00    +0.023 A 
ATOM     21  C   UNL     1      -6.982  -3.077   1.958  0.00  0.00    +0.003 A 
ATOM     22  C   UNL     1      -8.171  -2.770   1.327  0.00  0.00    +0.015 A 
ATOM     23  C   UNL     1      -8.242  -1.682   0.455  0.00  0.00    +0.065 A 
ATOM     24  C   UNL     1      -7.110  -0.902   0.225  0.00  0.00    +0.038 A 
BRANCH  23  25
ATOM     25  C   UNL     1      -9.516  -1.355  -0.219  0.00  0.00    +0.387 C 
ATOM     26  O   UNL     1      -9.576  -0.408  -0.978  0.00  0.00    -0.241 OA
ATOM     27  O   UNL     1     -10.610  -2.106   0.007  0.00  0.00    -0.241 OA
ENDBRANCH  23  25
ENDBRANCH   3  19
BRANCH   1  28
ATOM     28  C   UNL     1      -2.317   0.666   0.134  0.00  0.00    +0.150 C 
BRANCH  28  33
ATOM     29  C   UNL     1       0.204   3.471  -0.092  0.00  0.00    +0.120 A 
ATOM     30  C   UNL     1       1.376   2.816   0.259  0.00  0.00    +0.045 A 
ATOM     31  C   UNL     1       1.347   1.471   0.571  0.00  0.00    +0.004 A 
ATOM     32  C   UNL     1       0.151   0.777   0.534  0.00  0.00    +0.005 A 
ATOM     33  C   UNL     1      -1.017   1.426   0.180  0.00  0.00    -0.025 A 
ATOM     34  C   UNL     1      -0.994   2.773  -0.128  0.00  0.00    +0.051 A 
BRANCH  29  36
ATOM     35  C   UNL     1       1.500   5.449  -0.343  0.00  0.00    +0.277 C 
ATOM     36  O   UNL     1       0.231   4.794  -0.400  0.00  0.00    -0.495 OA
ENDBRANCH  29  36
ENDBRANCH  28  33
ENDBRANCH   1  28
TORSDOF 6
