REMARK  Name = ZINC08435189
REMARK  6 active torsions:
REMARK  status: ('A' for Active; 'I' for Inactive)
REMARK    1  A    between atoms: C_10  and  C_11
REMARK    2  A    between atoms: C_10  and  C_24
REMARK    3  A    between atoms: C_14  and  N_17
REMARK    4  A    between atoms: C_18  and  C_20
REMARK    5  A    between atoms: C_27  and  N_30
REMARK    6  A    between atoms: C_31  and  C_33
REMARK                            x       y       z     vdW  Elec       q    Type
REMARK                         _______ _______ _______ _____ _____    ______ ____
ROOT
ATOM      1  C   UNL     1      -5.680  -4.524   3.052  0.00  0.00    +0.001 A 
ATOM      2  C   UNL     1      -4.838  -4.565   1.954  0.00  0.00    +0.000 A 
ATOM      3  C   UNL     1      -4.852  -3.537   1.026  0.00  0.00    +0.009 A 
ATOM      4  C   UNL     1      -5.704  -2.471   1.195  0.00  0.00    +0.019 A 
ATOM      5  C   UNL     1      -6.558  -2.419   2.300  0.00  0.00    +0.067 A 
ATOM      6  C   UNL     1      -6.538  -3.459   3.231  0.00  0.00    +0.015 A 
ATOM      7  C   UNL     1      -7.342  -1.173   2.213  0.00  0.00    +0.341 C 
ATOM      8  O   UNL     1      -8.179  -0.822   3.019  0.00  0.00    -0.245 OA
ATOM      9  O   UNL     1      -6.997  -0.483   1.112  0.00  0.00    -0.440 OA
ATOM     10  C   UNL     1      -5.966  -1.218   0.397  0.00  0.00    +0.190 C 
ENDROOT
BRANCH  10  11
ATOM     11  C   UNL     1      -4.710  -0.391   0.306  0.00  0.00    +0.005 A 
ATOM     12  C   UNL     1      -4.796   0.987   0.222  0.00  0.00    +0.010 A 
ATOM     13  C   UNL     1      -3.647   1.748   0.138  0.00  0.00    +0.024 A 
ATOM     14  C   UNL     1      -2.404   1.129   0.139  0.00  0.00    +0.034 A 
ATOM     15  C   UNL     1      -2.321  -0.255   0.219  0.00  0.00    +0.024 A 
ATOM     16  C   UNL     1      -3.474  -1.010   0.307  0.00  0.00    +0.010 A 
BRANCH  14  17
ATOM     17  N   UNL     1      -1.238   1.897   0.053  0.00  0.00    -0.278 N 
ATOM     18  C   UNL     1      -1.182   3.106   0.647  0.00  0.00    +0.321 C 
ATOM     19  O   UNL     1      -2.169   3.564   1.183  0.00  0.00    -0.266 OA
ATOM     20  H   UNL     1      -0.469   1.560  -0.433  0.00  0.00    +0.155 HD
BRANCH  18  21
ATOM     21  C   UNL     1       0.108   3.886   0.649  0.00  0.00    +0.470 C 
ATOM     22  F   UNL     1      -0.081   5.096   1.325  0.00  0.00    -0.162 F 
ATOM     23  F   UNL     1       1.101   3.141   1.295  0.00  0.00    -0.162 F 
ATOM     24  F   UNL     1       0.500   4.143  -0.668  0.00  0.00    -0.162 F 
ENDBRANCH  18  21
ENDBRANCH  14  17
ENDBRANCH  10  11
BRANCH  10  25
ATOM     25  C   UNL     1      -6.449  -1.577  -0.984  0.00  0.00    +0.005 A 
ATOM     26  C   UNL     1      -6.017  -2.745  -1.585  0.00  0.00    +0.010 A 
ATOM     27  C   UNL     1      -6.462  -3.079  -2.849  0.00  0.00    +0.024 A 
ATOM     28  C   UNL     1      -7.337  -2.236  -3.521  0.00  0.00    +0.034 A 
ATOM     29  C   UNL     1      -7.765  -1.061  -2.917  0.00  0.00    +0.024 A 
ATOM     30  C   UNL     1      -7.320  -0.735  -1.651  0.00  0.00    +0.010 A 
BRANCH  28  31
ATOM     31  N   UNL     1      -7.785  -2.568  -4.804  0.00  0.00    -0.278 N 
ATOM     32  C   UNL     1      -7.997  -1.599  -5.716  0.00  0.00    +0.321 C 
ATOM     33  O   UNL     1      -7.880  -0.434  -5.401  0.00  0.00    -0.266 OA
ATOM     34  H   UNL     1      -7.943  -3.497  -5.037  0.00  0.00    +0.155 HD
BRANCH  32  35
ATOM     35  C   UNL     1      -8.379  -1.963  -7.128  0.00  0.00    +0.470 C 
ATOM     36  F   UNL     1      -8.544  -0.796  -7.882  0.00  0.00    -0.162 F 
ATOM     37  F   UNL     1      -7.370  -2.747  -7.696  0.00  0.00    -0.162 F 
ATOM     38  F   UNL     1      -9.578  -2.684  -7.115  0.00  0.00    -0.162 F 
ENDBRANCH  32  35
ENDBRANCH  28  31
ENDBRANCH  10  25
TORSDOF 6
