REMARK  Name = ZINC00871457
REMARK  8 active torsions:
REMARK  status: ('A' for Active; 'I' for Inactive)
REMARK    1  A    between atoms: C_1  and  C_2
REMARK    2  A    between atoms: C_3  and  C_29
REMARK    3  A    between atoms: C_4  and  N_17
REMARK    4  A    between atoms: C_6  and  C_7
REMARK    5  A    between atoms: N_9  and  C_10
REMARK    6  A    between atoms: C_18  and  C_20
REMARK    7  A    between atoms: C_29  and  O_31
REMARK    8  A    between atoms: O_31  and  C_32
REMARK                            x       y       z     vdW  Elec       q    Type
REMARK                         _______ _______ _______ _____ _____    ______ ____
ROOT
ATOM      1  C   UNL     1      -1.611   6.446   0.392  0.00  0.00    +0.046 C 
ATOM      2  C   UNL     1      -2.755   5.464   0.368  0.00  0.00    -0.015 A 
ATOM      3  C   UNL     1      -4.070   5.892   0.467  0.00  0.00    +0.091 A 
ATOM      4  C   UNL     1      -5.075   4.919   0.437  0.00  0.00    +0.087 A 
ATOM      5  S   UNL     1      -4.181   3.444   0.268  0.00  0.00    -0.068 S 
ATOM      6  C   UNL     1      -2.531   4.120   0.248  0.00  0.00    +0.080 A 
ENDROOT
BRANCH   6   7
ATOM      7  C   UNL     1      -1.255   3.412   0.128  0.00  0.00    +0.255 C 
ATOM      8  O   UNL     1      -0.210   4.037   0.127  0.00  0.00    -0.269 OA
ATOM      9  N   UNL     1      -1.236   2.069   0.019  0.00  0.00    -0.281 N 
ATOM     10  H   UNL     1      -2.069   1.576  -0.047  0.00  0.00    +0.155 HD
BRANCH   9  11
ATOM     11  C   UNL     1      -0.017   1.386   0.002  0.00  0.00    +0.035 A 
ATOM     12  C   UNL     1       0.089   0.135   0.597  0.00  0.00    +0.023 A 
ATOM     13  C   UNL     1       1.293  -0.541   0.573  0.00  0.00    +0.003 A 
ATOM     14  C   UNL     1       2.394   0.026  -0.042  0.00  0.00    +0.020 A 
ATOM     15  C   UNL     1       2.293   1.272  -0.636  0.00  0.00    +0.043 A 
ATOM     16  C   UNL     1       1.090   1.954  -0.615  0.00  0.00    +0.043 A 
ATOM     17 CL   UNL     1       3.678   1.981  -1.407  0.00  0.00    -0.083 Cl
ENDBRANCH   9  11
ENDBRANCH   6   7
BRANCH   4  18
ATOM     18  N   UNL     1      -6.442   5.091   0.518  0.00  0.00    -0.275 N 
ATOM     19  C   UNL     1      -7.260   4.021   0.472  0.00  0.00    +0.249 C 
ATOM     20  O   UNL     1      -6.793   2.904   0.359  0.00  0.00    -0.270 OA
ATOM     21  H   UNL     1      -6.814   5.982   0.608  0.00  0.00    +0.156 HD
BRANCH  19  22
ATOM     22  C   UNL     1      -8.721   4.205   0.558  0.00  0.00    +0.041 A 
ATOM     23  C   UNL     1      -9.259   5.488   0.694  0.00  0.00    +0.017 A 
ATOM     24  C   UNL     1     -10.624   5.658   0.769  0.00  0.00    +0.050 A 
ATOM     25  C   UNL     1     -11.469   4.558   0.721  0.00  0.00    +0.166 A 
ATOM     26  C   UNL     1     -10.938   3.273   0.591  0.00  0.00    +0.167 A 
ATOM     27  C   UNL     1      -9.571   3.097   0.510  0.00  0.00    +0.062 A 
ATOM     28  O   UNL     1     -11.968   2.377   0.570  0.00  0.00    -0.453 OA
ATOM     29  C   UNL     1     -13.105   3.086   1.097  0.00  0.00    +0.466 C 
ATOM     30  O   UNL     1     -12.828   4.463   0.779  0.00  0.00    -0.453 OA
ENDBRANCH  19  22
ENDBRANCH   4  18
BRANCH   3  31
ATOM     31  C   UNL     1      -4.397   7.316   0.598  0.00  0.00    +0.342 C 
ATOM     32  O   UNL     1      -4.584   7.991  -0.396  0.00  0.00    -0.245 OA
BRANCH  31  33
ATOM     33  O   UNL     1      -4.490   7.876   1.821  0.00  0.00    -0.464 OA
ATOM     34  C   UNL     1      -4.817   9.290   1.875  0.00  0.00    +0.280 C 
ENDBRANCH  31  33
ENDBRANCH   3  31
TORSDOF 6
