REMARK  Name = ZINC09183613
REMARK  7 active torsions:
REMARK  status: ('A' for Active; 'I' for Inactive)
REMARK    1  A    between atoms: C_1  and  O_2
REMARK    2  A    between atoms: O_2  and  C_3
REMARK    3  A    between atoms: C_6  and  C_9
REMARK    4  A    between atoms: C_11  and  C_23
REMARK    5  A    between atoms: C_13  and  C_18
REMARK    6  A    between atoms: C_13  and  O_22
REMARK    7  A    between atoms: C_23  and  C_25
REMARK                            x       y       z     vdW  Elec       q    Type
REMARK                         _______ _______ _______ _____ _____    ______ ____
ROOT
ATOM      1  C   UNL     1       2.505  -2.495  -4.376  0.00  0.00    +0.120 C 
ATOM      2  C   UNL     1       3.955  -2.839  -4.020  0.00  0.00    +0.144 C 
ATOM      3  C   UNL     1       4.571  -3.624  -5.184  0.00  0.00    +0.243 C 
ATOM      4  N   UNL     1       3.739  -4.794  -5.467  0.00  0.00    -0.264 N 
ATOM      5  C   UNL     1       2.419  -4.788  -5.225  0.00  0.00    +0.302 C 
ATOM      6  O   UNL     1       1.772  -5.783  -5.488  0.00  0.00    -0.253 OA
ATOM      7  N   UNL     1       1.785  -3.726  -4.704  0.00  0.00    -0.292 N 
ATOM      8  H   UNL     1       4.150  -5.591  -5.838  0.00  0.00    +0.153 HD
ATOM      9  H   UNL     1       0.830  -3.776  -4.541  0.00  0.00    +0.151 HD
ENDROOT
BRANCH   1  13
ATOM     10  C   UNL     1       0.630  -0.588  -1.043  0.00  0.00    +0.120 A 
ATOM     11  C   UNL     1       1.292   0.172  -1.997  0.00  0.00    +0.046 A 
ATOM     12  C   UNL     1       1.897  -0.447  -3.073  0.00  0.00    +0.009 A 
ATOM     13  C   UNL     1       1.844  -1.823  -3.201  0.00  0.00    -0.026 A 
ATOM     14  C   UNL     1       1.185  -2.582  -2.252  0.00  0.00    +0.009 A 
ATOM     15  C   UNL     1       0.583  -1.968  -1.171  0.00  0.00    +0.046 A 
BRANCH  10  17
ATOM     16  C   UNL     1       0.122   1.444   0.083  0.00  0.00    +0.277 C 
ATOM     17  O   UNL     1       0.034   0.019   0.017  0.00  0.00    -0.495 OA
ENDBRANCH  10  17
ENDBRANCH   1  13
BRANCH   3  18
ATOM     18  C   UNL     1       4.636  -2.730  -6.424  0.00  0.00    +0.436 C 
ATOM     19  F   UNL     1       5.425  -1.608  -6.150  0.00  0.00    -0.166 F 
ATOM     20  F   UNL     1       5.197  -3.447  -7.486  0.00  0.00    -0.166 F 
ATOM     21  F   UNL     1       3.344  -2.319  -6.771  0.00  0.00    -0.166 F 
ENDBRANCH   3  18
BRANCH   3  22
ATOM     22  O   UNL     1       5.888  -4.048  -4.830  0.00  0.00    -0.364 OA
ATOM     23  H   UNL     1       6.338  -4.552  -5.522  0.00  0.00    +0.212 HD
ENDBRANCH   3  22
BRANCH   2  24
ATOM     24  C   UNL     1       3.984  -3.679  -2.768  0.00  0.00    +0.173 C 
ATOM     25  O   UNL     1       3.104  -4.487  -2.560  0.00  0.00    -0.292 OA
BRANCH  24  26
ATOM     26  C   UNL     1       5.079  -3.517  -1.799  0.00  0.00    +0.018 A 
ATOM     27  C   UNL     1       6.092  -2.582  -2.033  0.00  0.00    +0.012 A 
ATOM     28  C   UNL     1       7.115  -2.437  -1.121  0.00  0.00    +0.016 A 
ATOM     29  C   UNL     1       7.140  -3.214   0.026  0.00  0.00    +0.018 A 
ATOM     30  C   UNL     1       6.140  -4.142   0.264  0.00  0.00    +0.016 A 
ATOM     31  C   UNL     1       5.108  -4.295  -0.636  0.00  0.00    +0.012 A 
ATOM     32 BR   UNL     1       8.548  -3.007   1.271  0.00  0.00    -0.050 Br
ENDBRANCH  24  26
ENDBRANCH   2  24
TORSDOF 6
