REMARK  Name = ZINC09307054
REMARK  7 active torsions:
REMARK  status: ('A' for Active; 'I' for Inactive)
REMARK    1  A    between atoms: C_1  and  C_2
REMARK    2  A    between atoms: C_2  and  C_3
REMARK    3  A    between atoms: C_3  and  C_4
REMARK    4  A    between atoms: C_11  and  N_33
REMARK    5  A    between atoms: C_12  and  C_31
REMARK    6  A    between atoms: N_20  and  C_23
REMARK    7  A    between atoms: C_23  and  C_24
REMARK                            x       y       z     vdW  Elec       q    Type
REMARK                         _______ _______ _______ _____ _____    ______ ____
ROOT
ATOM      1  C   UNL     1       0.762  -2.018   1.233  0.00  0.00    +0.071 A 
ATOM      2  C   UNL     1      -0.197  -2.849   1.795  0.00  0.00    +0.061 A 
ATOM      3  C   UNL     1       0.185  -4.145   1.576  0.00  0.00    +0.223 A 
ATOM      4  N   UNL     1       1.343  -4.117   0.899  0.00  0.00    -0.246 N 
ATOM      5  H   UNL     1       1.851  -4.889   0.604  0.00  0.00    +0.192 HD
ATOM      6  N   UNL     1       1.687  -2.772   0.689  0.00  0.00    -0.176 NA
ATOM      7  O   UNL     1      -0.545  -5.203   2.006  0.00  0.00    -0.423 OA
ATOM      8  C   UNL     1      -1.534  -4.971   2.893  0.00  0.00    +0.201 C 
ATOM      9  C   UNL     1      -2.006  -3.736   3.185  0.00  0.00    +0.110 C 
ATOM     10  C   UNL     1      -1.460  -2.498   2.530  0.00  0.00    +0.145 C 
ATOM     11  C   UNL     1      -2.466  -1.877   1.615  0.00  0.00    -0.001 A 
ATOM     12  C   UNL     1      -3.099  -2.358   0.489  0.00  0.00    +0.007 A 
ATOM     13  C   UNL     1      -3.999  -1.506  -0.142  0.00  0.00    +0.000 A 
ATOM     14  C   UNL     1      -4.245  -0.236   0.340  0.00  0.00    +0.002 A 
ATOM     15  C   UNL     1      -3.613   0.255   1.472  0.00  0.00    +0.024 A 
ATOM     16  C   UNL     1      -2.708  -0.591   2.115  0.00  0.00    +0.041 A 
ATOM     17  N   UNL     1      -1.948  -0.365   3.249  0.00  0.00    -0.265 N 
ATOM     18  C   UNL     1      -1.185  -1.432   3.568  0.00  0.00    +0.241 C 
ATOM     19  O   UNL     1      -0.424  -1.520   4.508  0.00  0.00    -0.274 OA
ENDROOT
BRANCH   8  20
ATOM     20  N   UNL     1      -2.093  -6.047   3.537  0.00  0.00    -0.328 N 
ATOM     21  H   UNL     1      -1.775  -6.944   3.349  0.00  0.00    +0.145 HD
ATOM     22  H   UNL     1      -2.805  -5.910   4.181  0.00  0.00    +0.145 HD
ENDBRANCH   8  20
BRANCH   9  23
ATOM     23  C   UNL     1      -3.059  -3.605   4.147  0.00  0.00    +0.102 C 
ATOM     24  N   UNL     1      -3.894  -3.502   4.910  0.00  0.00    -0.191 NA
ENDBRANCH   9  23
BRANCH   1  25
ATOM     25  C   UNL     1       0.742  -0.511   1.242  0.00  0.00    +0.057 C 
BRANCH  25  27
ATOM     26  C   UNL     1      -0.019   1.526   0.010  0.00  0.00    +0.004 C 
ATOM     27  C   UNL     1       0.002  -0.004   0.002  0.00  0.00    +0.003 C 
ENDBRANCH  25  27
ENDBRANCH   1  25
BRANCH  17  28
ATOM     28  C   UNL     1      -1.969   0.884   4.014  0.00  0.00    +0.149 C 
BRANCH  28  29
ATOM     29  C   UNL     1      -3.029   0.802   5.082  0.00  0.00    -0.027 A 
ATOM     30  C   UNL     1      -4.320   1.212   4.808  0.00  0.00    +0.005 A 
ATOM     31  C   UNL     1      -5.293   1.137   5.787  0.00  0.00    +0.003 A 
ATOM     32  C   UNL     1      -4.975   0.652   7.042  0.00  0.00    +0.038 A 
ATOM     33  C   UNL     1      -3.683   0.241   7.318  0.00  0.00    +0.124 A 
ATOM     34  C   UNL     1      -2.710   0.311   6.334  0.00  0.00    +0.043 A 
ATOM     35  F   UNL     1      -3.371  -0.233   8.544  0.00  0.00    -0.205 F 
ENDBRANCH  28  29
ENDBRANCH  17  28
TORSDOF 6
