REMARK  Name = ZINC46816578
REMARK  9 active torsions:
REMARK  status: ('A' for Active; 'I' for Inactive)
REMARK    1  A    between atoms: C_1  and  C_2
REMARK    2  A    between atoms: C_5  and  S_7
REMARK    3  A    between atoms: S_7  and  N_10
REMARK    4  A    between atoms: C_14  and  C_17
REMARK    5  A    between atoms: N_19  and  C_20
REMARK    6  A    between atoms: C_20  and  C_21
REMARK    7  A    between atoms: C_24  and  C_27
REMARK    8  A    between atoms: C_27  and  N_28
REMARK    9  A    between atoms: C_32  and  C_35
REMARK                            x       y       z     vdW  Elec       q    Type
REMARK                         _______ _______ _______ _____ _____    ______ ____
ROOT
ATOM      1  C   UNL     1       3.513  -3.592  -4.433  0.00  0.00    +0.218 C 
ATOM      2  O   UNL     1       4.555  -4.061  -4.025  0.00  0.00    -0.275 OA
ATOM      3  N   UNL     1       3.482  -2.946  -5.615  0.00  0.00    -0.311 N 
ATOM      4  H   UNL     1       2.649  -2.571  -5.941  0.00  0.00    +0.149 HD
ENDROOT
BRANCH   1   9
ATOM      5  N   UNL     1       1.300  -4.748  -1.614  0.00  0.00    -0.175 NA
ATOM      6  C   UNL     1       0.192  -5.395  -2.330  0.00  0.00    +0.109 C 
ATOM      7  C   UNL     1      -0.088  -4.612  -3.616  0.00  0.00    +0.018 C 
ATOM      8  C   UNL     1       1.204  -4.497  -4.430  0.00  0.00    +0.015 C 
ATOM      9  C   UNL     1       2.253  -3.734  -3.619  0.00  0.00    +0.091 C 
ATOM     10  C   UNL     1       2.557  -4.502  -2.334  0.00  0.00    +0.122 C 
BRANCH   5  11
ATOM     11  S   UNL     1       1.134  -4.300  -0.029  0.00  0.00    +0.067 S 
ATOM     12  O   UNL     1       2.445  -4.240   0.516  0.00  0.00    -0.152 OA
ATOM     13  O   UNL     1       0.117  -5.126   0.522  0.00  0.00    -0.152 OA
BRANCH  11  18
ATOM     14  C   UNL     1      -0.018   1.503   0.010  0.00  0.00    +0.051 C 
ATOM     15  C   UNL     1       0.002  -0.004   0.002  0.00  0.00    -0.011 A 
ATOM     16  C   UNL     1      -1.039  -0.872   0.002  0.00  0.00    +0.013 A 
ATOM     17  C   UNL     1      -0.780  -2.230  -0.007  0.00  0.00    +0.036 A 
ATOM     18  C   UNL     1       0.507  -2.653  -0.016  0.00  0.00    +0.143 A 
ATOM     19  S   UNL     1       1.404  -1.109  -0.018  0.00  0.00    -0.074 S 
ENDBRANCH  11  18
ENDBRANCH   5  11
ENDBRANCH   1   9
BRANCH   3  20
ATOM     20  C   UNL     1       4.707  -2.808  -6.407  0.00  0.00    +0.139 C 
BRANCH  20  21
ATOM     21  C   UNL     1       4.404  -2.051  -7.674  0.00  0.00    -0.030 A 
ATOM     22  C   UNL     1       4.015  -2.733  -8.811  0.00  0.00    +0.005 A 
ATOM     23  C   UNL     1       3.736  -2.039  -9.973  0.00  0.00    +0.002 A 
ATOM     24  C   UNL     1       3.847  -0.661  -9.998  0.00  0.00    -0.064 A 
ATOM     25  C   UNL     1       4.236   0.022  -8.861  0.00  0.00    +0.002 A 
ATOM     26  C   UNL     1       4.510  -0.673  -7.697  0.00  0.00    +0.005 A 
BRANCH  24  27
ATOM     27  C   UNL     1       3.545   0.096 -11.265  0.00  0.00    -0.043 C 
BRANCH  27  28
ATOM     28  N   UNL     1       2.121   0.456 -11.293  0.00  0.00    +0.383 N 
ATOM     29  C   UNL     1       1.310  -0.766 -11.358  0.00  0.00    -0.078 C 
ATOM     30  C   UNL     1      -0.175  -0.401 -11.306  0.00  0.00    -0.018 C 
ATOM     31  C   UNL     1      -0.515   0.503 -12.494  0.00  0.00    -0.001 C 
ATOM     32  C   UNL     1       0.388   1.739 -12.457  0.00  0.00    -0.031 C 
ATOM     33  C   UNL     1       1.852   1.295 -12.467  0.00  0.00    -0.075 C 
ATOM     34  C   UNL     1       0.109   2.612 -13.682  0.00  0.00    +0.005 C 
ATOM     35  H   UNL     1       1.888   0.967 -10.455  0.00  0.00    -0.081 HD
ENDBRANCH  27  28
ENDBRANCH  24  27
ENDBRANCH  20  21
ENDBRANCH   3  20
TORSDOF 7
