REMARK  Name = ZINC08721074
REMARK  7 active torsions:
REMARK  status: ('A' for Active; 'I' for Inactive)
REMARK    1  A    between atoms: C_1  and  C_2
REMARK    2  A    between atoms: C_2  and  C_38
REMARK    3  A    between atoms: C_6  and  C_14
REMARK    4  A    between atoms: C_8  and  C_12
REMARK    5  A    between atoms: C_9  and  N_11
REMARK    6  A    between atoms: N_16  and  C_29
REMARK    7  A    between atoms: C_18  and  C_19
REMARK                            x       y       z     vdW  Elec       q    Type
REMARK                         _______ _______ _______ _____ _____    ______ ____
ROOT
ATOM      1  C   UNL     1       1.350  -0.413  -0.122  0.00  0.00    +0.007 A 
ATOM      2  C   UNL     1       2.110   0.672   0.151  0.00  0.00    +0.119 A 
ATOM      3  N   UNL     1       1.290   1.746   0.204  0.00  0.00    -0.239 N 
ATOM      4  N   UNL     1      -0.015   1.304  -0.045  0.00  0.00    -0.171 NA
ATOM      5  C   UNL     1       0.021   0.010  -0.240  0.00  0.00    +0.074 A 
ENDROOT
BRANCH   1  11
ATOM      6  C   UNL     1       3.855  -4.838   2.125  0.00  0.00    +0.012 C 
ATOM      7  C   UNL     1       4.112  -3.563   2.930  0.00  0.00    -0.021 C 
ATOM      8  C   UNL     1       4.862  -2.550   2.063  0.00  0.00    +0.081 C 
ATOM      9  C   UNL     1       4.024  -2.193   0.857  0.00  0.00    +0.115 C 
ATOM     10  C   UNL     1       2.681  -2.197   0.929  0.00  0.00    +0.046 C 
ATOM     11  C   UNL     1       1.846  -1.828  -0.273  0.00  0.00    +0.104 C 
ATOM     12  C   UNL     1       2.669  -1.937  -1.526  0.00  0.00    +0.098 C 
ATOM     13  C   UNL     1       4.022  -1.953  -1.457  0.00  0.00    +0.198 C 
ATOM     14  O   UNL     1       4.664  -1.867  -0.282  0.00  0.00    -0.445 OA
ATOM     15  C   UNL     1       2.012  -2.543   2.119  0.00  0.00    +0.164 C 
ATOM     16  O   UNL     1       0.798  -2.519   2.151  0.00  0.00    -0.292 OA
ATOM     17  C   UNL     1       2.775  -2.944   3.353  0.00  0.00    +0.086 C 
ATOM     18  C   UNL     1       4.944  -3.896   4.169  0.00  0.00    +0.012 C 
BRANCH  13  19
ATOM     19  N   UNL     1       4.753  -2.059  -2.615  0.00  0.00    -0.328 N 
ATOM     20  H   UNL     1       5.722  -2.071  -2.578  0.00  0.00    +0.145 HD
ATOM     21  H   UNL     1       4.299  -2.122  -3.470  0.00  0.00    +0.145 HD
ENDBRANCH  13  19
BRANCH  12  22
ATOM     22  C   UNL     1       2.020  -2.026  -2.799  0.00  0.00    +0.101 C 
ATOM     23  N   UNL     1       1.505  -2.095  -3.809  0.00  0.00    -0.191 NA
ENDBRANCH  12  22
ENDBRANCH   1  11
BRANCH   5  24
ATOM     24  C   UNL     1      -1.164  -0.872  -0.540  0.00  0.00    +0.016 C 
ATOM     25  C   UNL     1      -0.952  -1.570  -1.885  0.00  0.00    +0.016 C 
ATOM     26  C   UNL     1      -2.155  -2.465  -2.190  0.00  0.00    -0.010 C 
ATOM     27  C   UNL     1      -3.423  -1.611  -2.252  0.00  0.00    +0.007 C 
ATOM     28  C   UNL     1      -3.635  -0.913  -0.908  0.00  0.00    -0.010 C 
ATOM     29  C   UNL     1      -2.432  -0.018  -0.603  0.00  0.00    +0.016 C 
ATOM     30  C   UNL     1      -3.781  -1.963   0.195  0.00  0.00    +0.007 C 
ATOM     31  C   UNL     1      -2.513  -2.817   0.258  0.00  0.00    -0.010 C 
ATOM     32  C   UNL     1      -2.301  -3.515  -1.087  0.00  0.00    +0.007 C 
ATOM     33  C   UNL     1      -1.310  -1.922   0.562  0.00  0.00    +0.016 C 
ENDBRANCH   5  24
BRANCH   3  34
ATOM     34  C   UNL     1       1.678   3.068   0.462  0.00  0.00    +0.065 A 
ATOM     35  C   UNL     1       3.013   3.368   0.698  0.00  0.00    +0.028 A 
ATOM     36  C   UNL     1       3.393   4.672   0.948  0.00  0.00    +0.002 A 
ATOM     37  C   UNL     1       2.444   5.678   0.973  0.00  0.00    +0.000 A 
ATOM     38  C   UNL     1       1.113   5.381   0.743  0.00  0.00    +0.002 A 
ATOM     39  C   UNL     1       0.728   4.080   0.488  0.00  0.00    +0.028 A 
ENDBRANCH   3  34
TORSDOF 5
