REMARK  Name = ZINC00673855
REMARK  4 active torsions:
REMARK  status: ('A' for Active; 'I' for Inactive)
REMARK    1  A    between atoms: C_3  and  N_8
REMARK    2  A    between atoms: C_9  and  C_11
REMARK    3  A    between atoms: C_16  and  C_27
REMARK    4  A    between atoms: C_19  and  C_22
REMARK                            x       y       z     vdW  Elec       q    Type
REMARK                         _______ _______ _______ _____ _____    ______ ____
ROOT
ATOM      1  C   UNL     1       6.021   2.228   0.169  0.00  0.00    +0.163 A 
ATOM      2  C   UNL     1       7.317   1.673   0.260  0.00  0.00    +0.089 A 
ATOM      3  C   UNL     1       8.193   2.694   0.336  0.00  0.00    +0.133 A 
ATOM      4  N   UNL     1       7.488   3.864   0.297  0.00  0.00    -0.237 N 
ATOM      5  N   UNL     1       6.135   3.545   0.185  0.00  0.00    -0.163 NA
ATOM      6  C   UNL     1       8.109   5.190   0.362  0.00  0.00    +0.215 C 
ATOM      7  C   UNL     1       9.518   5.050   0.950  0.00  0.00    +0.063 C 
ATOM      8  C   UNL     1      10.283   3.945   0.213  0.00  0.00    +0.111 C 
ATOM      9  N   UNL     1       9.588   2.663   0.437  0.00  0.00    -0.321 N 
ATOM     10 BR   UNL     1       7.745  -0.170   0.273  0.00  0.00    -0.044 Br
ATOM     11  H   UNL     1      10.070   1.846   0.642  0.00  0.00    +0.148 HD
ENDROOT
BRANCH   8  12
ATOM     12  C   UNL     1      10.322   4.254  -1.262  0.00  0.00    +0.010 A 
ATOM     13  C   UNL     1      11.326   4.795  -1.994  0.00  0.00    +0.013 A 
ATOM     14  C   UNL     1      11.138   4.989  -3.350  0.00  0.00    +0.008 A 
ATOM     15  C   UNL     1       9.954   4.633  -3.906  0.00  0.00    +0.045 A 
ATOM     16  S   UNL     1       9.061   3.994  -2.498  0.00  0.00    -0.100 S 
ENDBRANCH   8  12
BRANCH   1  18
ATOM     17  N   UNL     1       3.583   2.125  -0.021  0.00  0.00    -0.280 N 
ATOM     18  C   UNL     1       4.758   1.470   0.066  0.00  0.00    +0.270 C 
ATOM     19  O   UNL     1       4.778   0.254   0.060  0.00  0.00    -0.268 OA
ATOM     20  H   UNL     1       3.571   3.093  -0.084  0.00  0.00    +0.155 HD
BRANCH  17  23
ATOM     21  C   UNL     1       0.070   1.231   0.593  0.00  0.00    +0.003 A 
ATOM     22  C   UNL     1       1.256   1.940   0.595  0.00  0.00    +0.023 A 
ATOM     23  C   UNL     1       2.382   1.409  -0.021  0.00  0.00    +0.035 A 
ATOM     24  C   UNL     1       2.312   0.166  -0.637  0.00  0.00    +0.043 A 
ATOM     25  C   UNL     1       1.123  -0.538  -0.636  0.00  0.00    +0.043 A 
ATOM     26  C   UNL     1       0.003  -0.005  -0.021  0.00  0.00    +0.020 A 
ATOM     27 CL   UNL     1       1.034  -2.091  -1.406  0.00  0.00    -0.083 Cl
ENDBRANCH  17  23
ENDBRANCH   1  18
BRANCH   6  28
ATOM     28  C   UNL     1       7.268   6.106   1.253  0.00  0.00    +0.412 C 
ATOM     29  F   UNL     1       7.193   5.564   2.541  0.00  0.00    -0.168 F 
ATOM     30  F   UNL     1       7.862   7.371   1.314  0.00  0.00    -0.168 F 
ATOM     31  F   UNL     1       5.979   6.221   0.720  0.00  0.00    -0.168 F 
ENDBRANCH   6  28
TORSDOF 4
