REMARK  Name = ZINC02978395
REMARK  10 active torsions:
REMARK  status: ('A' for Active; 'I' for Inactive)
REMARK    1  A    between atoms: C_1  and  C_2
REMARK    2  A    between atoms: C_5  and  N_8
REMARK    3  A    between atoms: N_8  and  C_9
REMARK    4  A    between atoms: N_8  and  S_21
REMARK    5  A    between atoms: C_9  and  C_10
REMARK    6  A    between atoms: N_12  and  C_13
REMARK    7  A    between atoms: C_18  and  C_19
REMARK    8  A    between atoms: S_21  and  C_24
REMARK    9  A    between atoms: C_27  and  S_30
REMARK   10  A    between atoms: S_30  and  C_31
REMARK                            x       y       z     vdW  Elec       q    Type
REMARK                         _______ _______ _______ _____ _____    ______ ____
ROOT
ATOM      1  N   UNL     1       2.234   1.204  -0.139  0.00  0.00    -0.194 N 
ENDROOT
BRANCH   1   6
ATOM      2  C   UNL     1       2.753  -0.751   5.158  0.00  0.00    +0.044 C 
ATOM      3  C   UNL     1       2.615  -0.232   3.751  0.00  0.00    -0.050 A 
ATOM      4  C   UNL     1       1.409   0.295   3.325  0.00  0.00    +0.005 A 
ATOM      5  C   UNL     1       1.279   0.772   2.035  0.00  0.00    +0.025 A 
ATOM      6  C   UNL     1       2.362   0.722   1.166  0.00  0.00    +0.052 A 
ATOM      7  C   UNL     1       3.570   0.188   1.595  0.00  0.00    +0.025 A 
ATOM      8  C   UNL     1       3.694  -0.283   2.888  0.00  0.00    +0.005 A 
ENDBRANCH   1   6
BRANCH   1   9
ATOM      9  S   UNL     1       3.203   0.606  -1.341  0.00  0.00    +0.075 S 
ATOM     10  O   UNL     1       3.679  -0.655  -0.890  0.00  0.00    -0.150 OA
ATOM     11  O   UNL     1       2.483   0.757  -2.557  0.00  0.00    -0.150 OA
BRANCH   9  12
ATOM     12  C   UNL     1       4.608   1.663  -1.452  0.00  0.00    +0.109 A 
ATOM     13  C   UNL     1       4.546   2.814  -2.217  0.00  0.00    +0.030 A 
ATOM     14  C   UNL     1       5.644   3.648  -2.302  0.00  0.00    +0.016 A 
ATOM     15  C   UNL     1       6.814   3.324  -1.627  0.00  0.00    +0.008 A 
ATOM     16  C   UNL     1       6.874   2.164  -0.864  0.00  0.00    +0.016 A 
ATOM     17  C   UNL     1       5.771   1.338  -0.779  0.00  0.00    +0.030 A 
BRANCH  15  18
ATOM     18  S   UNL     1       8.219   4.382  -1.737  0.00  0.00    -0.129 S 
ATOM     19  C   UNL     1       7.668   5.731  -2.817  0.00  0.00    +0.090 C 
ENDBRANCH  15  18
ENDBRANCH   9  12
ENDBRANCH   1   9
BRANCH   1  20
ATOM     20  C   UNL     1       1.242   2.238  -0.445  0.00  0.00    +0.227 C 
BRANCH  20  21
ATOM     21  C   UNL     1      -0.094   1.591  -0.706  0.00  0.00    +0.236 C 
ATOM     22  O   UNL     1      -0.206   0.385  -0.644  0.00  0.00    -0.274 OA
ATOM     23  N   UNL     1      -1.162   2.352  -1.015  0.00  0.00    -0.283 N 
ATOM     24  H   UNL     1      -1.093   3.319  -0.989  0.00  0.00    +0.155 HD
BRANCH  23  25
ATOM     25  C   UNL     1      -2.366   1.750  -1.372  0.00  0.00    +0.048 A 
ATOM     26  C   UNL     1      -2.373   0.474  -1.920  0.00  0.00    +0.024 A 
ATOM     27  C   UNL     1      -3.568  -0.122  -2.268  0.00  0.00    +0.002 A 
ATOM     28  C   UNL     1      -4.767   0.548  -2.084  0.00  0.00    +0.001 A 
ATOM     29  C   UNL     1      -4.780   1.817  -1.547  0.00  0.00    +0.017 A 
ATOM     30  C   UNL     1      -3.578   2.432  -1.185  0.00  0.00    +0.084 A 
BRANCH  30  31
ATOM     31  C   UNL     1      -3.584   3.790  -0.610  0.00  0.00    +0.388 C 
ATOM     32  O   UNL     1      -2.534   4.356  -0.380  0.00  0.00    -0.241 OA
ATOM     33  O   UNL     1      -4.754   4.402  -0.340  0.00  0.00    -0.241 OA
ENDBRANCH  30  31
ENDBRANCH  23  25
ENDBRANCH  20  21
ENDBRANCH   1  20
TORSDOF 8
