REMARK  Name = ZINC09559537
REMARK  5 active torsions:
REMARK  status: ('A' for Active; 'I' for Inactive)
REMARK    1  A    between atoms: C_5  and  S_6
REMARK    2  A    between atoms: S_6  and  N_9
REMARK    3  A    between atoms: N_9  and  C_10
REMARK    4  A    between atoms: C_10  and  C_11
REMARK    5  A    between atoms: C_14  and  C_17
REMARK                            x       y       z     vdW  Elec       q    Type
REMARK                         _______ _______ _______ _____ _____    ______ ____
ROOT
ATOM      1  C   UNL     1      -2.595  -2.717  -2.486  0.00  0.00    +0.005 C 
ATOM      2  C   UNL     1      -3.311  -2.223  -1.228  0.00  0.00    +0.005 C 
ATOM      3  C   UNL     1      -2.571  -2.730   0.012  0.00  0.00    +0.013 C 
ATOM      4  C   UNL     1      -1.135  -2.201   0.001  0.00  0.00    +0.075 C 
ATOM      5  C   UNL     1      -0.419  -2.694  -1.258  0.00  0.00    +0.013 C 
ATOM      6  C   UNL     1      -1.159  -2.187  -2.497  0.00  0.00    +0.005 C 
ENDROOT
BRANCH   4   7
ATOM      7  C   UNL     1      -1.156  -0.694   0.009  0.00  0.00    +0.222 C 
ATOM      8  O   UNL     1      -2.214  -0.102   0.023  0.00  0.00    -0.275 OA
ATOM      9  N   UNL     1       0.002  -0.004   0.002  0.00  0.00    -0.264 N 
ATOM     10  C   UNL     1      -0.017   1.386   0.010  0.00  0.00    +0.164 A 
ATOM     11  N   UNL     1       0.998   2.228   0.004  0.00  0.00    -0.233 NA
ATOM     12  C   UNL     1       0.803   3.532   0.013  0.00  0.00    +0.120 A 
ATOM     13  C   UNL     1      -0.471   3.995   0.027  0.00  0.00    +0.068 A 
ATOM     14  S   UNL     1      -1.382   2.458   0.021  0.00  0.00    -0.061 S 
ATOM     15  H   UNL     1       0.849  -0.478  -0.009  0.00  0.00    +0.157 HD
ENDBRANCH   4   7
BRANCH   1  16
ATOM     16  C   UNL     1      -3.335  -2.210  -3.726  0.00  0.00    +0.109 C 
BRANCH  16  17
ATOM     17  N   UNL     1      -2.721  -2.779  -4.928  0.00  0.00    -0.189 NA
ATOM     18  H   UNL     1      -1.845  -3.194  -4.875  0.00  0.00    +0.148 HD
BRANCH  17  19
ATOM     19  S   UNL     1      -3.520  -2.714  -6.377  0.00  0.00    +0.065 S 
ATOM     20  O   UNL     1      -2.666  -3.316  -7.340  0.00  0.00    -0.153 OA
ATOM     21  O   UNL     1      -4.841  -3.179  -6.133  0.00  0.00    -0.153 OA
BRANCH  19  26
ATOM     22  C   UNL     1      -2.807  -0.249  -7.543  0.00  0.00    +0.037 A 
ATOM     23  C   UNL     1      -3.123   1.078  -7.769  0.00  0.00    +0.025 A 
ATOM     24  C   UNL     1      -4.278   1.574  -7.258  0.00  0.00    +0.057 A 
ATOM     25  S   UNL     1      -4.962   0.145  -6.436  0.00  0.00    -0.062 S 
ATOM     26  C   UNL     1      -3.659  -1.014  -6.819  0.00  0.00    +0.143 A 
ATOM     27 BR   UNL     1      -4.984   3.324  -7.390  0.00  0.00    -0.043 Br
ENDBRANCH  19  26
ENDBRANCH  17  19
ENDBRANCH  16  17
ENDBRANCH   1  16
TORSDOF 5
