REMARK  Name = ZINC08867629
REMARK  9 active torsions:
REMARK  status: ('A' for Active; 'I' for Inactive)
REMARK    1  A    between atoms: C_1  and  O_2
REMARK    2  A    between atoms: O_2  and  C_3
REMARK    3  A    between atoms: C_7  and  C_11
REMARK    4  A    between atoms: C_8  and  O_9
REMARK    5  A    between atoms: O_9  and  C_10
REMARK    6  A    between atoms: N_12  and  N_13
REMARK    7  A    between atoms: C_16  and  C_27
REMARK    8  A    between atoms: C_17  and  N_19
REMARK    9  A    between atoms: C_20  and  C_22
REMARK                            x       y       z     vdW  Elec       q    Type
REMARK                         _______ _______ _______ _____ _____    ______ ____
ROOT
ATOM      1  N   UNL     1      -1.102   2.175   0.019  0.00  0.00    -0.215 N 
ATOM      2  C   UNL     1      -0.016   1.315   0.009  0.00  0.00    +0.180 A 
ATOM      3  N   UNL     1       0.002  -0.004   0.002  0.00  0.00    -0.222 NA
ATOM      4  C   UNL     1       1.151  -0.679  -0.013  0.00  0.00    +0.102 A 
ATOM      5  C   UNL     1       2.334   0.020  -0.020  0.00  0.00    +0.101 A 
ATOM      6  S   UNL     1       1.729   1.702  -0.005  0.00  0.00    -0.035 S 
ATOM      7  H   UNL     1      -2.004   1.817   0.022  0.00  0.00    +0.176 HD
ENDROOT
BRANCH   4   8
ATOM      8  C   UNL     1       1.152  -2.160  -0.021  0.00  0.00    +0.003 A 
ATOM      9  C   UNL     1       2.131  -2.855  -0.732  0.00  0.00    +0.010 A 
ATOM     10  C   UNL     1       2.130  -4.235  -0.731  0.00  0.00    +0.001 A 
ATOM     11  C   UNL     1       1.154  -4.929  -0.038  0.00  0.00    +0.000 A 
ATOM     12  C   UNL     1       0.178  -4.245   0.664  0.00  0.00    +0.001 A 
ATOM     13  C   UNL     1       0.171  -2.865   0.677  0.00  0.00    +0.010 A 
ENDBRANCH   4   8
BRANCH   5  14
ATOM     14  N   UNL     1       3.646  -0.453  -0.035  0.00  0.00    -0.274 N 
ATOM     15  C   UNL     1       4.675   0.417  -0.040  0.00  0.00    +0.255 C 
ATOM     16  O   UNL     1       4.460   1.615  -0.032  0.00  0.00    -0.269 OA
ATOM     17  H   UNL     1       3.817  -1.407  -0.042  0.00  0.00    +0.156 HD
BRANCH  15  18
ATOM     18  C   UNL     1       6.054  -0.080  -0.056  0.00  0.00    +0.074 A 
ATOM     19  C   UNL     1       7.241   0.636  -0.064  0.00  0.00    +0.021 A 
ATOM     20  C   UNL     1       8.407  -0.087  -0.078  0.00  0.00    +0.008 A 
ATOM     21  C   UNL     1       8.346  -1.445  -0.084  0.00  0.00    +0.046 A 
ATOM     22  S   UNL     1       6.642  -1.764  -0.063  0.00  0.00    -0.092 S 
ENDBRANCH  15  18
ENDBRANCH   5  14
BRANCH   1  24
ATOM     23  C   UNL     1      -1.917   4.367   0.035  0.00  0.00    +0.142 C 
ATOM     24  N   UNL     1      -0.898   3.561   0.026  0.00  0.00    -0.188 NA
BRANCH  23  29
ATOM     25  C   UNL     1      -0.211   7.721   0.045  0.00  0.00    +0.162 A 
ATOM     26  C   UNL     1      -1.305   8.573   0.056  0.00  0.00    +0.049 A 
ATOM     27  C   UNL     1      -2.591   8.059   0.059  0.00  0.00    +0.004 A 
ATOM     28  C   UNL     1      -2.795   6.696   0.052  0.00  0.00    +0.013 A 
ATOM     29  C   UNL     1      -1.702   5.825   0.042  0.00  0.00    +0.040 A 
ATOM     30  C   UNL     1      -0.402   6.345   0.044  0.00  0.00    +0.170 A 
BRANCH  25  32
ATOM     31  C   UNL     1       1.171   9.657   0.050  0.00  0.00    +0.277 C 
ATOM     32  O   UNL     1       1.049   8.233   0.042  0.00  0.00    -0.491 OA
ENDBRANCH  25  32
BRANCH  30  33
ATOM     33  O   UNL     1       0.668   5.507   0.040  0.00  0.00    -0.491 OA
ATOM     34  C   UNL     1       1.179   5.113  -1.235  0.00  0.00    +0.277 C 
ENDBRANCH  30  33
ENDBRANCH  23  29
ENDBRANCH   1  24
TORSDOF 7
