REMARK  Name = ZINC50309955
REMARK  8 active torsions:
REMARK  status: ('A' for Active; 'I' for Inactive)
REMARK    1  A    between atoms: C_1  and  C_2
REMARK    2  A    between atoms: C_2  and  C_3
REMARK    3  A    between atoms: C_7  and  C_23
REMARK    4  A    between atoms: C_11  and  C_13
REMARK    5  A    between atoms: C_14  and  N_22
REMARK    6  A    between atoms: C_15  and  C_19
REMARK    7  A    between atoms: C_19  and  C_20
REMARK    8  A    between atoms: C_19  and  C_21
REMARK                            x       y       z     vdW  Elec       q    Type
REMARK                         _______ _______ _______ _____ _____    ______ ____
ROOT
ATOM      1  C   UNL     1      -0.351   1.084  -4.553  0.00  0.00    +0.168 A 
ATOM      2  C   UNL     1       0.051   1.953  -5.600  0.00  0.00    +0.078 A 
ATOM      3  C   UNL     1      -0.942   1.889  -6.526  0.00  0.00    +0.060 A 
ATOM      4  N   UNL     1      -1.877   1.027  -6.047  0.00  0.00    -0.279 N 
ATOM      5  H   UNL     1      -2.699   0.790  -6.505  0.00  0.00    +0.189 HD
ATOM      6  N   UNL     1      -1.513   0.567  -4.905  0.00  0.00    -0.167 NA
ENDROOT
BRANCH   1  13
ATOM      7  C   UNL     1       0.721  -0.497  -1.257  0.00  0.00    +0.102 C 
ATOM      8  C   UNL     1       0.869  -2.023  -1.219  0.00  0.00    +0.182 C 
ATOM      9  O   UNL     1      -0.422  -2.624  -1.346  0.00  0.00    -0.373 OA
ATOM     10  C   UNL     1      -1.080  -2.342  -2.583  0.00  0.00    +0.133 C 
ATOM     11  C   UNL     1      -1.328  -0.833  -2.692  0.00  0.00    +0.139 C 
ATOM     12  N   UNL     1      -0.053  -0.135  -2.455  0.00  0.00    -0.288 N 
ATOM     13  C   UNL     1       0.392   0.807  -3.310  0.00  0.00    +0.269 C 
ATOM     14  O   UNL     1       1.406   1.427  -3.057  0.00  0.00    -0.268 OA
ATOM     15  C   UNL     1      -2.417  -3.085  -2.633  0.00  0.00    +0.039 C 
BRANCH   7  17
ATOM     16  C   UNL     1      -0.062   1.510   0.008  0.00  0.00    +0.006 C 
ATOM     17  C   UNL     1      -0.015  -0.020  -0.004  0.00  0.00    +0.021 C 
ENDBRANCH   7  17
ENDBRANCH   1  13
BRANCH   3  18
ATOM     18  C   UNL     1      -0.995   2.632  -7.836  0.00  0.00    +0.033 C 
ATOM     19  C   UNL     1      -1.063   1.629  -8.989  0.00  0.00    +0.014 C 
ATOM     20  C   UNL     1      -2.236   3.526  -7.864  0.00  0.00    +0.014 C 
ENDBRANCH   3  18
BRANCH   2  21
ATOM     21  N   UNL     1       1.226   2.718  -5.666  0.00  0.00    -0.355 N 
ATOM     22  H   UNL     1       1.868   2.683  -4.939  0.00  0.00    +0.142 HD
ATOM     23  H   UNL     1       1.396   3.280  -6.437  0.00  0.00    +0.142 HD
ENDBRANCH   2  21
TORSDOF 4
