REMARK  Name = ZINC46570297
REMARK  6 active torsions:
REMARK  status: ('A' for Active; 'I' for Inactive)
REMARK    1  A    between atoms: C_1  and  C_2
REMARK    2  A    between atoms: C_2  and  C_4
REMARK    3  A    between atoms: C_2  and  N_10
REMARK    4  A    between atoms: C_11  and  C_13
REMARK    5  A    between atoms: C_18  and  N_19
REMARK    6  A    between atoms: C_20  and  C_22
REMARK                            x       y       z     vdW  Elec       q    Type
REMARK                         _______ _______ _______ _____ _____    ______ ____
ROOT
ATOM      1  C   UNL     1      -3.682  -2.013  -1.386  0.00  0.00    +0.058 A 
ATOM      2  C   UNL     1      -4.275  -2.622  -0.277  0.00  0.00    +0.015 A 
ATOM      3  C   UNL     1      -5.609  -2.967  -0.315  0.00  0.00    +0.001 A 
ATOM      4  C   UNL     1      -6.366  -2.714  -1.448  0.00  0.00    +0.002 A 
ATOM      5  C   UNL     1      -5.793  -2.114  -2.550  0.00  0.00    +0.024 A 
ATOM      6  C   UNL     1      -4.452  -1.753  -2.529  0.00  0.00    +0.046 A 
ENDROOT
BRANCH   1   8
ATOM      7  N   UNL     1      -1.534  -1.835  -0.230  0.00  0.00    -0.305 N 
ATOM      8  C   UNL     1      -2.255  -1.640  -1.352  0.00  0.00    +0.246 C 
ATOM      9  O   UNL     1      -1.729  -1.158  -2.336  0.00  0.00    -0.270 OA
ATOM     10  H   UNL     1      -1.953  -2.220   0.555  0.00  0.00    +0.150 HD
BRANCH   7  12
ATOM     11  C   UNL     1       0.015   0.019   0.152  0.00  0.00    +0.033 C 
ATOM     12  C   UNL     1      -0.117  -1.465  -0.196  0.00  0.00    +0.100 C 
BRANCH  12  13
ATOM     13  C   UNL     1       0.594  -2.290   0.846  0.00  0.00    -0.027 A 
ATOM     14  C   UNL     1      -0.024  -2.559   2.053  0.00  0.00    +0.005 A 
ATOM     15  C   UNL     1       0.628  -3.316   3.008  0.00  0.00    +0.000 A 
ATOM     16  C   UNL     1       1.896  -3.804   2.757  0.00  0.00    +0.000 A 
ATOM     17  C   UNL     1       2.513  -3.535   1.549  0.00  0.00    +0.000 A 
ATOM     18  C   UNL     1       1.860  -2.782   0.592  0.00  0.00    +0.005 A 
ENDBRANCH  12  13
ENDBRANCH   7  12
ENDBRANCH   1   8
BRANCH   6  19
ATOM     19  N   UNL     1      -3.873  -1.142  -3.639  0.00  0.00    -0.285 N 
ATOM     20  C   UNL     1      -4.147  -1.597  -4.878  0.00  0.00    +0.220 C 
ATOM     21  O   UNL     1      -4.972  -2.472  -5.034  0.00  0.00    -0.275 OA
ATOM     22  H   UNL     1      -3.273  -0.390  -3.520  0.00  0.00    +0.155 HD
BRANCH  20  23
ATOM     23  C   UNL     1      -3.429  -1.017  -6.069  0.00  0.00    +0.078 C 
ATOM     24  C   UNL     1      -3.711   0.485  -6.153  0.00  0.00    +0.032 C 
ATOM     25  C   UNL     1      -2.952   1.077  -7.345  0.00  0.00    +0.107 C 
ATOM     26  N   UNL     1      -3.312   0.326  -8.555  0.00  0.00    -0.314 N 
ATOM     27  C   UNL     1      -3.165  -1.136  -8.550  0.00  0.00    +0.107 C 
ATOM     28  C   UNL     1      -3.922  -1.703  -7.345  0.00  0.00    +0.032 C 
ATOM     29  C   UNL     1      -3.784   0.987  -9.685  0.00  0.00    +0.144 A 
ATOM     30  C   UNL     1      -3.708   2.377  -9.766  0.00  0.00    +0.048 A 
ATOM     31  C   UNL     1      -4.191   2.987 -10.912  0.00  0.00    +0.045 A 
ATOM     32  C   UNL     1      -4.722   2.178 -11.909  0.00  0.00    +0.152 A 
ATOM     33  N   UNL     1      -4.754   0.869 -11.747  0.00  0.00    -0.136 NA
ATOM     34  N   UNL     1      -4.303   0.298 -10.690  0.00  0.00    -0.133 NA
ATOM     35 CL   UNL     1      -5.342   2.888 -13.366  0.00  0.00    -0.060 Cl
ENDBRANCH  20  23
ENDBRANCH   6  19
TORSDOF 5
