REMARK  Name = ZINC44441349
REMARK  5 active torsions:
REMARK  status: ('A' for Active; 'I' for Inactive)
REMARK    1  A    between atoms: C_1  and  S_2
REMARK    2  A    between atoms: S_2  and  C_3
REMARK    3  A    between atoms: C_6  and  N_9
REMARK    4  A    between atoms: C_10  and  C_12
REMARK    5  A    between atoms: C_23  and  C_25
REMARK                            x       y       z     vdW  Elec       q    Type
REMARK                         _______ _______ _______ _____ _____    ______ ____
ROOT
ATOM      1  C   UNL     1       3.721  -3.074   6.627  0.00  0.00    +0.125 C 
ATOM      2  C   UNL     1       3.730  -4.595   6.801  0.00  0.00    +0.019 C 
ATOM      3  C   UNL     1       4.208  -4.961   8.208  0.00  0.00    +0.006 C 
ATOM      4  C   UNL     1       3.126  -4.555   9.222  0.00  0.00    +0.044 C 
ATOM      5  C   UNL     1       2.693  -3.163   8.907  0.00  0.00    +0.015 A 
ATOM      6  C   UNL     1       2.932  -2.454   7.771  0.00  0.00    +0.066 A 
ATOM      7  N   UNL     1       2.428  -1.223   7.761  0.00  0.00    -0.229 NA
ATOM      8  C   UNL     1       1.752  -0.739   8.780  0.00  0.00    +0.165 A 
ATOM      9  S   UNL     1       1.758  -2.021   9.885  0.00  0.00    -0.057 S 
ATOM     10  N   UNL     1       1.171   0.515   8.913  0.00  0.00    -0.261 N 
ATOM     11  C   UNL     1       0.511   0.835  10.043  0.00  0.00    +0.250 C 
ATOM     12  O   UNL     1       0.423   0.026  10.946  0.00  0.00    -0.270 OA
ATOM     13  H   UNL     1       1.241   1.161   8.193  0.00  0.00    +0.157 HD
ENDROOT
BRANCH  11  14
ATOM     14  C   UNL     1      -0.107   2.168  10.185  0.00  0.00    +0.041 A 
ATOM     15  C   UNL     1      -0.012   3.097   9.146  0.00  0.00    +0.017 A 
ATOM     16  C   UNL     1      -0.590   4.341   9.280  0.00  0.00    +0.050 A 
ATOM     17  C   UNL     1      -1.266   4.676  10.445  0.00  0.00    +0.166 A 
ATOM     18  C   UNL     1      -1.364   3.752  11.487  0.00  0.00    +0.167 A 
ATOM     19  C   UNL     1      -0.792   2.502  11.356  0.00  0.00    +0.062 A 
ATOM     20  O   UNL     1      -2.070   4.320  12.508  0.00  0.00    -0.453 OA
ATOM     21  C   UNL     1      -2.050   5.736  12.247  0.00  0.00    +0.466 C 
ATOM     22  O   UNL     1      -1.911   5.819  10.816  0.00  0.00    -0.453 OA
ENDBRANCH  11  14
BRANCH   1  24
ATOM     23  N   UNL     1       2.948  -1.427   4.952  0.00  0.00    -0.285 N 
ATOM     24  C   UNL     1       3.072  -2.719   5.314  0.00  0.00    +0.226 C 
ATOM     25  O   UNL     1       2.661  -3.596   4.584  0.00  0.00    -0.275 OA
ATOM     26  H   UNL     1       3.344  -0.730   5.498  0.00  0.00    +0.155 HD
BRANCH  23  30
ATOM     27  C   UNL     1       0.860  -0.425   1.483  0.00  0.00    +0.008 A 
ATOM     28  C   UNL     1       0.465  -1.522   2.239  0.00  0.00    +0.016 A 
ATOM     29  C   UNL     1       1.156  -1.853   3.387  0.00  0.00    +0.024 A 
ATOM     30  C   UNL     1       2.246  -1.090   3.786  0.00  0.00    +0.033 A 
ATOM     31  C   UNL     1       2.641   0.006   3.030  0.00  0.00    +0.024 A 
ATOM     32  C   UNL     1       1.954   0.334   1.879  0.00  0.00    +0.016 A 
BRANCH  27  34
ATOM     33  C   UNL     1      -1.333  -1.251  -0.082  0.00  0.00    +0.090 C 
ATOM     34  S   UNL     1      -0.022  -0.002   0.017  0.00  0.00    -0.129 S 
ENDBRANCH  27  34
ENDBRANCH  23  30
ENDBRANCH   1  24
TORSDOF 4
