REMARK  Name = ZINC65074819
REMARK  6 active torsions:
REMARK  status: ('A' for Active; 'I' for Inactive)
REMARK    1  A    between atoms: C_1  and  C_2
REMARK    2  A    between atoms: C_5  and  S_9
REMARK    3  A    between atoms: C_6  and  C_8
REMARK    4  A    between atoms: S_9  and  N_12
REMARK    5  A    between atoms: N_23  and  C_24
REMARK    6  A    between atoms: C_24  and  C_25
REMARK                            x       y       z     vdW  Elec       q    Type
REMARK                         _______ _______ _______ _____ _____    ______ ____
ROOT
ATOM      1  N   UNL     1       1.506  -5.005   0.635  0.00  0.00    -0.176 NA
ATOM      2  C   UNL     1       2.689  -5.201  -0.215  0.00  0.00    +0.111 C 
ATOM      3  C   UNL     1       3.251  -6.603   0.037  0.00  0.00    +0.047 C 
ATOM      4  C   UNL     1       3.519  -6.779   1.534  0.00  0.00    +0.075 C 
ATOM      5  C   UNL     1       2.205  -6.640   2.307  0.00  0.00    +0.047 C 
ATOM      6  C   UNL     1       1.631  -5.233   2.081  0.00  0.00    +0.111 C 
ATOM      7  C   UNL     1       4.107  -8.139   1.782  0.00  0.00    +0.089 C 
ATOM      8  N   UNL     1       5.348  -8.342   2.018  0.00  0.00    -0.374 N 
ATOM      9  C   UNL     1       6.345  -7.278   2.086  0.00  0.00    +0.129 C 
ATOM     10  C   UNL     1       5.799  -6.005   1.437  0.00  0.00    +0.102 C 
ATOM     11  N   UNL     1       4.457  -5.739   1.983  0.00  0.00    -0.303 NA
ATOM     12  N   UNL     1       3.268  -9.222   1.755  0.00  0.00    -0.329 N 
ATOM     13  H   UNL     1       4.134  -4.821   1.718  0.00  0.00    +0.123 HD
ATOM     14  H   UNL     1       2.322  -9.098   1.579  0.00  0.00    +0.147 HD
ATOM     15  H   UNL     1       5.643  -9.255   2.161  0.00  0.00    +0.161 HD
ENDROOT
BRANCH   1  16
ATOM     16  S   UNL     1       0.063  -4.530  -0.023  0.00  0.00    +0.061 S 
ATOM     17  O   UNL     1      -0.953  -4.955   0.876  0.00  0.00    -0.153 OA
ATOM     18  O   UNL     1       0.087  -4.929  -1.387  0.00  0.00    -0.153 OA
BRANCH  16  23
ATOM     19  C   UNL     1      -0.018   1.503   0.010  0.00  0.00    +0.044 C 
ATOM     20  C   UNL     1       0.002  -0.004   0.002  0.00  0.00    -0.050 A 
ATOM     21  C   UNL     1       0.006  -0.689  -1.199  0.00  0.00    +0.005 A 
ATOM     22  C   UNL     1       0.025  -2.071  -1.207  0.00  0.00    +0.029 A 
ATOM     23  C   UNL     1       0.040  -2.768  -0.013  0.00  0.00    +0.108 A 
ATOM     24  C   UNL     1       0.037  -2.084   1.188  0.00  0.00    -0.024 A 
ATOM     25  C   UNL     1       0.023  -0.702   1.195  0.00  0.00    +0.008 A 
ATOM     26  C   UNL     1       0.054  -2.845   2.489  0.00  0.00    +0.046 C 
ENDBRANCH  16  23
ENDBRANCH   1  16
BRANCH  12  27
ATOM     27  C   UNL     1       3.799 -10.567   1.992  0.00  0.00    +0.138 C 
BRANCH  27  28
ATOM     28  C   UNL     1       2.679 -11.571   1.907  0.00  0.00    -0.028 A 
ATOM     29  C   UNL     1       1.959 -11.901   3.041  0.00  0.00    +0.005 A 
ATOM     30  C   UNL     1       0.932 -12.822   2.965  0.00  0.00    +0.003 A 
ATOM     31  C   UNL     1       0.623 -13.415   1.755  0.00  0.00    +0.038 A 
ATOM     32  C   UNL     1       1.342 -13.086   0.619  0.00  0.00    +0.124 A 
ATOM     33  C   UNL     1       2.368 -12.158   0.696  0.00  0.00    +0.043 A 
ATOM     34  F   UNL     1       1.041 -13.665  -0.563  0.00  0.00    -0.205 F 
ENDBRANCH  27  28
ENDBRANCH  12  27
TORSDOF 4
