REMARK  Name = ZINC25149017
REMARK  7 active torsions:
REMARK  status: ('A' for Active; 'I' for Inactive)
REMARK    1  A    between atoms: C_1  and  C_2
REMARK    2  A    between atoms: C_4  and  N_15
REMARK    3  A    between atoms: C_7  and  N_8
REMARK    4  A    between atoms: N_11  and  C_14
REMARK    5  A    between atoms: C_16  and  C_18
REMARK    6  A    between atoms: N_23  and  S_25
REMARK    7  A    between atoms: S_25  and  C_28
REMARK                            x       y       z     vdW  Elec       q    Type
REMARK                         _______ _______ _______ _____ _____    ______ ____
ROOT
ATOM      1  N   UNL     1      -2.590  -3.553   4.388  0.00  0.00    -0.285 N 
ATOM      2  C   UNL     1      -2.502  -2.438   3.635  0.00  0.00    +0.222 C 
ATOM      3  O   UNL     1      -3.402  -1.625   3.649  0.00  0.00    -0.275 OA
ATOM      4  H   UNL     1      -1.817  -4.331   4.310  0.00  0.00    +0.155 HD
ENDROOT
BRANCH   1   8
ATOM      5  C   UNL     1      -5.787  -6.534   6.641  0.00  0.00    +0.046 C 
ATOM      6  C   UNL     1      -5.237  -5.156   6.378  0.00  0.00    -0.028 A 
ATOM      7  C   UNL     1      -4.175  -4.990   5.511  0.00  0.00    +0.028 A 
ATOM      8  C   UNL     1      -3.668  -3.721   5.268  0.00  0.00    +0.034 A 
ATOM      9  C   UNL     1      -4.224  -2.618   5.903  0.00  0.00    +0.025 A 
ATOM     10  C   UNL     1      -5.289  -2.782   6.766  0.00  0.00    +0.025 A 
ATOM     11  C   UNL     1      -5.797  -4.052   7.008  0.00  0.00    +0.033 A 
BRANCH  11  12
ATOM     12  N   UNL     1      -6.872  -4.220   7.887  0.00  0.00    -0.333 N 
ATOM     13  C   UNL     1      -8.077  -3.550   7.379  0.00  0.00    +0.086 C 
ATOM     14  C   UNL     1      -9.247  -3.822   8.326  0.00  0.00    -0.060 C 
ATOM     15  N   UNL     1      -8.908  -3.340   9.672  0.00  0.00    +0.380 N 
ATOM     16  C   UNL     1      -7.702  -4.010  10.181  0.00  0.00    -0.060 C 
ATOM     17  C   UNL     1      -6.532  -3.737   9.233  0.00  0.00    +0.086 C 
ATOM     18  C   UNL     1     -10.037  -3.515  10.595  0.00  0.00    -0.096 C 
ATOM     19  H   UNL     1      -8.694  -2.263   9.603  0.00  0.00    -0.082 HD
ENDBRANCH  11  12
ENDBRANCH   1   8
BRANCH   2  20
ATOM     20  C   UNL     1      -1.286  -2.202   2.778  0.00  0.00    +0.091 C 
ATOM     21  C   UNL     1      -0.039  -2.146   3.664  0.00  0.00    +0.015 C 
ATOM     22  C   UNL     1       1.200  -1.939   2.790  0.00  0.00    +0.018 C 
ATOM     23  C   UNL     1       1.078  -0.613   2.042  0.00  0.00    +0.109 C 
ATOM     24  N   UNL     1      -0.191  -0.596   1.302  0.00  0.00    -0.176 NA
ATOM     25  C   UNL     1      -1.437  -0.874   2.030  0.00  0.00    +0.122 C 
BRANCH  24  26
ATOM     26  S   UNL     1      -0.217  -0.277  -0.322  0.00  0.00    +0.061 S 
ATOM     27  O   UNL     1      -1.404  -0.868  -0.834  0.00  0.00    -0.153 OA
ATOM     28  O   UNL     1       1.073  -0.605  -0.821  0.00  0.00    -0.153 OA
BRANCH  26  29
ATOM     29  C   UNL     1      -0.401   1.465  -0.509  0.00  0.00    +0.106 A 
ATOM     30  C   UNL     1      -1.663   2.022  -0.594  0.00  0.00    +0.030 A 
ATOM     31  C   UNL     1      -1.808   3.389  -0.734  0.00  0.00    +0.022 A 
ATOM     32  C   UNL     1      -0.690   4.200  -0.801  0.00  0.00    +0.041 A 
ATOM     33  C   UNL     1       0.574   3.642  -0.722  0.00  0.00    +0.022 A 
ATOM     34  C   UNL     1       0.718   2.275  -0.575  0.00  0.00    +0.030 A 
ATOM     35 CL   UNL     1      -0.871   5.916  -0.985  0.00  0.00    -0.084 Cl
ENDBRANCH  26  29
ENDBRANCH  24  26
ENDBRANCH   2  20
TORSDOF 5
