REMARK  Name = ZINC12569607
REMARK  7 active torsions:
REMARK  status: ('A' for Active; 'I' for Inactive)
REMARK    1  A    between atoms: C_1  and  C_2
REMARK    2  A    between atoms: C_4  and  C_26
REMARK    3  A    between atoms: C_5  and  C_7
REMARK    4  A    between atoms: C_7  and  C_8
REMARK    5  A    between atoms: N_10  and  C_11
REMARK    6  A    between atoms: C_15  and  S_17
REMARK    7  A    between atoms: S_17  and  N_20
REMARK                            x       y       z     vdW  Elec       q    Type
REMARK                         _______ _______ _______ _____ _____    ______ ____
ROOT
ATOM      1  C   UNL     1       1.487  -4.463   1.083  0.00  0.00    +0.222 C 
ATOM      2  O   UNL     1       2.398  -3.712   0.804  0.00  0.00    -0.275 OA
ATOM      3  N   UNL     1       1.752  -5.706   1.532  0.00  0.00    -0.285 N 
ATOM      4  H   UNL     1       1.026  -6.283   1.817  0.00  0.00    +0.155 HD
ENDROOT
BRANCH   3   5
ATOM      5  C   UNL     1       3.073  -6.164   1.585  0.00  0.00    +0.035 A 
ATOM      6  C   UNL     1       3.359  -7.497   1.319  0.00  0.00    +0.023 A 
ATOM      7  C   UNL     1       4.663  -7.946   1.373  0.00  0.00    +0.004 A 
ATOM      8  C   UNL     1       5.685  -7.070   1.691  0.00  0.00    +0.029 A 
ATOM      9  C   UNL     1       5.404  -5.742   1.957  0.00  0.00    +0.114 A 
ATOM     10  C   UNL     1       4.102  -5.286   1.898  0.00  0.00    +0.052 A 
BRANCH   9  11
ATOM     11  S   UNL     1       6.709  -4.630   2.362  0.00  0.00    +0.100 S 
ATOM     12  O   UNL     1       6.122  -3.567   3.100  0.00  0.00    -0.146 OA
ATOM     13  O   UNL     1       7.771  -5.421   2.879  0.00  0.00    -0.146 OA
BRANCH  11  14
ATOM     14  N   UNL     1       7.254  -3.976   0.942  0.00  0.00    -0.118 NA
ATOM     15  C   UNL     1       8.221  -3.118   0.955  0.00  0.00    +0.117 C 
ATOM     16  N   UNL     1       8.874  -2.679   2.076  0.00  0.00    -0.331 N 
ATOM     17  C   UNL     1      10.180  -2.120   1.689  0.00  0.00    +0.103 C 
ATOM     18  C   UNL     1       9.954  -1.560   0.267  0.00  0.00    +0.026 C 
ATOM     19  C   UNL     1       8.810  -2.448  -0.267  0.00  0.00    +0.074 C 
ATOM     20  H   UNL     1       8.531  -2.729   2.982  0.00  0.00    +0.147 HD
ENDBRANCH  11  14
ENDBRANCH   9  11
ENDBRANCH   3   5
BRANCH   1  21
ATOM     21  C   UNL     1       0.059  -4.007   0.926  0.00  0.00    +0.140 C 
BRANCH  21  26
ATOM     22  C   UNL     1      -0.012   1.503   0.002  0.00  0.00    +0.073 C 
ATOM     23  C   UNL     1       0.005  -0.004  -0.002  0.00  0.00    +0.076 A 
ATOM     24  N   UNL     1       0.003  -0.811  -1.031  0.00  0.00    -0.244 NA
ATOM     25  C   UNL     1       0.020  -2.127  -0.876  0.00  0.00    +0.082 A 
ATOM     26  C   UNL     1       0.038  -2.590   0.413  0.00  0.00    +0.026 A 
ATOM     27  S   UNL     1       0.038  -1.050   1.316  0.00  0.00    -0.076 S 
BRANCH  25  28
ATOM     28  C   UNL     1       0.018  -3.051  -2.037  0.00  0.00    +0.001 A 
ATOM     29  C   UNL     1       0.718  -4.254  -1.974  0.00  0.00    +0.013 A 
ATOM     30  C   UNL     1       0.713  -5.110  -3.057  0.00  0.00    +0.039 A 
ATOM     31  C   UNL     1       0.013  -4.774  -4.204  0.00  0.00    +0.123 A 
ATOM     32  C   UNL     1      -0.684  -3.579  -4.271  0.00  0.00    +0.039 A 
ATOM     33  C   UNL     1      -0.690  -2.720  -3.191  0.00  0.00    +0.013 A 
ATOM     34  F   UNL     1       0.011  -5.615  -5.262  0.00  0.00    -0.205 F 
ENDBRANCH  25  28
ENDBRANCH  21  26
ENDBRANCH   1  21
TORSDOF 6
