REMARK  Name = ZINC35403689
REMARK  9 active torsions:
REMARK  status: ('A' for Active; 'I' for Inactive)
REMARK    1  A    between atoms: C_1  and  C_2
REMARK    2  A    between atoms: C_2  and  C_3
REMARK    3  A    between atoms: C_2  and  C_4
REMARK    4  A    between atoms: C_7  and  C_10
REMARK    5  A    between atoms: N_12  and  C_13
REMARK    6  A    between atoms: C_13  and  N_15
REMARK    7  A    between atoms: N_15  and  C_16
REMARK    8  A    between atoms: C_19  and  N_22
REMARK    9  A    between atoms: C_28  and  C_30
REMARK                            x       y       z     vdW  Elec       q    Type
REMARK                         _______ _______ _______ _____ _____    ______ ____
ROOT
ATOM      1  C   UNL     1      -9.569  -3.406  -2.669  0.00  0.00    +0.033 A 
ATOM      2  C   UNL     1     -10.412  -3.271  -1.573  0.00  0.00    +0.025 A 
ATOM      3  C   UNL     1     -11.619  -3.940  -1.544  0.00  0.00    +0.025 A 
ATOM      4  C   UNL     1     -11.990  -4.749  -2.611  0.00  0.00    +0.030 A 
ATOM      5  C   UNL     1     -11.147  -4.884  -3.706  0.00  0.00    +0.025 A 
ATOM      6  C   UNL     1      -9.943  -4.210  -3.737  0.00  0.00    +0.025 A 
ENDROOT
BRANCH   4   7
ATOM      7  N   UNL     1     -13.213  -5.427  -2.581  0.00  0.00    -0.327 N 
ATOM      8  C   UNL     1     -13.562  -6.386  -3.639  0.00  0.00    +0.124 C 
ATOM      9  C   UNL     1     -13.900  -7.733  -2.987  0.00  0.00    +0.127 C 
ATOM     10  N   UNL     1     -14.859  -7.500  -1.898  0.00  0.00    -0.295 N 
ATOM     11  C   UNL     1     -14.510  -6.541  -0.840  0.00  0.00    +0.127 C 
ATOM     12  C   UNL     1     -14.170  -5.199  -1.489  0.00  0.00    +0.124 C 
ATOM     13  C   UNL     1     -16.037  -8.154  -1.869  0.00  0.00    +0.247 C 
ATOM     14  O   UNL     1     -16.784  -8.020  -0.919  0.00  0.00    -0.270 OA
BRANCH  13  15
ATOM     15  C   UNL     1     -16.421  -9.034  -2.993  0.00  0.00    +0.037 A 
ATOM     16  C   UNL     1     -15.507  -9.957  -3.504  0.00  0.00    +0.014 A 
ATOM     17  C   UNL     1     -15.872 -10.775  -4.553  0.00  0.00    +0.021 A 
ATOM     18  C   UNL     1     -17.142 -10.683  -5.098  0.00  0.00    +0.041 A 
ATOM     19  C   UNL     1     -18.053  -9.769  -4.595  0.00  0.00    +0.021 A 
ATOM     20  C   UNL     1     -17.702  -8.949  -3.543  0.00  0.00    +0.014 A 
ATOM     21 CL   UNL     1     -17.593 -11.716  -6.418  0.00  0.00    -0.084 Cl
ENDBRANCH  13  15
ENDBRANCH   4   7
BRANCH   1  22
ATOM     22  N   UNL     1      -8.344  -2.727  -2.698  0.00  0.00    -0.297 N 
ATOM     23  H   UNL     1      -8.289  -1.812  -2.379  0.00  0.00    +0.154 HD
BRANCH  22  24
ATOM     24  C   UNL     1      -7.242  -3.343  -3.170  0.00  0.00    +0.141 C 
ATOM     25  S   UNL     1      -7.309  -4.997  -3.607  0.00  0.00    -0.018 S 
BRANCH  24  28
ATOM     26  C   UNL     1      -4.987  -3.275  -3.769  0.00  0.00    +0.250 C 
ATOM     27  O   UNL     1      -5.034  -4.449  -4.080  0.00  0.00    -0.270 OA
ATOM     28  N   UNL     1      -6.089  -2.658  -3.297  0.00  0.00    -0.264 N 
ATOM     29  H   UNL     1      -6.051  -1.721  -3.049  0.00  0.00    +0.157 HD
BRANCH  26  33
ATOM     30  C   UNL     1      -1.352  -1.116  -4.172  0.00  0.00    -0.045 A 
ATOM     31  C   UNL     1      -1.402  -2.453  -4.526  0.00  0.00    +0.004 A 
ATOM     32  C   UNL     1      -2.579  -3.160  -4.397  0.00  0.00    +0.013 A 
ATOM     33  C   UNL     1      -3.722  -2.524  -3.909  0.00  0.00    +0.037 A 
ATOM     34  C   UNL     1      -3.665  -1.175  -3.553  0.00  0.00    +0.013 A 
ATOM     35  C   UNL     1      -2.480  -0.481  -3.682  0.00  0.00    +0.004 A 
BRANCH  30  37
ATOM     36  C   UNL     1       1.020  -1.007  -3.456  0.00  0.00    +0.012 C 
ATOM     37  C   UNL     1      -0.063  -0.349  -4.315  0.00  0.00    +0.013 C 
ATOM     38  C   UNL     1       0.375  -0.357  -5.781  0.00  0.00    +0.012 C 
ENDBRANCH  30  37
ENDBRANCH  26  33
ENDBRANCH  24  28
ENDBRANCH  22  24
ENDBRANCH   1  22
TORSDOF 7
