REMARK  Name = ZINC21450717
REMARK  8 active torsions:
REMARK  status: ('A' for Active; 'I' for Inactive)
REMARK    1  A    between atoms: C_1  and  C_2
REMARK    2  A    between atoms: C_5  and  N_9
REMARK    3  A    between atoms: C_7  and  C_8
REMARK    4  A    between atoms: C_11  and  C_16
REMARK    5  A    between atoms: N_18  and  C_19
REMARK    6  A    between atoms: C_22  and  S_25
REMARK    7  A    between atoms: S_25  and  N_28
REMARK    8  A    between atoms: N_28  and  C_29
REMARK                            x       y       z     vdW  Elec       q    Type
REMARK                         _______ _______ _______ _____ _____    ______ ____
ROOT
ATOM      1  C   UNL     1      -7.069   5.592   1.190  0.00  0.00    +0.222 C 
ATOM      2  O   UNL     1      -8.100   5.945   1.723  0.00  0.00    -0.275 OA
ATOM      3  N   UNL     1      -7.106   4.992  -0.016  0.00  0.00    -0.285 N 
ATOM      4  H   UNL     1      -6.182   4.591  -0.459  0.00  0.00    +0.155 HD
ENDROOT
BRANCH   1   7
ATOM      5  N   UNL     1      -4.901   5.769   4.119  0.00  0.00    -0.271 N 
ATOM      6  C   UNL     1      -5.960   6.378   3.305  0.00  0.00    +0.127 C 
ATOM      7  C   UNL     1      -5.748   5.824   1.876  0.00  0.00    +0.102 C 
ATOM      8  C   UNL     1      -5.030   4.485   2.163  0.00  0.00    +0.110 C 
ATOM      9  C   UNL     1      -4.368   4.699   3.506  0.00  0.00    +0.221 C 
ATOM     10  O   UNL     1      -3.484   4.005   3.963  0.00  0.00    -0.275 OA
BRANCH   5  15
ATOM     11  C   UNL     1      -3.285   7.677   9.212  0.00  0.00    +0.044 C 
ATOM     12  C   UNL     1      -3.714   7.170   7.859  0.00  0.00    -0.047 A 
ATOM     13  C   UNL     1      -4.641   7.881   7.118  0.00  0.00    +0.005 A 
ATOM     14  C   UNL     1      -5.040   7.417   5.880  0.00  0.00    +0.024 A 
ATOM     15  C   UNL     1      -4.502   6.240   5.375  0.00  0.00    +0.037 A 
ATOM     16  C   UNL     1      -3.572   5.529   6.122  0.00  0.00    +0.027 A 
ATOM     17  C   UNL     1      -3.181   5.996   7.361  0.00  0.00    -0.046 A 
ATOM     18  C   UNL     1      -2.172   5.224   8.172  0.00  0.00    +0.044 C 
ENDBRANCH   5  15
ENDBRANCH   1   7
BRANCH   3  19
ATOM     19  C   UNL     1      -8.319   4.878  -0.704  0.00  0.00    +0.034 A 
ATOM     20  C   UNL     1      -8.572   3.759  -1.488  0.00  0.00    +0.025 A 
ATOM     21  C   UNL     1      -9.772   3.647  -2.162  0.00  0.00    +0.030 A 
ATOM     22  C   UNL     1     -10.717   4.652  -2.065  0.00  0.00    +0.105 A 
ATOM     23  C   UNL     1     -10.466   5.770  -1.291  0.00  0.00    +0.030 A 
ATOM     24  C   UNL     1      -9.270   5.885  -0.610  0.00  0.00    +0.025 A 
BRANCH  22  25
ATOM     25  S   UNL     1     -12.244   4.509  -2.933  0.00  0.00    +0.059 S 
ATOM     26  O   UNL     1     -12.460   3.122  -3.149  0.00  0.00    -0.153 OA
ATOM     27  O   UNL     1     -13.180   5.327  -2.244  0.00  0.00    -0.153 OA
BRANCH  25  28
ATOM     28  N   UNL     1     -12.026   5.193  -4.425  0.00  0.00    -0.187 NA
ATOM     29  H   UNL     1     -12.460   6.182  -4.632  0.00  0.00    +0.148 HD
BRANCH  28  30
ATOM     30  C   UNL     1     -11.088   4.591  -5.376  0.00  0.00    +0.077 C 
ATOM     31  C   UNL     1      -9.730   5.286  -5.263  0.00  0.00    +0.020 C 
ATOM     32  C   UNL     1      -8.751   4.657  -6.256  0.00  0.00    +0.002 C 
ATOM     33  C   UNL     1      -9.291   4.822  -7.678  0.00  0.00    +0.000 C 
ATOM     34  C   UNL     1     -10.649   4.127  -7.792  0.00  0.00    +0.002 C 
ATOM     35  C   UNL     1     -11.628   4.755  -6.798  0.00  0.00    +0.020 C 
ENDBRANCH  28  30
ENDBRANCH  25  28
ENDBRANCH  22  25
ENDBRANCH   3  19
TORSDOF 6
