REMARK  Name = ZINC20464134
REMARK  8 active torsions:
REMARK  status: ('A' for Active; 'I' for Inactive)
REMARK    1  A    between atoms: C_1  and  N_2
REMARK    2  A    between atoms: C_4  and  N_25
REMARK    3  A    between atoms: C_7  and  C_9
REMARK    4  A    between atoms: C_11  and  C_14
REMARK    5  A    between atoms: C_17  and  O_20
REMARK    6  A    between atoms: O_20  and  C_21
REMARK    7  A    between atoms: N_25  and  S_26
REMARK    8  A    between atoms: S_26  and  C_29
REMARK                            x       y       z     vdW  Elec       q    Type
REMARK                         _______ _______ _______ _____ _____    ______ ____
ROOT
ATOM      1  C   UNL     1      -0.013   1.086   0.008  0.00  0.00    -0.095 C 
ATOM      2  N   UNL     1      -0.700   1.560   1.217  0.00  0.00    +0.387 N 
ATOM      3  C   UNL     1      -0.644   3.041   1.315  0.00  0.00    -0.058 C 
ATOM      4  C   UNL     1      -0.892   3.341   2.809  0.00  0.00    +0.059 C 
ATOM      5  C   UNL     1      -0.474   2.055   3.551  0.00  0.00    +0.012 C 
ATOM      6  C   UNL     1      -0.009   1.086   2.443  0.00  0.00    +0.023 C 
ATOM      7  H   UNL     1      -1.728   1.177   1.133  0.00  0.00    -0.081 HD
ENDROOT
BRANCH   6   8
ATOM      8  C   UNL     1      -0.425  -0.325   2.770  0.00  0.00    +0.214 A 
ATOM      9  N   UNL     1       0.363  -1.302   3.143  0.00  0.00    -0.193 NA
ATOM     10  C   UNL     1      -0.445  -2.371   3.325  0.00  0.00    +0.202 A 
ATOM     11  N   UNL     1      -1.665  -1.984   3.053  0.00  0.00    -0.056 NA
ATOM     12  O   UNL     1      -1.669  -0.813   2.738  0.00  0.00    -0.339 OA
BRANCH  10  13
ATOM     13  C   UNL     1      -0.027  -3.729   3.751  0.00  0.00    +0.023 A 
ATOM     14  C   UNL     1       1.317  -3.999   4.002  0.00  0.00    +0.015 A 
ATOM     15  C   UNL     1       1.703  -5.261   4.403  0.00  0.00    +0.046 A 
ATOM     16  C   UNL     1       0.754  -6.265   4.547  0.00  0.00    +0.130 A 
ATOM     17  C   UNL     1      -0.585  -6.000   4.293  0.00  0.00    +0.046 A 
ATOM     18  C   UNL     1      -0.977  -4.739   3.897  0.00  0.00    +0.015 A 
BRANCH  16  19
ATOM     19  O   UNL     1       1.137  -7.508   4.938  0.00  0.00    -0.406 OA
BRANCH  19  20
ATOM     20  C   UNL     1       2.531  -7.710   5.183  0.00  0.00    +0.575 C 
ATOM     21  F   UNL     1       2.956  -6.849   6.200  0.00  0.00    -0.133 F 
ATOM     22  F   UNL     1       2.748  -9.036   5.574  0.00  0.00    -0.133 F 
ATOM     23  F   UNL     1       3.253  -7.445   4.015  0.00  0.00    -0.133 F 
ENDBRANCH  19  20
ENDBRANCH  16  19
ENDBRANCH  10  13
ENDBRANCH   6   8
BRANCH   4  24
ATOM     24  N   UNL     1      -2.309   3.627   3.045  0.00  0.00    -0.189 NA
ATOM     25  H   UNL     1      -3.052   2.818   2.977  0.00  0.00    +0.148 HD
BRANCH  24  26
ATOM     26  S   UNL     1      -2.829   5.194   3.167  0.00  0.00    +0.059 S 
ATOM     27  O   UNL     1      -4.235   5.141   3.365  0.00  0.00    -0.153 OA
ATOM     28  O   UNL     1      -1.955   5.842   4.080  0.00  0.00    -0.153 OA
BRANCH  26  29
ATOM     29  C   UNL     1      -2.570   5.952   1.597  0.00  0.00    +0.105 A 
ATOM     30  C   UNL     1      -1.374   6.592   1.328  0.00  0.00    +0.030 A 
ATOM     31  C   UNL     1      -1.168   7.182   0.095  0.00  0.00    +0.022 A 
ATOM     32  C   UNL     1      -2.163   7.143  -0.865  0.00  0.00    +0.041 A 
ATOM     33  C   UNL     1      -3.362   6.508  -0.593  0.00  0.00    +0.022 A 
ATOM     34  C   UNL     1      -3.564   5.913   0.638  0.00  0.00    +0.030 A 
ATOM     35 CL   UNL     1      -1.908   7.890  -2.411  0.00  0.00    -0.084 Cl
ENDBRANCH  26  29
ENDBRANCH  24  26
ENDBRANCH   4  24
TORSDOF 7
