REMARK  Name = ZINC63376149
REMARK  7 active torsions:
REMARK  status: ('A' for Active; 'I' for Inactive)
REMARK    1  A    between atoms: C_1  and  C_2
REMARK    2  A    between atoms: C_2  and  C_3
REMARK    3  A    between atoms: C_3  and  C_5
REMARK    4  A    between atoms: C_3  and  N_6
REMARK    5  A    between atoms: C_11  and  C_29
REMARK    6  A    between atoms: C_21  and  C_28
REMARK    7  A    between atoms: C_29  and  C_30
REMARK                            x       y       z     vdW  Elec       q    Type
REMARK                         _______ _______ _______ _____ _____    ______ ____
ROOT
ATOM      1  N   UNL     1      -1.934  -0.102  -1.173  0.00  0.00    -0.239 N 
ATOM      2  C   UNL     1      -1.560  -0.550  -2.377  0.00  0.00    +0.227 C 
ATOM      3  O   UNL     1      -0.710  -1.390  -2.579  0.00  0.00    -0.275 OA
ATOM      4  C   UNL     1      -2.363   0.155  -3.447  0.00  0.00    +0.107 C 
ATOM      5  C   UNL     1      -1.427   1.083  -4.251  0.00  0.00    +0.072 C 
ATOM      6  N   UNL     1      -2.166   2.369  -4.358  0.00  0.00    -0.295 NA
ATOM      7  C   UNL     1      -2.818   2.521  -3.044  0.00  0.00    +0.136 C 
ATOM      8  C   UNL     1      -3.288   1.103  -2.634  0.00  0.00    +0.122 C 
ATOM      9  C   UNL     1      -2.899   0.824  -1.200  0.00  0.00    +0.228 C 
ATOM     10  O   UNL     1      -3.385   1.357  -0.226  0.00  0.00    -0.275 OA
ATOM     11  C   UNL     1      -3.972   3.481  -3.111  0.00  0.00    +0.004 A 
ATOM     12  C   UNL     1      -5.141   3.508  -3.838  0.00  0.00    +0.011 A 
ATOM     13  C   UNL     1      -6.032   4.555  -3.678  0.00  0.00    -0.050 A 
ATOM     14  C   UNL     1      -5.745   5.572  -2.786  0.00  0.00    +0.005 A 
ATOM     15  C   UNL     1      -4.576   5.548  -2.054  0.00  0.00    +0.024 A 
ATOM     16  C   UNL     1      -3.674   4.498  -2.210  0.00  0.00    +0.039 A 
ATOM     17  N   UNL     1      -2.445   4.253  -1.593  0.00  0.00    -0.283 N 
ATOM     18  C   UNL     1      -1.877   3.111  -2.029  0.00  0.00    +0.243 C 
ATOM     19  O   UNL     1      -0.815   2.648  -1.672  0.00  0.00    -0.273 OA
ATOM     20  C   UNL     1      -7.311   4.587  -4.474  0.00  0.00    +0.044 C 
ATOM     21  H   UNL     1      -1.534   3.135  -4.539  0.00  0.00    +0.124 HD
ATOM     22  H   UNL     1      -2.046   4.836  -0.929  0.00  0.00    +0.155 HD
ENDROOT
BRANCH   1  23
ATOM     23  C   UNL     1      -1.339  -0.591   0.074  0.00  0.00    +0.081 C 
ATOM     24  C   UNL     1      -0.711   0.580   0.832  0.00  0.00    +0.028 C 
BRANCH  23  26
ATOM     25  C   UNL     1      -2.958  -2.487   0.240  0.00  0.00    +0.006 C 
ATOM     26  C   UNL     1      -2.425  -1.235   0.939  0.00  0.00    +0.019 C 
ENDBRANCH  23  26
ENDBRANCH   1  23
BRANCH   5  27
ATOM     27  C   UNL     1      -1.166   0.500  -5.641  0.00  0.00    +0.052 C 
BRANCH  27  28
ATOM     28  C   UNL     1      -0.156   1.355  -6.363  0.00  0.00    -0.040 C 
ATOM     29  C   UNL     1       1.180   1.155  -6.430  0.00  0.00    -0.001 A 
ATOM     30  C   UNL     1       2.059   0.122  -5.870  0.00  0.00    +0.010 A 
ATOM     31  C   UNL     1       3.388   0.190  -6.114  0.00  0.00    +0.001 A 
ATOM     32  C   UNL     1       3.945   1.220  -6.884  0.00  0.00    +0.002 A 
ATOM     33  C   UNL     1       3.201   2.205  -7.431  0.00  0.00    +0.026 A 
ATOM     34  C   UNL     1       1.792   2.232  -7.240  0.00  0.00    +0.043 A 
ATOM     35  N   UNL     1       0.870   3.065  -7.659  0.00  0.00    -0.380 N 
ATOM     36  C   UNL     1      -0.433   2.607  -7.165  0.00  0.00    +0.144 C 
ATOM     37  H   UNL     1       1.024   3.851  -8.206  0.00  0.00    +0.160 HD
ENDBRANCH  27  28
ENDBRANCH   5  27
TORSDOF 4
