REMARK  Name = ZINC13566989
REMARK  6 active torsions:
REMARK  status: ('A' for Active; 'I' for Inactive)
REMARK    1  A    between atoms: C_1  and  C_2
REMARK    2  A    between atoms: C_2  and  C_4
REMARK    3  A    between atoms: C_2  and  S_18
REMARK    4  A    between atoms: C_4  and  C_6
REMARK    5  A    between atoms: C_9  and  N_12
REMARK    6  A    between atoms: S_18  and  C_19
REMARK                            x       y       z     vdW  Elec       q    Type
REMARK                         _______ _______ _______ _____ _____    ______ ____
ROOT
ATOM      1  C   UNL     1       2.221   0.013  -1.234  0.00  0.00    +0.194 C 
ATOM      2  N   UNL     1       2.643   0.825  -0.270  0.00  0.00    -0.221 NA
ATOM      3  C   UNL     1       3.923   1.177  -0.165  0.00  0.00    +0.097 C 
ATOM      4  C   UNL     1       4.369   2.067   0.905  0.00  0.00    +0.003 C 
ATOM      5  C   UNL     1       3.441   2.898   1.562  0.00  0.00    +0.014 C 
ATOM      6  C   UNL     1       3.855   3.725   2.557  0.00  0.00    +0.051 C 
ATOM      7  C   UNL     1       5.213   3.751   2.931  0.00  0.00    +0.179 C 
ATOM      8  O   UNL     1       5.586   4.497   3.828  0.00  0.00    -0.288 OA
ATOM      9  C   UNL     1       6.140   2.920   2.275  0.00  0.00    +0.051 C 
ATOM     10  C   UNL     1       5.725   2.089   1.283  0.00  0.00    +0.014 C 
ATOM     11  C   UNL     1       4.889   0.640  -1.163  0.00  0.00    +0.079 C 
ATOM     12  C   UNL     1       6.145   1.229  -1.385  0.00  0.00    -0.000 C 
ATOM     13  C   UNL     1       7.182   0.478  -1.985  0.00  0.00    +0.013 C 
ATOM     14  C   UNL     1       8.394   1.047  -2.198  0.00  0.00    +0.051 C 
ATOM     15  C   UNL     1       8.620   2.388  -1.822  0.00  0.00    +0.179 C 
ATOM     16  O   UNL     1       9.714   2.901  -2.014  0.00  0.00    -0.288 OA
ATOM     17  C   UNL     1       7.585   3.139  -1.223  0.00  0.00    +0.051 C 
ATOM     18  C   UNL     1       6.371   2.575  -1.014  0.00  0.00    +0.013 C 
ATOM     19  N   UNL     1       4.464  -0.474  -1.853  0.00  0.00    -0.242 N 
ATOM     20  N   UNL     1       3.087  -0.478  -2.171  0.00  0.00    -0.124 NA
ATOM     21  H   UNL     1       5.061  -1.198  -2.099  0.00  0.00    +0.172 HD
ENDROOT
BRANCH   1  22
ATOM     22  S   UNL     1       0.619  -0.417  -1.298  0.00  0.00    -0.076 S 
BRANCH  22  24
ATOM     23  C   UNL     1      -0.036   1.964  -0.121  0.00  0.00    +0.028 C 
ATOM     24  C   UNL     1      -0.125   0.454   0.109  0.00  0.00    +0.122 C 
BRANCH  24  25
ATOM     25  C   UNL     1      -1.571   0.050   0.242  0.00  0.00    +0.176 C 
ATOM     26  O   UNL     1      -2.180  -0.354  -0.726  0.00  0.00    -0.291 OA
BRANCH  25  27
ATOM     27  C   UNL     1      -2.243   0.146   1.544  0.00  0.00    +0.019 A 
ATOM     28  C   UNL     1      -1.544   0.618   2.663  0.00  0.00    +0.013 A 
ATOM     29  C   UNL     1      -2.176   0.706   3.876  0.00  0.00    +0.024 A 
ATOM     30  C   UNL     1      -3.510   0.328   3.998  0.00  0.00    +0.036 A 
ATOM     31  C   UNL     1      -4.209  -0.142   2.889  0.00  0.00    +0.024 A 
ATOM     32  C   UNL     1      -3.587  -0.228   1.671  0.00  0.00    +0.013 A 
BRANCH  30  33
ATOM     33  N   UNL     1      -4.148   0.419   5.233  0.00  0.00    -0.271 N 
ATOM     34  C   UNL     1      -5.576   0.157   5.449  0.00  0.00    +0.114 C 
ATOM     35  C   UNL     1      -5.731  -0.049   6.972  0.00  0.00    +0.029 C 
ATOM     36  C   UNL     1      -4.526   0.748   7.523  0.00  0.00    +0.098 C 
ATOM     37  C   UNL     1      -3.534   0.753   6.381  0.00  0.00    +0.220 C 
ATOM     38  O   UNL     1      -2.356   1.021   6.486  0.00  0.00    -0.275 OA
ENDBRANCH  30  33
ENDBRANCH  25  27
ENDBRANCH  24  25
ENDBRANCH  22  24
ENDBRANCH   1  22
TORSDOF 5
