REMARK  Name = ZINC49560642
REMARK  7 active torsions:
REMARK  status: ('A' for Active; 'I' for Inactive)
REMARK    1  A    between atoms: C_1  and  C_2
REMARK    2  A    between atoms: C_5  and  C_8
REMARK    3  A    between atoms: C_8  and  C_10
REMARK    4  A    between atoms: C_8  and  N_11
REMARK    5  A    between atoms: N_11  and  S_12
REMARK    6  A    between atoms: S_12  and  C_15
REMARK    7  A    between atoms: N_21  and  N_22
REMARK                            x       y       z     vdW  Elec       q    Type
REMARK                         _______ _______ _______ _____ _____    ______ ____
ROOT
ATOM      1  S   UNL     1       1.856  -6.129   0.786  0.00  0.00    +0.059 S 
ATOM      2  O   UNL     1       2.636  -6.317   1.959  0.00  0.00    -0.153 OA
ATOM      3  O   UNL     1       0.960  -7.119   0.299  0.00  0.00    -0.153 OA
ENDROOT
BRANCH   1   4
ATOM      4  C   UNL     1       2.987  -5.787  -0.521  0.00  0.00    +0.110 A 
ATOM      5  C   UNL     1       2.637  -6.027  -1.844  0.00  0.00    +0.048 A 
ATOM      6  C   UNL     1       3.546  -5.748  -2.845  0.00  0.00    +0.115 A 
ATOM      7  N   UNL     1       4.737  -5.257  -2.560  0.00  0.00    -0.239 NA
ATOM      8  C   UNL     1       5.107  -5.014  -1.313  0.00  0.00    +0.134 A 
ATOM      9  C   UNL     1       4.240  -5.267  -0.254  0.00  0.00    +0.073 A 
ATOM     10  N   UNL     1       6.372  -4.496  -1.058  0.00  0.00    -0.267 N 
ATOM     11  H   UNL     1       6.648  -4.316  -0.146  0.00  0.00    +0.167 HD
BRANCH  10  12
ATOM     12  N   UNL     1       7.226  -4.241  -2.093  0.00  0.00    -0.255 NA
ATOM     13  H   UNL     1       8.102  -3.870  -1.756  0.00  0.00    +0.140 HD
ATOM     14  H   UNL     1       7.375  -5.068  -2.651  0.00  0.00    +0.140 HD
ENDBRANCH  10  12
ENDBRANCH   1   4
BRANCH   1  15
ATOM     15  N   UNL     1       0.959  -4.758   1.029  0.00  0.00    -0.183 NA
ATOM     16  H   UNL     1       1.030  -4.274   1.867  0.00  0.00    +0.149 HD
BRANCH  15  17
ATOM     17  C   UNL     1       0.059  -4.275  -0.021  0.00  0.00    +0.103 C 
ATOM     18  C   UNL     1      -1.353  -4.805   0.234  0.00  0.00    +0.031 C 
BRANCH  17  23
ATOM     19  C   UNL     1      -0.018   1.503   0.010  0.00  0.00    +0.044 C 
ATOM     20  C   UNL     1       0.002  -0.004   0.002  0.00  0.00    -0.050 A 
ATOM     21  C   UNL     1       0.006  -0.689  -1.199  0.00  0.00    +0.003 A 
ATOM     22  C   UNL     1       0.025  -2.071  -1.206  0.00  0.00    +0.005 A 
ATOM     23  C   UNL     1       0.040  -2.768  -0.013  0.00  0.00    -0.029 A 
ATOM     24  C   UNL     1       0.037  -2.084   1.188  0.00  0.00    +0.005 A 
ATOM     25  C   UNL     1       0.023  -0.702   1.195  0.00  0.00    +0.003 A 
ENDBRANCH  17  23
ENDBRANCH  15  17
ENDBRANCH   1  15
TORSDOF 5
