REMARK  Name = ZINC56494251
REMARK  5 active torsions:
REMARK  status: ('A' for Active; 'I' for Inactive)
REMARK    1  A    between atoms: C_5  and  C_6
REMARK    2  A    between atoms: C_8  and  C_11
REMARK    3  A    between atoms: C_11  and  N_12
REMARK    4  A    between atoms: C_15  and  C_18
REMARK    5  A    between atoms: C_18  and  C_19
REMARK                            x       y       z     vdW  Elec       q    Type
REMARK                         _______ _______ _______ _____ _____    ______ ____
ROOT
ATOM      1  N   UNL     1      -2.615  -4.785   1.398  0.00  0.00    +0.386 N 
ATOM      2  C   UNL     1      -1.305  -4.649   2.046  0.00  0.00    -0.078 C 
ATOM      3  C   UNL     1      -1.411  -5.074   3.512  0.00  0.00    -0.015 C 
ATOM      4  C   UNL     1      -1.868  -6.534   3.583  0.00  0.00    -0.006 C 
ATOM      5  C   UNL     1      -3.199  -6.678   2.839  0.00  0.00    -0.015 C 
ATOM      6  C   UNL     1      -3.027  -6.193   1.398  0.00  0.00    -0.078 C 
ATOM      7  H   UNL     1      -3.296  -4.236   1.901  0.00  0.00    -0.081 HD
ENDROOT
BRANCH   1   8
ATOM      8  C   UNL     1      -2.527  -4.302   0.013  0.00  0.00    +0.022 C 
BRANCH   8  11
ATOM      9  C   UNL     1      -1.132  -0.950   0.009  0.00  0.00    +0.209 A 
ATOM     10  N   UNL     1      -1.036  -2.294   0.006  0.00  0.00    -0.192 NA
ATOM     11  C   UNL     1      -2.224  -2.826   0.013  0.00  0.00    +0.211 A 
ATOM     12  O   UNL     1      -3.132  -1.841   0.022  0.00  0.00    -0.340 OA
ATOM     13  N   UNL     1      -2.404  -0.623   0.024  0.00  0.00    -0.056 NA
BRANCH   9  18
ATOM     14  C   UNL     1      -0.017   1.366   0.010  0.00  0.00    +0.034 A 
ATOM     15  C   UNL     1       1.181   2.044   0.002  0.00  0.00    +0.026 A 
ATOM     16  C   UNL     1       2.342   1.337  -0.013  0.00  0.00    +0.061 A 
ATOM     17  S   UNL     1       1.754  -0.348  -0.017  0.00  0.00    -0.092 S 
ATOM     18  C   UNL     1       0.002  -0.004   0.002  0.00  0.00    +0.061 A 
ATOM     19 BR   UNL     1       1.212   3.935   0.011  0.00  0.00    -0.050 Br
ENDBRANCH   9  18
ENDBRANCH   8  11
ENDBRANCH   1   8
BRANCH   4  20
ATOM     20  C   UNL     1      -2.053  -6.941   5.046  0.00  0.00    +0.099 C 
BRANCH  20  21
ATOM     21  C   UNL     1      -2.383  -8.410   5.120  0.00  0.00    +0.211 C 
ATOM     22  O   UNL     1      -2.463  -9.066   4.103  0.00  0.00    -0.276 OA
ATOM     23  N   UNL     1      -2.589  -8.995   6.317  0.00  0.00    -0.329 N 
ATOM     24  H   UNL     1      -2.525  -8.470   7.130  0.00  0.00    +0.145 HD
ATOM     25  H   UNL     1      -2.802  -9.940   6.365  0.00  0.00    +0.145 HD
ENDBRANCH  20  21
ENDBRANCH   4  20
TORSDOF 5
