REMARK  Name = ZINC67322466
REMARK  7 active torsions:
REMARK  status: ('A' for Active; 'I' for Inactive)
REMARK    1  A    between atoms: C_1  and  C_2
REMARK    2  A    between atoms: C_5  and  N_9
REMARK    3  A    between atoms: C_10  and  C_12
REMARK    4  A    between atoms: C_13  and  C_28
REMARK    5  A    between atoms: N_14  and  C_17
REMARK    6  A    between atoms: C_17  and  C_18
REMARK    7  A    between atoms: N_20  and  C_21
REMARK                            x       y       z     vdW  Elec       q    Type
REMARK                         _______ _______ _______ _____ _____    ______ ____
ROOT
ATOM      1  C   UNL     1      -0.138  -6.280  -1.252  0.00  0.00    +0.170 A 
ATOM      2  C   UNL     1      -0.248  -7.093  -2.344  0.00  0.00    +0.069 A 
ATOM      3  N   UNL     1      -0.286  -8.360  -1.884  0.00  0.00    -0.239 N 
ATOM      4  N   UNL     1      -0.196  -8.288  -0.487  0.00  0.00    -0.064 NA
ATOM      5  N   UNL     1      -0.105  -7.048  -0.150  0.00  0.00    -0.125 NA
ATOM      6  C   UNL     1      -0.315  -6.658  -3.785  0.00  0.00    +0.068 C 
ENDROOT
BRANCH   1   8
ATOM      7  N   UNL     1       0.050  -4.117  -0.125  0.00  0.00    -0.279 N 
ATOM      8  C   UNL     1      -0.063  -4.807  -1.278  0.00  0.00    +0.270 C 
ATOM      9  O   UNL     1      -0.103  -4.215  -2.339  0.00  0.00    -0.268 OA
ATOM     10  H   UNL     1       0.149  -4.591   0.715  0.00  0.00    +0.155 HD
BRANCH   7  15
ATOM     11  C   UNL     1      -0.059   1.555  -0.193  0.00  0.00    +0.044 C 
ATOM     12  C   UNL     1      -0.030   0.048  -0.175  0.00  0.00    -0.049 A 
ATOM     13  C   UNL     1       0.557  -0.643  -1.218  0.00  0.00    +0.005 A 
ATOM     14  C   UNL     1       0.586  -2.024  -1.205  0.00  0.00    +0.025 A 
ATOM     15  C   UNL     1       0.023  -2.719  -0.142  0.00  0.00    +0.048 A 
ATOM     16  C   UNL     1      -0.566  -2.021   0.906  0.00  0.00    +0.039 A 
ATOM     17  C   UNL     1      -0.587  -0.639   0.888  0.00  0.00    +0.020 A 
ATOM     18 BR   UNL     1      -1.334  -2.961   2.356  0.00  0.00    -0.048 Br
ENDBRANCH   7  15
ENDBRANCH   1   8
BRANCH   3  19
ATOM     19  C   UNL     1      -0.399  -9.578  -2.690  0.00  0.00    +0.241 C 
BRANCH  19  20
ATOM     20  C   UNL     1       0.978 -10.070  -3.054  0.00  0.00    +0.239 C 
ATOM     21  O   UNL     1       1.958  -9.462  -2.677  0.00  0.00    -0.273 OA
ATOM     22  N   UNL     1       1.121 -11.184  -3.798  0.00  0.00    -0.284 N 
ATOM     23  H   UNL     1       0.340 -11.623  -4.170  0.00  0.00    +0.155 HD
BRANCH  22  24
ATOM     24  C   UNL     1       2.397 -11.710  -4.034  0.00  0.00    +0.034 A 
ATOM     25  C   UNL     1       2.638 -12.468  -5.172  0.00  0.00    +0.025 A 
ATOM     26  C   UNL     1       3.897 -12.985  -5.402  0.00  0.00    +0.022 A 
ATOM     27  C   UNL     1       4.920 -12.748  -4.500  0.00  0.00    +0.041 A 
ATOM     28  C   UNL     1       4.682 -11.993  -3.365  0.00  0.00    +0.022 A 
ATOM     29  C   UNL     1       3.426 -11.468  -3.133  0.00  0.00    +0.025 A 
ATOM     30 CL   UNL     1       6.502 -13.400  -4.792  0.00  0.00    -0.084 Cl
ENDBRANCH  22  24
ENDBRANCH  19  20
ENDBRANCH   3  19
TORSDOF 5
