REMARK  Name = ZINC12429020
REMARK  6 active torsions:
REMARK  status: ('A' for Active; 'I' for Inactive)
REMARK    1  A    between atoms: C_3  and  N_16
REMARK    2  A    between atoms: C_6  and  C_7
REMARK    3  A    between atoms: N_9  and  C_10
REMARK    4  A    between atoms: C_17  and  C_19
REMARK    5  A    between atoms: N_24  and  S_25
REMARK    6  A    between atoms: S_25  and  C_28
REMARK                            x       y       z     vdW  Elec       q    Type
REMARK                         _______ _______ _______ _____ _____    ______ ____
ROOT
ATOM      1  N   UNL     1       1.211   2.087  -1.049  0.00  0.00    -0.284 N 
ATOM      2  C   UNL     1       0.098   1.327  -1.067  0.00  0.00    +0.236 C 
ATOM      3  O   UNL     1       0.189   0.119  -1.123  0.00  0.00    -0.274 OA
ATOM      4  H   UNL     1       1.139   3.054  -1.076  0.00  0.00    +0.155 HD
ENDROOT
BRANCH   1   7
ATOM      5  C   UNL     1       4.793   1.483  -1.573  0.00  0.00    +0.015 A 
ATOM      6  C   UNL     1       3.553   2.077  -1.627  0.00  0.00    +0.024 A 
ATOM      7  C   UNL     1       2.467   1.483  -0.992  0.00  0.00    +0.033 A 
ATOM      8  C   UNL     1       2.632   0.289  -0.296  0.00  0.00    +0.024 A 
ATOM      9  C   UNL     1       3.869  -0.313  -0.242  0.00  0.00    +0.015 A 
ATOM     10  C   UNL     1       4.961   0.282  -0.879  0.00  0.00    +0.037 A 
BRANCH  10  11
ATOM     11  C   UNL     1       6.290  -0.358  -0.818  0.00  0.00    +0.244 C 
ATOM     12  O   UNL     1       7.240   0.161  -1.372  0.00  0.00    -0.270 OA
ATOM     13  N   UNL     1       6.451  -1.516  -0.149  0.00  0.00    -0.308 N 
ATOM     14  H   UNL     1       5.693  -1.930   0.293  0.00  0.00    +0.149 HD
BRANCH  13  15
ATOM     15  C   UNL     1       7.770  -2.151  -0.088  0.00  0.00    +0.073 C 
ATOM     16  C   UNL     1       7.979  -3.012  -1.335  0.00  0.00    +0.022 C 
ATOM     17  C   UNL     1       9.356  -3.675  -1.272  0.00  0.00    +0.002 C 
ATOM     18  C   UNL     1       9.442  -4.555  -0.024  0.00  0.00    +0.000 C 
ATOM     19  C   UNL     1       9.233  -3.694   1.223  0.00  0.00    +0.002 C 
ATOM     20  C   UNL     1       7.856  -3.031   1.160  0.00  0.00    +0.022 C 
ENDBRANCH  13  15
ENDBRANCH  10  11
ENDBRANCH   1   7
BRANCH   2  21
ATOM     21  C   UNL     1      -1.260   1.980  -1.024  0.00  0.00    +0.166 C 
ATOM     22  C   UNL     1      -1.714   2.150   0.442  0.00  0.00    +0.031 C 
ATOM     23  C   UNL     1      -3.234   1.838   0.370  0.00  0.00    +0.019 C 
ATOM     24  C   UNL     1      -3.276   0.730  -0.711  0.00  0.00    +0.110 C 
ATOM     25  N   UNL     1      -2.248   1.121  -1.693  0.00  0.00    -0.165 NA
BRANCH  25  26
ATOM     26  S   UNL     1      -2.213   0.669  -3.286  0.00  0.00    +0.062 S 
ATOM     27  O   UNL     1      -0.871   0.832  -3.724  0.00  0.00    -0.153 OA
ATOM     28  O   UNL     1      -2.897  -0.573  -3.370  0.00  0.00    -0.153 OA
BRANCH  26  29
ATOM     29  C   UNL     1      -3.180   1.839  -4.181  0.00  0.00    +0.106 A 
ATOM     30  C   UNL     1      -4.542   1.646  -4.320  0.00  0.00    +0.031 A 
ATOM     31  C   UNL     1      -5.303   2.565  -5.018  0.00  0.00    +0.040 A 
ATOM     32  C   UNL     1      -4.698   3.674  -5.587  0.00  0.00    +0.124 A 
ATOM     33  C   UNL     1      -3.333   3.863  -5.451  0.00  0.00    +0.040 A 
ATOM     34  C   UNL     1      -2.576   2.945  -4.748  0.00  0.00    +0.031 A 
ATOM     35  F   UNL     1      -5.440   4.570  -6.273  0.00  0.00    -0.205 F 
ENDBRANCH  26  29
ENDBRANCH  25  26
ENDBRANCH   2  21
TORSDOF 6
