REMARK  Name = ZINC62061085
REMARK  6 active torsions:
REMARK  status: ('A' for Active; 'I' for Inactive)
REMARK    1  A    between atoms: C_1  and  C_2
REMARK    2  A    between atoms: C_7  and  N_8
REMARK    3  A    between atoms: C_9  and  C_11
REMARK    4  A    between atoms: N_13  and  C_14
REMARK    5  A    between atoms: C_14  and  C_15
REMARK    6  A    between atoms: C_24  and  C_27
REMARK                            x       y       z     vdW  Elec       q    Type
REMARK                         _______ _______ _______ _____ _____    ______ ____
ROOT
ATOM      1  C   UNL     1      -0.189   0.044   4.867  0.00  0.00    +0.300 C 
ATOM      2  O   UNL     1      -0.192   1.258   4.872  0.00  0.00    -0.265 OA
ATOM      3  N   UNL     1      -0.267  -0.634   6.029  0.00  0.00    -0.303 N 
ATOM      4  H   UNL     1      -0.264  -1.604   6.025  0.00  0.00    +0.149 HD
ENDROOT
BRANCH   1   6
ATOM      5  N   UNL     1      -0.019  -0.019   2.412  0.00  0.00    -0.278 N 
ATOM      6  C   UNL     1      -0.097  -0.697   3.574  0.00  0.00    +0.303 C 
ATOM      7  O   UNL     1      -0.093  -1.911   3.570  0.00  0.00    -0.265 OA
ATOM      8  H   UNL     1       0.040   0.949   2.419  0.00  0.00    +0.155 HD
BRANCH   5  15
ATOM      9  C   UNL     1      -1.312   1.189   0.185  0.00  0.00    +0.046 C 
ATOM     10  C   UNL     1      -0.643  -0.157   0.084  0.00  0.00    -0.027 A 
ATOM     11  C   UNL     1      -0.641  -0.840  -1.117  0.00  0.00    +0.043 A 
ATOM     12  C   UNL     1      -0.027  -2.078  -1.210  0.00  0.00    +0.124 A 
ATOM     13  C   UNL     1       0.587  -2.634  -0.100  0.00  0.00    +0.040 A 
ATOM     14  C   UNL     1       0.588  -1.955   1.103  0.00  0.00    +0.026 A 
ATOM     15  C   UNL     1      -0.023  -0.710   1.197  0.00  0.00    +0.037 A 
ATOM     16  F   UNL     1      -0.027  -2.744  -2.385  0.00  0.00    -0.205 F 
ENDBRANCH   5  15
ENDBRANCH   1   6
BRANCH   3  17
ATOM     17  C   UNL     1      -0.356   0.093   7.297  0.00  0.00    +0.141 C 
BRANCH  17  18
ATOM     18  C   UNL     1      -0.432  -0.890   8.437  0.00  0.00    -0.014 A 
ATOM     19  C   UNL     1      -1.663  -1.356   8.880  0.00  0.00    +0.010 A 
ATOM     20  C   UNL     1      -1.688  -2.258   9.928  0.00  0.00    +0.042 A 
ATOM     21  C   UNL     1      -0.487  -2.666  10.499  0.00  0.00    +0.099 A 
ATOM     22  N   UNL     1       0.666  -2.199  10.048  0.00  0.00    -0.349 N 
ATOM     23  C   UNL     1       0.721  -1.342   9.045  0.00  0.00    +0.089 A 
ATOM     24  N   UNL     1      -0.498  -3.572  11.554  0.00  0.00    -0.317 N 
ATOM     25  C   UNL     1      -1.752  -4.204  11.985  0.00  0.00    +0.107 C 
ATOM     26  C   UNL     1      -1.929  -3.973  13.489  0.00  0.00    +0.022 C 
ATOM     27  C   UNL     1      -0.686  -4.475  14.227  0.00  0.00    -0.011 C 
ATOM     28  C   UNL     1       0.540  -3.689  13.759  0.00  0.00    +0.022 C 
ATOM     29  C   UNL     1       0.746  -3.920  12.254  0.00  0.00    +0.107 C 
ATOM     30  C   UNL     1      -0.873  -4.279  15.733  0.00  0.00    +0.007 C 
ATOM     31  H   UNL     1       1.492  -2.497  10.461  0.00  0.00    +0.167 HD
ENDBRANCH  17  18
ENDBRANCH   3  17
TORSDOF 4
