REMARK  Name = ZINC39606422
REMARK  9 active torsions:
REMARK  status: ('A' for Active; 'I' for Inactive)
REMARK    1  A    between atoms: C_1  and  C_2
REMARK    2  A    between atoms: C_2  and  C_3
REMARK    3  A    between atoms: C_3  and  C_5
REMARK    4  A    between atoms: C_3  and  C_6
REMARK    5  A    between atoms: C_6  and  N_7
REMARK    6  A    between atoms: C_8  and  C_10
REMARK    7  A    between atoms: C_21  and  C_23
REMARK    8  A    between atoms: C_28  and  S_29
REMARK    9  A    between atoms: S_29  and  C_30
REMARK                            x       y       z     vdW  Elec       q    Type
REMARK                         _______ _______ _______ _____ _____    ______ ____
ROOT
ATOM      1  C   UNL     1      -4.839  -4.580   0.095  0.00  0.00    +0.100 C 
ATOM      2  C   UNL     1      -5.241  -4.032   1.483  0.00  0.00    +0.121 C 
ATOM      3  N   UNL     1      -5.949  -5.157   2.138  0.00  0.00    -0.296 N 
ATOM      4  C   UNL     1      -5.178  -6.359   1.743  0.00  0.00    +0.115 C 
ATOM      5  C   UNL     1      -4.798  -6.107   0.270  0.00  0.00    -0.004 C 
ATOM      6  C   UNL     1      -5.811  -6.773  -0.657  0.00  0.00    -0.010 C 
ATOM      7  C   UNL     1      -5.712  -8.293  -0.506  0.00  0.00    -0.082 C 
ATOM      8  N   UNL     1      -4.351  -8.732  -0.839  0.00  0.00    +0.379 N 
ATOM      9  C   UNL     1      -3.393  -8.161   0.115  0.00  0.00    -0.082 C 
ATOM     10  C   UNL     1      -3.394  -6.635  -0.010  0.00  0.00    -0.010 C 
ATOM     11  C   UNL     1      -7.047  -5.099   2.918  0.00  0.00    +0.249 C 
ATOM     12  O   UNL     1      -7.458  -6.105   3.465  0.00  0.00    -0.270 OA
ATOM     13  H   UNL     1      -4.305  -9.739  -0.798  0.00  0.00    -0.086 HD
ATOM     14  H   UNL     1      -4.119  -8.425  -1.772  0.00  0.00    -0.086 HD
ENDROOT
BRANCH  11  15
ATOM     15  C   UNL     1      -7.750  -3.817   3.108  0.00  0.00    +0.069 A 
ATOM     16  C   UNL     1      -7.035  -2.615   3.172  0.00  0.00    +0.017 A 
ATOM     17  C   UNL     1      -7.741  -1.439   3.351  0.00  0.00    +0.020 A 
ATOM     18  C   UNL     1      -9.120  -1.482   3.461  0.00  0.00    +0.112 A 
ATOM     19  N   UNL     1      -9.776  -2.624   3.399  0.00  0.00    -0.248 NA
ATOM     20  C   UNL     1      -9.150  -3.779   3.223  0.00  0.00    +0.114 A 
BRANCH  20  21
ATOM     21  S   UNL     1     -10.078  -5.274   3.140  0.00  0.00    -0.069 S 
BRANCH  21  22
ATOM     22  C   UNL     1     -11.731  -4.771   3.487  0.00  0.00    +0.014 A 
ATOM     23  C   UNL     1     -12.605  -4.485   2.445  0.00  0.00    +0.015 A 
ATOM     24  C   UNL     1     -13.899  -4.091   2.721  0.00  0.00    +0.001 A 
ATOM     25  C   UNL     1     -14.326  -3.981   4.032  0.00  0.00    +0.000 A 
ATOM     26  C   UNL     1     -13.458  -4.264   5.071  0.00  0.00    +0.001 A 
ATOM     27  C   UNL     1     -12.164  -4.664   4.803  0.00  0.00    +0.015 A 
ENDBRANCH  21  22
ENDBRANCH  20  21
ENDBRANCH  11  15
BRANCH   1  29
ATOM     28  N   UNL     1      -3.173  -3.905  -1.604  0.00  0.00    -0.315 N 
ATOM     29  C   UNL     1      -3.481  -4.061  -0.301  0.00  0.00    +0.218 C 
ATOM     30  O   UNL     1      -2.665  -3.784   0.553  0.00  0.00    -0.275 OA
ATOM     31  H   UNL     1      -3.825  -4.126  -2.286  0.00  0.00    +0.149 HD
BRANCH  28  32
ATOM     32  C   UNL     1      -1.853  -3.400  -1.989  0.00  0.00    +0.107 C 
BRANCH  32  33
ATOM     33  C   UNL     1      -1.763  -3.317  -3.514  0.00  0.00    +0.003 C 
ATOM     34  C   UNL     1      -1.846  -4.726  -4.106  0.00  0.00    +0.009 C 
BRANCH  33  36
ATOM     35  C   UNL     1      -0.396  -2.478  -5.429  0.00  0.00    +0.004 C 
ATOM     36  C   UNL     1      -0.433  -2.675  -3.912  0.00  0.00    +0.001 C 
ENDBRANCH  33  36
ENDBRANCH  32  33
ENDBRANCH  28  32
ENDBRANCH   1  29
TORSDOF 7
