REMARK  Name = ZINC00288072
REMARK  3 active torsions:
REMARK  status: ('A' for Active; 'I' for Inactive)
REMARK    1  A    between atoms: C_3  and  N_10
REMARK    2  A    between atoms: C_6  and  C_7
REMARK    3  A    between atoms: C_11  and  C_13
REMARK                            x       y       z     vdW  Elec       q    Type
REMARK                         _______ _______ _______ _____ _____    ______ ____
ROOT
ATOM      1  N   UNL     1       3.577   2.132  -0.021  0.00  0.00    -0.282 N 
ATOM      2  C   UNL     1       4.753   1.478   0.066  0.00  0.00    +0.248 C 
ATOM      3  O   UNL     1       4.775   0.263   0.060  0.00  0.00    -0.270 OA
ATOM      4  H   UNL     1       3.564   3.099  -0.094  0.00  0.00    +0.155 HD
ENDROOT
BRANCH   2   5
ATOM      5  C   UNL     1       6.014   2.239   0.169  0.00  0.00    +0.041 A 
ATOM      6  C   UNL     1       5.990   3.636   0.182  0.00  0.00    +0.017 A 
ATOM      7  C   UNL     1       7.168   4.344   0.277  0.00  0.00    +0.050 A 
ATOM      8  C   UNL     1       8.381   3.674   0.361  0.00  0.00    +0.166 A 
ATOM      9  C   UNL     1       8.412   2.279   0.349  0.00  0.00    +0.167 A 
ATOM     10  C   UNL     1       7.234   1.563   0.259  0.00  0.00    +0.062 A 
ATOM     11  O   UNL     1       9.711   1.871   0.441  0.00  0.00    -0.453 OA
ATOM     12  C   UNL     1      10.501   3.025   0.098  0.00  0.00    +0.466 C 
ATOM     13  O   UNL     1       9.660   4.136   0.462  0.00  0.00    -0.453 OA
ENDBRANCH   2   5
BRANCH   1  16
ATOM     14  C   UNL     1       1.096  -0.456   0.762  0.00  0.00    +0.015 A 
ATOM     15  C   UNL     1       2.277   0.252   0.746  0.00  0.00    +0.024 A 
ATOM     16  C   UNL     1       2.381   1.417  -0.007  0.00  0.00    +0.034 A 
ATOM     17  C   UNL     1       1.292   1.872  -0.745  0.00  0.00    +0.024 A 
ATOM     18  C   UNL     1       0.109   1.169  -0.733  0.00  0.00    +0.015 A 
ATOM     19  C   UNL     1       0.001  -0.002   0.022  0.00  0.00    +0.037 A 
BRANCH  19  20
ATOM     20  C   UNL     1      -1.266  -0.759   0.037  0.00  0.00    +0.242 C 
ATOM     21  O   UNL     1      -1.358  -1.778   0.694  0.00  0.00    -0.270 OA
ATOM     22  N   UNL     1      -2.321  -0.320  -0.677  0.00  0.00    -0.325 N 
ATOM     23  H   UNL     1      -2.248   0.493  -1.202  0.00  0.00    +0.145 HD
ATOM     24  H   UNL     1      -3.154  -0.817  -0.668  0.00  0.00    +0.145 HD
ENDBRANCH  19  20
ENDBRANCH   1  16
TORSDOF 3
