REMARK  Name = ZINC59198309
REMARK  5 active torsions:
REMARK  status: ('A' for Active; 'I' for Inactive)
REMARK    1  A    between atoms: C_2  and  C_3
REMARK    2  A    between atoms: C_3  and  O_4
REMARK    3  A    between atoms: O_4  and  C_5
REMARK    4  A    between atoms: C_8  and  C_12
REMARK    5  A    between atoms: N_19  and  C_22
REMARK                            x       y       z     vdW  Elec       q    Type
REMARK                         _______ _______ _______ _____ _____    ______ ____
ROOT
ATOM      1  C   UNL     1       5.568  -5.540   0.972  0.00  0.00    +0.026 C 
ATOM      2  C   UNL     1       5.781  -6.239   2.150  0.00  0.00    +0.102 C 
ATOM      3  C   UNL     1       4.792  -6.230   3.239  0.00  0.00    +0.276 C 
ATOM      4  O   UNL     1       3.641  -5.536   3.121  0.00  0.00    -0.268 OA
ATOM      5  N   UNL     1       5.058  -6.918   4.337  0.00  0.00    -0.123 NA
ATOM      6  C   UNL     1       6.184  -7.612   4.481  0.00  0.00    +0.340 C 
ATOM      7  O   UNL     1       6.356  -8.220   5.522  0.00  0.00    -0.250 OA
ATOM      8  N   UNL     1       7.140  -7.678   3.543  0.00  0.00    -0.188 N 
ATOM      9  C   UNL     1       7.008  -7.031   2.365  0.00  0.00    +0.264 C 
ATOM     10  O   UNL     1       7.873  -7.095   1.512  0.00  0.00    -0.269 OA
ENDROOT
BRANCH   1  14
ATOM     11  C   UNL     1       2.453  -2.695   0.739  0.00  0.00    +0.135 A 
ATOM     12  C   UNL     1       3.269  -2.739   1.865  0.00  0.00    +0.047 A 
ATOM     13  C   UNL     1       4.277  -3.656   1.947  0.00  0.00    +0.011 A 
ATOM     14  C   UNL     1       4.490  -4.557   0.891  0.00  0.00    -0.023 A 
ATOM     15  C   UNL     1       3.664  -4.508  -0.243  0.00  0.00    +0.027 A 
ATOM     16  C   UNL     1       2.655  -3.589  -0.310  0.00  0.00    +0.060 A 
ATOM     17 BR   UNL     1       1.536  -3.526  -1.833  0.00  0.00    -0.046 Br
BRANCH  11  18
ATOM     18  O   UNL     1       1.454  -1.781   0.664  0.00  0.00    -0.487 OA
BRANCH  18  19
ATOM     19  C   UNL     1       1.301  -0.894   1.774  0.00  0.00    +0.256 C 
BRANCH  19  21
ATOM     20  C   UNL     1      -0.727   0.281   2.458  0.00  0.00    +0.007 C 
ATOM     21  C   UNL     1       0.149   0.042   1.514  0.00  0.00    +0.006 C 
ENDBRANCH  19  21
ENDBRANCH  18  19
ENDBRANCH  11  18
ENDBRANCH   1  14
BRANCH   8  22
ATOM     22  C   UNL     1       8.293  -8.436   3.788  0.00  0.00    +0.047 A 
ATOM     23  C   UNL     1       9.438  -7.822   4.280  0.00  0.00    +0.024 A 
ATOM     24  C   UNL     1      10.573  -8.571   4.520  0.00  0.00    +0.003 A 
ATOM     25  C   UNL     1      10.571  -9.931   4.270  0.00  0.00    +0.015 A 
ATOM     26  C   UNL     1       9.433 -10.546   3.779  0.00  0.00    +0.020 A 
ATOM     27  C   UNL     1       8.292  -9.802   3.543  0.00  0.00    +0.039 A 
ATOM     28 BR   UNL     1       9.436 -12.406   3.439  0.00  0.00    -0.050 Br
ENDBRANCH   8  22
TORSDOF 5
