REMARK  Name = ZINC08833107
REMARK  7 active torsions:
REMARK  status: ('A' for Active; 'I' for Inactive)
REMARK    1  A    between atoms: C_8  and  C_10
REMARK    2  A    between atoms: N_12  and  C_13
REMARK    3  A    between atoms: C_17  and  N_19
REMARK    4  A    between atoms: N_19  and  C_20
REMARK    5  A    between atoms: C_20  and  N_22
REMARK    6  A    between atoms: C_23  and  C_25
REMARK    7  A    between atoms: C_25  and  C_26
REMARK                            x       y       z     vdW  Elec       q    Type
REMARK                         _______ _______ _______ _____ _____    ______ ____
ROOT
ATOM      1  C   UNL     1      -4.404   1.161  -1.285  0.00  0.00    +0.036 A 
ATOM      2  C   UNL     1      -4.743   0.274  -0.271  0.00  0.00    +0.023 A 
ATOM      3  C   UNL     1      -3.932   0.149   0.840  0.00  0.00    +0.004 A 
ATOM      4  C   UNL     1      -2.779   0.904   0.946  0.00  0.00    +0.023 A 
ATOM      5  C   UNL     1      -2.434   1.793  -0.065  0.00  0.00    +0.034 A 
ATOM      6  C   UNL     1      -3.250   1.925  -1.179  0.00  0.00    +0.046 A 
ENDROOT
BRANCH   1   9
ATOM      7  C   UNL     1      -4.681   1.502  -3.623  0.00  0.00    +0.284 C 
ATOM      8  O   UNL     1      -3.477   1.639  -3.733  0.00  0.00    -0.266 OA
ATOM      9  N   UNL     1      -5.226   1.288  -2.409  0.00  0.00    -0.279 N 
ATOM     10  H   UNL     1      -6.189   1.221  -2.315  0.00  0.00    +0.155 HD
BRANCH   7  18
ATOM     11  C   UNL     1      -7.793   1.860  -8.788  0.00  0.00    +0.001 A 
ATOM     12  C   UNL     1      -8.864   1.638  -7.934  0.00  0.00    +0.004 A 
ATOM     13  C   UNL     1      -8.665   1.482  -6.580  0.00  0.00    +0.047 A 
ATOM     14  C   UNL     1      -7.379   1.546  -6.057  0.00  0.00    +0.136 A 
ATOM     15  C   UNL     1      -6.296   1.770  -6.928  0.00  0.00    +0.021 A 
ATOM     16  C   UNL     1      -6.519   1.926  -8.298  0.00  0.00    +0.011 A 
ATOM     17  C   UNL     1      -5.103   1.781  -6.081  0.00  0.00    +0.063 A 
ATOM     18  C   UNL     1      -5.540   1.571  -4.813  0.00  0.00    +0.191 A 
ATOM     19  O   UNL     1      -6.882   1.428  -4.811  0.00  0.00    -0.450 OA
ENDBRANCH   7  18
ENDBRANCH   1   9
BRANCH   5  20
ATOM     20  N   UNL     1      -1.268   2.557   0.043  0.00  0.00    -0.297 N 
ATOM     21  H   UNL     1      -1.282   3.499  -0.189  0.00  0.00    +0.154 HD
BRANCH  20  22
ATOM     22  C   UNL     1      -0.124   1.985   0.470  0.00  0.00    +0.141 C 
ATOM     23  S   UNL     1      -0.121   0.348   0.971  0.00  0.00    -0.018 S 
BRANCH  22  24
ATOM     24  N   UNL     1       1.018   2.701   0.497  0.00  0.00    -0.268 N 
ATOM     25  C   UNL     1       2.162   2.127   0.919  0.00  0.00    +0.219 C 
ATOM     26  O   UNL     1       2.165   0.968   1.273  0.00  0.00    -0.275 OA
ATOM     27  H   UNL     1       1.016   3.628   0.214  0.00  0.00    +0.156 HD
BRANCH  25  28
ATOM     28  C   UNL     1       3.439   2.927   0.950  0.00  0.00    +0.103 C 
BRANCH  28  29
ATOM     29  C   UNL     1       4.580   2.047   1.464  0.00  0.00    -0.020 C 
ATOM     30  C   UNL     1       4.250   1.558   2.876  0.00  0.00    +0.011 C 
ATOM     31  C   UNL     1       5.391   0.678   3.390  0.00  0.00    -0.010 C 
ATOM     32  C   UNL     1       6.688   1.490   3.421  0.00  0.00    +0.007 C 
ATOM     33  C   UNL     1       7.017   1.979   2.009  0.00  0.00    -0.010 C 
ATOM     34  C   UNL     1       5.876   2.859   1.495  0.00  0.00    +0.011 C 
ATOM     35  C   UNL     1       7.192   0.776   1.081  0.00  0.00    +0.007 C 
ATOM     36  C   UNL     1       5.895  -0.036   1.049  0.00  0.00    -0.010 C 
ATOM     37  C   UNL     1       5.566  -0.525   2.461  0.00  0.00    +0.007 C 
ATOM     38  C   UNL     1       4.754   0.844   0.535  0.00  0.00    +0.011 C 
ENDBRANCH  28  29
ENDBRANCH  25  28
ENDBRANCH  22  24
ENDBRANCH  20  22
ENDBRANCH   5  20
TORSDOF 7
