REMARK  Name = ZINC22828457
REMARK  8 active torsions:
REMARK  status: ('A' for Active; 'I' for Inactive)
REMARK    1  A    between atoms: C_1  and  C_2
REMARK    2  A    between atoms: C_2  and  O_3
REMARK    3  A    between atoms: O_3  and  C_4
REMARK    4  A    between atoms: C_4  and  C_6
REMARK    5  A    between atoms: C_7  and  N_38
REMARK    6  A    between atoms: C_28  and  C_30
REMARK    7  A    between atoms: C_34  and  C_36
REMARK    8  A    between atoms: C_34  and  C_37
REMARK                            x       y       z     vdW  Elec       q    Type
REMARK                         _______ _______ _______ _____ _____    ______ ____
ROOT
ATOM      1  C   UNL     1       1.442  -2.322  -2.459  0.00  0.00    +0.117 C 
ATOM      2  C   UNL     1       1.615  -3.666  -2.567  0.00  0.00    +0.195 C 
ATOM      3  O   UNL     1       2.196  -4.213  -3.643  0.00  0.00    -0.446 OA
ATOM      4  C   UNL     1       2.873  -3.464  -4.532  0.00  0.00    +0.116 C 
ATOM      5  C   UNL     1       2.783  -2.122  -4.540  0.00  0.00    +0.057 C 
ATOM      6  C   UNL     1       1.915  -1.400  -3.542  0.00  0.00    +0.141 C 
ATOM      7  C   UNL     1       0.768  -0.730  -4.224  0.00  0.00    -0.001 A 
ATOM      8  C   UNL     1      -0.311  -1.187  -4.950  0.00  0.00    +0.007 A 
ATOM      9  C   UNL     1      -1.186  -0.227  -5.452  0.00  0.00    +0.001 A 
ATOM     10  C   UNL     1      -0.998   1.131  -5.239  0.00  0.00    +0.006 A 
ATOM     11  C   UNL     1       0.067   1.588  -4.502  0.00  0.00    -0.023 A 
ATOM     12  C   UNL     1       0.951   0.628  -4.002  0.00  0.00    +0.045 A 
ATOM     13  N   UNL     1       2.093   0.892  -3.242  0.00  0.00    -0.263 N 
ATOM     14  C   UNL     1       2.710  -0.255  -2.925  0.00  0.00    +0.240 C 
ATOM     15  O   UNL     1       3.721  -0.395  -2.272  0.00  0.00    -0.274 OA
ATOM     16  C   UNL     1       2.454   2.284  -2.921  0.00  0.00    +0.043 C 
ATOM     17  C   UNL     1       3.306   2.864  -4.043  0.00  0.00    +0.026 C 
ATOM     18  C   UNL     1       4.730   2.313  -3.982  0.00  0.00    +0.002 C 
ATOM     19  C   UNL     1       5.355   2.755  -2.656  0.00  0.00    +0.000 C 
ATOM     20  C   UNL     1       4.594   2.093  -1.510  0.00  0.00    +0.002 C 
ATOM     21  C   UNL     1       3.108   2.391  -1.557  0.00  0.00    +0.026 C 
ATOM     22  C   UNL     1       1.140   3.094  -2.862  0.00  0.00    +0.034 C 
ATOM     23  C   UNL     1       0.373   3.022  -4.185  0.00  0.00    +0.020 C 
ATOM     24  C   UNL     1      -0.928   3.816  -4.053  0.00  0.00    +0.012 C 
ATOM     25  C   UNL     1       3.502  -1.357  -5.479  0.00  0.00    +0.165 C 
ATOM     26  O   UNL     1       3.329  -0.154  -5.525  0.00  0.00    -0.292 OA
ATOM     27  C   UNL     1       4.482  -1.982  -6.432  0.00  0.00    +0.086 C 
ATOM     28  C   UNL     1       4.963  -3.325  -5.880  0.00  0.00    -0.021 C 
ATOM     29  C   UNL     1       3.744  -4.181  -5.536  0.00  0.00    +0.081 C 
ATOM     30  C   UNL     1       5.801  -4.040  -6.946  0.00  0.00    +0.012 C 
ATOM     31  C   UNL     1       5.818  -3.103  -4.631  0.00  0.00    +0.012 C 
ENDROOT
BRANCH   2  32
ATOM     32  N   UNL     1       1.184  -4.479  -1.550  0.00  0.00    -0.329 N 
ATOM     33  H   UNL     1       0.684  -4.104  -0.808  0.00  0.00    +0.145 HD
ATOM     34  H   UNL     1       1.379  -5.429  -1.573  0.00  0.00    +0.145 HD
ENDBRANCH   2  32
BRANCH   1  35
ATOM     35  C   UNL     1       0.817  -1.798  -1.314  0.00  0.00    +0.342 C 
ATOM     36  O   UNL     1      -0.353  -1.463  -1.359  0.00  0.00    -0.245 OA
BRANCH  35  37
ATOM     37  O   UNL     1       1.514  -1.664  -0.165  0.00  0.00    -0.462 OA
BRANCH  37  39
ATOM     38  C   UNL     1       1.762  -1.049   2.159  0.00  0.00    +0.048 C 
ATOM     39  C   UNL     1       0.816  -1.124   0.958  0.00  0.00    +0.229 C 
ENDBRANCH  37  39
ENDBRANCH  35  37
ENDBRANCH   1  35
TORSDOF 4
