REMARK  Name = ZINC12429021
REMARK  6 active torsions:
REMARK  status: ('A' for Active; 'I' for Inactive)
REMARK    1  A    between atoms: C_3  and  N_16
REMARK    2  A    between atoms: C_6  and  C_7
REMARK    3  A    between atoms: N_9  and  C_10
REMARK    4  A    between atoms: C_17  and  C_19
REMARK    5  A    between atoms: N_24  and  S_25
REMARK    6  A    between atoms: S_25  and  C_28
REMARK                            x       y       z     vdW  Elec       q    Type
REMARK                         _______ _______ _______ _____ _____    ______ ____
ROOT
ATOM      1  N   UNL     1      -2.023   1.232   1.442  0.00  0.00    -0.284 N 
ATOM      2  C   UNL     1      -1.168   2.054   0.802  0.00  0.00    +0.236 C 
ATOM      3  O   UNL     1      -0.993   3.183   1.209  0.00  0.00    -0.274 OA
ATOM      4  H   UNL     1      -2.221   0.356   1.074  0.00  0.00    +0.155 HD
ENDROOT
BRANCH   1   7
ATOM      5  C   UNL     1      -4.509   1.623   4.113  0.00  0.00    +0.015 A 
ATOM      6  C   UNL     1      -3.914   1.222   2.938  0.00  0.00    +0.024 A 
ATOM      7  C   UNL     1      -2.623   1.639   2.633  0.00  0.00    +0.033 A 
ATOM      8  C   UNL     1      -1.926   2.458   3.517  0.00  0.00    +0.024 A 
ATOM      9  C   UNL     1      -2.517   2.867   4.691  0.00  0.00    +0.015 A 
ATOM     10  C   UNL     1      -3.814   2.449   5.000  0.00  0.00    +0.037 A 
BRANCH  10  11
ATOM     11  C   UNL     1      -4.449   2.880   6.261  0.00  0.00    +0.244 C 
ATOM     12  O   UNL     1      -5.577   2.516   6.529  0.00  0.00    -0.270 OA
ATOM     13  N   UNL     1      -3.777   3.677   7.116  0.00  0.00    -0.308 N 
ATOM     14  H   UNL     1      -2.877   3.968   6.902  0.00  0.00    +0.149 HD
BRANCH  13  15
ATOM     15  C   UNL     1      -4.407   4.105   8.367  0.00  0.00    +0.073 C 
ATOM     16  C   UNL     1      -5.261   5.348   8.110  0.00  0.00    +0.022 C 
ATOM     17  C   UNL     1      -5.919   5.794   9.417  0.00  0.00    +0.002 C 
ATOM     18  C   UNL     1      -4.836   6.124  10.446  0.00  0.00    +0.000 C 
ATOM     19  C   UNL     1      -3.982   4.881  10.704  0.00  0.00    +0.002 C 
ATOM     20  C   UNL     1      -3.324   4.434   9.397  0.00  0.00    +0.022 C 
ENDBRANCH  13  15
ENDBRANCH  10  11
ENDBRANCH   1   7
BRANCH   2  21
ATOM     21  C   UNL     1      -0.429   1.570  -0.419  0.00  0.00    +0.166 C 
ATOM     22  C   UNL     1      -1.432   1.206  -1.533  0.00  0.00    +0.031 C 
ATOM     23  C   UNL     1      -1.448   2.481  -2.417  0.00  0.00    +0.019 C 
ATOM     24  C   UNL     1       0.029   2.941  -2.326  0.00  0.00    +0.110 C 
ATOM     25  N   UNL     1       0.432   2.643  -0.940  0.00  0.00    -0.165 NA
BRANCH  25  26
ATOM     26  S   UNL     1       1.653   3.390  -0.107  0.00  0.00    +0.062 S 
ATOM     27  O   UNL     1       1.834   4.664  -0.710  0.00  0.00    -0.153 OA
ATOM     28  O   UNL     1       1.356   3.236   1.274  0.00  0.00    -0.153 OA
BRANCH  26  29
ATOM     29  C   UNL     1       3.127   2.475  -0.411  0.00  0.00    +0.106 A 
ATOM     30  C   UNL     1       3.479   1.433   0.426  0.00  0.00    +0.031 A 
ATOM     31  C   UNL     1       4.632   0.711   0.185  0.00  0.00    +0.040 A 
ATOM     32  C   UNL     1       5.442   1.039  -0.889  0.00  0.00    +0.124 A 
ATOM     33  C   UNL     1       5.092   2.086  -1.724  0.00  0.00    +0.040 A 
ATOM     34  C   UNL     1       3.935   2.803  -1.484  0.00  0.00    +0.031 A 
ATOM     35  F   UNL     1       6.573   0.338  -1.121  0.00  0.00    -0.205 F 
ENDBRANCH  26  29
ENDBRANCH  25  26
ENDBRANCH   2  21
TORSDOF 6
