REMARK  Name = ZINC39511810
REMARK  4 active torsions:
REMARK  status: ('A' for Active; 'I' for Inactive)
REMARK    1  A    between atoms: C_4  and  O_21
REMARK    2  A    between atoms: C_5  and  N_7
REMARK    3  A    between atoms: C_11  and  O_20
REMARK    4  A    between atoms: C_16  and  O_19
REMARK                            x       y       z     vdW  Elec       q    Type
REMARK                         _______ _______ _______ _____ _____    ______ ____
ROOT
ATOM      1  N   UNL     1       1.235  -2.080  -0.021  0.00  0.00    -0.319 N 
ATOM      2  C   UNL     1       1.252  -2.837   1.240  0.00  0.00    +0.106 C 
ATOM      3  C   UNL     1       2.414  -3.835   1.196  0.00  0.00    +0.021 C 
ATOM      4  C   UNL     1       2.283  -4.716  -0.049  0.00  0.00    +0.035 C 
ATOM      5  C   UNL     1       2.367  -3.841  -1.304  0.00  0.00    +0.138 C 
ATOM      6  C   UNL     1       1.234  -2.817  -1.282  0.00  0.00    +0.063 C 
ATOM      7  C   UNL     1      -0.127  -3.505  -1.505  0.00  0.00    +0.031 C 
ATOM      8  C   UNL     1      -1.027  -2.385  -2.071  0.00  0.00    +0.033 C 
ATOM      9  C   UNL     1      -0.087  -1.333  -2.687  0.00  0.00    +0.117 C 
ATOM     10  C   UNL     1       1.353  -1.849  -2.475  0.00  0.00    +0.059 C 
ENDROOT
BRANCH   1  15
ATOM     11  C   UNL     1      -0.017   1.378   0.010  0.00  0.00    +0.002 A 
ATOM     12  C   UNL     1       1.169   2.089   0.002  0.00  0.00    +0.004 A 
ATOM     13  C   UNL     1       2.380   1.421  -0.013  0.00  0.00    +0.047 A 
ATOM     14  C   UNL     1       2.407   0.036  -0.021  0.00  0.00    +0.138 A 
ATOM     15  C   UNL     1       1.213  -0.681  -0.013  0.00  0.00    +0.072 A 
ATOM     16  C   UNL     1       0.002  -0.004   0.002  0.00  0.00    +0.027 A 
BRANCH  14  17
ATOM     17  O   UNL     1       3.598  -0.622  -0.036  0.00  0.00    -0.505 OA
ATOM     18  H   UNL     1       3.950  -0.817   0.843  0.00  0.00    +0.292 HD
ENDBRANCH  14  17
ENDBRANCH   1  15
BRANCH   9  19
ATOM     19  O   UNL     1      -0.357  -1.194  -4.083  0.00  0.00    -0.392 OA
ATOM     20  H   UNL     1      -1.254  -0.892  -4.282  0.00  0.00    +0.210 HD
ENDBRANCH   9  19
BRANCH   5  21
ATOM     21  O   UNL     1       3.625  -3.165  -1.331  0.00  0.00    -0.390 OA
ATOM     22  H   UNL     1       4.390  -3.757  -1.345  0.00  0.00    +0.210 HD
ENDBRANCH   5  21
TORSDOF 4
