REMARK  Name = ZINC64426946
REMARK  7 active torsions:
REMARK  status: ('A' for Active; 'I' for Inactive)
REMARK    1  A    between atoms: C_1  and  O_2
REMARK    2  A    between atoms: O_2  and  C_3
REMARK    3  A    between atoms: C_10  and  N_13
REMARK    4  A    between atoms: C_15  and  C_17
REMARK    5  A    between atoms: N_19  and  C_20
REMARK    6  A    between atoms: C_20  and  C_21
REMARK    7  A    between atoms: C_21  and  C_22
REMARK                            x       y       z     vdW  Elec       q    Type
REMARK                         _______ _______ _______ _____ _____    ______ ____
ROOT
ATOM      1  N   UNL     1      -5.398  -4.714  -1.173  0.00  0.00    -0.274 NA
ATOM      2  C   UNL     1      -4.799  -6.021  -1.500  0.00  0.00    +0.101 C 
ATOM      3  C   UNL     1      -4.821  -5.598  -2.976  0.00  0.00    +0.103 C 
ATOM      4  C   UNL     1      -4.764  -4.180  -2.392  0.00  0.00    +0.101 C 
ENDROOT
BRANCH   1  12
ATOM      5  C   UNL     1      -1.201  -0.638   0.010  0.00  0.00    +0.121 A 
ATOM      6  C   UNL     1      -2.382   0.090   0.019  0.00  0.00    +0.047 A 
ATOM      7  C   UNL     1      -3.604  -0.541   0.028  0.00  0.00    +0.027 A 
ATOM      8  C   UNL     1      -3.701  -1.944   0.028  0.00  0.00    +0.043 A 
ATOM      9  C   UNL     1      -2.495  -2.651   0.017  0.00  0.00    +0.035 A 
ATOM     10  C   UNL     1      -1.269  -2.025   0.003  0.00  0.00    +0.062 A 
ATOM     11  S   UNL     1      -2.962  -4.367   0.019  0.00  0.00    -0.085 S 
ATOM     12  C   UNL     1      -4.785  -4.141   0.033  0.00  0.00    +0.207 C 
ATOM     13  N   UNL     1      -4.890  -2.676   0.035  0.00  0.00    -0.319 N 
ATOM     14  H   UNL     1      -5.753  -2.233   0.043  0.00  0.00    +0.148 HD
BRANCH   5  16
ATOM     15  C   UNL     1      -0.017   1.425   0.010  0.00  0.00    +0.277 C 
ATOM     16  O   UNL     1       0.002  -0.004   0.002  0.00  0.00    -0.495 OA
ENDBRANCH   5  16
ENDBRANCH   1  12
BRANCH   3  17
ATOM     17  C   UNL     1      -3.592  -5.997  -3.751  0.00  0.00    +0.219 C 
ATOM     18  O   UNL     1      -2.696  -6.599  -3.198  0.00  0.00    -0.275 OA
ATOM     19  N   UNL     1      -3.488  -5.684  -5.058  0.00  0.00    -0.315 N 
ATOM     20  H   UNL     1      -4.205  -5.203  -5.500  0.00  0.00    +0.149 HD
BRANCH  19  21
ATOM     21  C   UNL     1      -2.292  -6.072  -5.811  0.00  0.00    +0.108 C 
BRANCH  21  22
ATOM     22  C   UNL     1      -2.428  -5.601  -7.260  0.00  0.00    +0.052 C 
BRANCH  22  23
ATOM     23  C   UNL     1      -1.198  -5.999  -8.035  0.00  0.00    -0.040 C 
ATOM     24  C   UNL     1      -1.039  -7.107  -8.795  0.00  0.00    -0.001 A 
ATOM     25  C   UNL     1      -1.929  -8.229  -9.115  0.00  0.00    +0.010 A 
ATOM     26  C   UNL     1      -1.478  -9.214  -9.924  0.00  0.00    +0.001 A 
ATOM     27  C   UNL     1      -0.184  -9.191 -10.462  0.00  0.00    +0.002 A 
ATOM     28  C   UNL     1       0.691  -8.194 -10.214  0.00  0.00    +0.026 A 
ATOM     29  C   UNL     1       0.322  -7.106  -9.376  0.00  0.00    +0.043 A 
ATOM     30  N   UNL     1       0.980  -6.039  -8.991  0.00  0.00    -0.380 N 
ATOM     31  C   UNL     1       0.106  -5.239  -8.124  0.00  0.00    +0.144 C 
ATOM     32  H   UNL     1       1.890  -5.814  -9.239  0.00  0.00    +0.160 HD
ENDBRANCH  22  23
ENDBRANCH  21  22
ENDBRANCH  19  21
ENDBRANCH   3  17
TORSDOF 6
