REMARK  Name = ZINC00718464
REMARK  7 active torsions:
REMARK  status: ('A' for Active; 'I' for Inactive)
REMARK    1  A    between atoms: C_1  and  O_2
REMARK    2  A    between atoms: O_2  and  C_3
REMARK    3  A    between atoms: C_5  and  C_11
REMARK    4  A    between atoms: C_8  and  O_9
REMARK    5  A    between atoms: C_14  and  C_25
REMARK    6  A    between atoms: C_20  and  N_24
REMARK    7  A    between atoms: C_21  and  C_22
REMARK                            x       y       z     vdW  Elec       q    Type
REMARK                         _______ _______ _______ _____ _____    ______ ____
ROOT
ATOM      1  C   UNL     1      -4.942   0.369   0.030  0.00  0.00    +0.102 C 
ATOM      2  C   UNL     1      -5.764  -0.122   1.194  0.00  0.00    +0.054 A 
ATOM      3  C   UNL     1      -5.561   0.069   2.564  0.00  0.00    +0.100 A 
ATOM      4  N   UNL     1      -6.535  -0.544   3.208  0.00  0.00    -0.171 NA
ATOM      5  N   UNL     1      -7.384  -1.141   2.263  0.00  0.00    -0.246 N 
ATOM      6  H   UNL     1      -8.182  -1.657   2.458  0.00  0.00    +0.192 HD
ATOM      7  C   UNL     1      -6.895  -0.869   1.035  0.00  0.00    +0.223 A 
ATOM      8  O   UNL     1      -7.370  -1.228  -0.184  0.00  0.00    -0.423 OA
ATOM      9  C   UNL     1      -6.857  -0.603  -1.263  0.00  0.00    +0.200 C 
ATOM     10  C   UNL     1      -5.738   0.155  -1.233  0.00  0.00    +0.098 C 
ENDROOT
BRANCH   1  13
ATOM     11  C   UNL     1      -1.256  -0.447  -0.103  0.00  0.00    +0.163 A 
ATOM     12  C   UNL     1      -2.443   0.264  -0.035  0.00  0.00    +0.054 A 
ATOM     13  C   UNL     1      -3.652  -0.406  -0.043  0.00  0.00    -0.029 A 
ATOM     14  C   UNL     1      -3.680  -1.786  -0.118  0.00  0.00    +0.028 A 
ATOM     15  C   UNL     1      -2.499  -2.503  -0.186  0.00  0.00    +0.086 A 
ATOM     16  C   UNL     1      -1.283  -1.835  -0.185  0.00  0.00    +0.177 A 
ATOM     17 CL   UNL     1      -2.538  -4.236  -0.279  0.00  0.00    -0.080 Cl
BRANCH  11  19
ATOM     18  C   UNL     1      -0.114   1.637  -0.009  0.00  0.00    +0.277 C 
ATOM     19  O   UNL     1      -0.066   0.212  -0.095  0.00  0.00    -0.491 OA
ENDBRANCH  11  19
BRANCH  16  20
ATOM     20  O   UNL     1      -0.120  -2.537  -0.257  0.00  0.00    -0.502 OA
ATOM     21  H   UNL     1       0.240  -2.792   0.603  0.00  0.00    +0.292 HD
ENDBRANCH  16  20
ENDBRANCH   1  13
BRANCH   3  22
ATOM     22  C   UNL     1      -4.446   0.827   3.184  0.00  0.00    +0.003 A 
ATOM     23  C   UNL     1      -4.039   2.043   2.639  0.00  0.00    +0.011 A 
ATOM     24  C   UNL     1      -3.002   2.744   3.220  0.00  0.00    +0.016 A 
ATOM     25  C   UNL     1      -2.365   2.241   4.341  0.00  0.00    +0.018 A 
ATOM     26  C   UNL     1      -2.765   1.033   4.885  0.00  0.00    +0.016 A 
ATOM     27  C   UNL     1      -3.805   0.327   4.316  0.00  0.00    +0.011 A 
ATOM     28 BR   UNL     1      -0.944   3.207   5.131  0.00  0.00    -0.050 Br
ENDBRANCH   3  22
BRANCH   9  29
ATOM     29  N   UNL     1      -7.510  -0.743  -2.463  0.00  0.00    -0.328 N 
ATOM     30  H   UNL     1      -8.316  -1.280  -2.516  0.00  0.00    +0.145 HD
ATOM     31  H   UNL     1      -7.165  -0.306  -3.257  0.00  0.00    +0.145 HD
ENDBRANCH   9  29
BRANCH  10  32
ATOM     32  C   UNL     1      -5.290   0.776  -2.444  0.00  0.00    +0.101 C 
ATOM     33  N   UNL     1      -4.935   1.268  -3.404  0.00  0.00    -0.191 NA
ENDBRANCH  10  32
TORSDOF 6
