REMARK  Name = ZINC12642294
REMARK  6 active torsions:
REMARK  status: ('A' for Active; 'I' for Inactive)
REMARK    1  A    between atoms: C_1  and  C_2
REMARK    2  A    between atoms: C_9  and  C_11
REMARK    3  A    between atoms: N_13  and  C_14
REMARK    4  A    between atoms: N_22  and  C_33
REMARK    5  A    between atoms: C_23  and  C_25
REMARK    6  A    between atoms: N_27  and  C_28
REMARK                            x       y       z     vdW  Elec       q    Type
REMARK                         _______ _______ _______ _____ _____    ______ ____
ROOT
ATOM      1  C   UNL     1      -4.442   2.752  -0.799  0.00  0.00    +0.047 C 
ATOM      2  C   UNL     1      -3.475   3.923  -0.985  0.00  0.00    +0.098 C 
ATOM      3  C   UNL     1      -2.488   3.825  -2.155  0.00  0.00    +0.007 C 
ATOM      4  C   UNL     1      -2.092   5.070  -2.375  0.00  0.00    +0.009 C 
ATOM      5  C   UNL     1      -2.871   5.929  -1.395  0.00  0.00    +0.128 C 
ATOM      6  O   UNL     1      -4.096   5.252  -1.238  0.00  0.00    -0.355 OA
ATOM      7  C   UNL     1      -2.276   5.709   0.053  0.00  0.00    +0.128 C 
ATOM      8  C   UNL     1      -2.518   4.231   0.232  0.00  0.00    +0.126 C 
ATOM      9  C   UNL     1      -0.975   6.385  -0.091  0.00  0.00    +0.228 C 
ATOM     10  O   UNL     1       0.067   6.067   0.442  0.00  0.00    -0.275 OA
ATOM     11  N   UNL     1      -1.167   7.446  -0.943  0.00  0.00    -0.253 N 
ATOM     12  C   UNL     1      -2.548   7.386  -1.516  0.00  0.00    +0.203 C 
ENDROOT
BRANCH  11  13
ATOM     13  C   UNL     1      -0.215   8.432  -1.232  0.00  0.00    +0.072 A 
ATOM     14  C   UNL     1       0.669   8.257  -2.288  0.00  0.00    +0.026 A 
ATOM     15  C   UNL     1       1.603   9.234  -2.573  0.00  0.00    +0.002 A 
ATOM     16  C   UNL     1       1.666  10.380  -1.803  0.00  0.00    +0.003 A 
ATOM     17  C   UNL     1       0.791  10.557  -0.747  0.00  0.00    +0.040 A 
ATOM     18  C   UNL     1      -0.150   9.585  -0.459  0.00  0.00    +0.145 A 
ATOM     19  F   UNL     1      -1.005   9.757   0.574  0.00  0.00    -0.204 F 
ENDBRANCH  11  13
BRANCH   8  20
ATOM     20  C   UNL     1      -1.231   3.455   0.118  0.00  0.00    +0.224 C 
ATOM     21  O   UNL     1      -0.344   3.855  -0.605  0.00  0.00    -0.275 OA
ATOM     22  N   UNL     1      -1.067   2.317   0.820  0.00  0.00    -0.285 N 
ATOM     23  H   UNL     1      -1.803   1.956   1.339  0.00  0.00    +0.155 HD
BRANCH  22  24
ATOM     24  C   UNL     1       0.166   1.655   0.801  0.00  0.00    +0.033 A 
ATOM     25  C   UNL     1       0.213   0.269   0.887  0.00  0.00    +0.023 A 
ATOM     26  C   UNL     1       1.431  -0.381   0.873  0.00  0.00    +0.002 A 
ATOM     27  C   UNL     1       2.603   0.346   0.775  0.00  0.00    +0.000 A 
ATOM     28  C   UNL     1       2.560   1.726   0.689  0.00  0.00    +0.002 A 
ATOM     29  C   UNL     1       1.345   2.382   0.702  0.00  0.00    +0.023 A 
ENDBRANCH  22  24
ENDBRANCH   8  20
BRANCH  12  30
ATOM     30  C   UNL     1      -3.505   8.219  -0.702  0.00  0.00    +0.237 C 
ATOM     31  O   UNL     1      -3.172   8.633   0.389  0.00  0.00    -0.274 OA
ATOM     32  N   UNL     1      -4.731   8.503  -1.185  0.00  0.00    -0.311 N 
ATOM     33  H   UNL     1      -4.997   8.172  -2.057  0.00  0.00    +0.149 HD
BRANCH  32  34
ATOM     34  C   UNL     1      -5.661   9.312  -0.393  0.00  0.00    +0.073 C 
ATOM     35  C   UNL     1      -6.480   8.406   0.548  0.00  0.00    +0.022 C 
ATOM     36  C   UNL     1      -7.890   9.047   0.560  0.00  0.00    +0.002 C 
ATOM     37  C   UNL     1      -8.069   9.506  -0.909  0.00  0.00    +0.002 C 
ATOM     38  C   UNL     1      -6.671  10.012  -1.320  0.00  0.00    +0.022 C 
ENDBRANCH  32  34
ENDBRANCH  12  30
TORSDOF 5
