REMARK  Name = ZINC50987905
REMARK  6 active torsions:
REMARK  status: ('A' for Active; 'I' for Inactive)
REMARK    1  A    between atoms: C_1  and  C_2
REMARK    2  A    between atoms: C_4  and  C_11
REMARK    3  A    between atoms: N_6  and  C_7
REMARK    4  A    between atoms: C_7  and  C_8
REMARK    5  A    between atoms: C_16  and  O_17
REMARK    6  A    between atoms: O_17  and  C_18
REMARK                            x       y       z     vdW  Elec       q    Type
REMARK                         _______ _______ _______ _____ _____    ______ ____
ROOT
ATOM      1  C   UNL     1      -0.013   1.086   0.008  0.00  0.00    +0.081 C 
ATOM      2  C   UNL     1      -0.742   1.585  -1.213  0.00  0.00    +0.074 C 
ATOM      3  N   UNL     1      -1.252   0.805  -2.099  0.00  0.00    -0.363 N 
ATOM      4  C   UNL     1      -1.878   1.638  -3.137  0.00  0.00    +0.176 C 
ATOM      5  C   UNL     1      -1.624   3.058  -2.667  0.00  0.00    +0.101 C 
ATOM      6  N   UNL     1      -0.930   2.911  -1.485  0.00  0.00    -0.267 N 
ATOM      7  N   UNL     1      -1.981   4.158  -3.243  0.00  0.00    -0.388 N 
ATOM      8  H   UNL     1      -2.473   4.130  -4.078  0.00  0.00    +0.157 HD
ATOM      9  H   UNL     1      -1.757   5.011  -2.840  0.00  0.00    +0.157 HD
ATOM     10  H   UNL     1      -1.228  -0.164  -2.086  0.00  0.00    +0.162 HD
ENDROOT
BRANCH   4  11
ATOM     11  C   UNL     1      -1.224   1.399  -4.474  0.00  0.00    +0.025 A 
ATOM     12  C   UNL     1       0.023   0.808  -4.537  0.00  0.00    +0.025 A 
ATOM     13  C   UNL     1       0.624   0.588  -5.763  0.00  0.00    +0.018 A 
ATOM     14  C   UNL     1      -0.023   0.959  -6.929  0.00  0.00    +0.019 A 
ATOM     15  C   UNL     1      -1.270   1.549  -6.870  0.00  0.00    +0.047 A 
ATOM     16  C   UNL     1      -1.877   1.766  -5.641  0.00  0.00    +0.126 A 
ATOM     17 BR   UNL     1       2.331  -0.220  -5.847  0.00  0.00    -0.050 Br
BRANCH  16  18
ATOM     18  O   UNL     1      -3.106   2.342  -5.582  0.00  0.00    -0.495 OA
ATOM     19  C   UNL     1      -3.719   2.694  -6.824  0.00  0.00    +0.277 C 
ENDBRANCH  16  18
ENDBRANCH   4  11
BRANCH   6  20
ATOM     20  C   UNL     1      -0.461   4.015  -0.644  0.00  0.00    +0.201 C 
BRANCH  20  21
ATOM     21  C   UNL     1       0.892   4.412  -1.065  0.00  0.00    -0.086 C 
ATOM     22  C   UNL     1       1.972   4.728  -1.401  0.00  0.00    +0.005 C 
ENDBRANCH  20  21
ENDBRANCH   6  20
TORSDOF 4
