REMARK  Name = ZINC39446762
REMARK  3 active torsions:
REMARK  status: ('A' for Active; 'I' for Inactive)
REMARK    1  A    between atoms: C_1  and  C_2
REMARK    2  A    between atoms: C_11  and  C_13
REMARK    3  A    between atoms: C_13  and  N_15
REMARK                            x       y       z     vdW  Elec       q    Type
REMARK                         _______ _______ _______ _____ _____    ______ ____
ROOT
ATOM      1  C   UNL     1       1.896   0.472   1.611  0.00  0.00    +0.253 C 
ATOM      2  O   UNL     1       1.683   1.285   2.490  0.00  0.00    -0.272 OA
ENDROOT
BRANCH   1   3
ATOM      3  N   UNL     1       3.069   0.464   0.984  0.00  0.00    -0.146 NA
ATOM      4  C   UNL     1       4.046   1.269   1.391  0.00  0.00    +0.198 A 
ATOM      5  N   UNL     1       3.935   2.216   2.359  0.00  0.00    -0.326 N 
ATOM      6  H   UNL     1       3.133   2.418   2.867  0.00  0.00    +0.169 HD
ATOM      7  C   UNL     1       5.167   2.847   2.497  0.00  0.00    +0.065 A 
ATOM      8  C   UNL     1       5.621   3.869   3.318  0.00  0.00    +0.028 A 
ATOM      9  C   UNL     1       6.931   4.295   3.225  0.00  0.00    +0.002 A 
ATOM     10  C   UNL     1       7.794   3.707   2.316  0.00  0.00    +0.002 A 
ATOM     11  C   UNL     1       7.352   2.689   1.494  0.00  0.00    +0.028 A 
ATOM     12  C   UNL     1       6.037   2.253   1.580  0.00  0.00    +0.065 A 
ATOM     13  N   UNL     1       5.317   1.270   0.909  0.00  0.00    -0.326 N 
ATOM     14  H   UNL     1       5.662   0.688   0.214  0.00  0.00    +0.169 HD
ENDBRANCH   1   3
BRANCH   1  24
ATOM     15  C   UNL     1      -0.084   1.521   0.118  0.00  0.00    +0.014 C 
ATOM     16  C   UNL     1      -0.036  -0.007   0.064  0.00  0.00    +0.039 C 
ATOM     17  C   UNL     1       0.516  -0.435  -1.274  0.00  0.00    -0.030 A 
ATOM     18  C   UNL     1       0.248   0.153  -2.512  0.00  0.00    +0.005 A 
ATOM     19  C   UNL     1       0.804  -0.341  -3.671  0.00  0.00    +0.000 A 
ATOM     20  C   UNL     1       1.646  -1.438  -3.641  0.00  0.00    +0.001 A 
ATOM     21  C   UNL     1       1.932  -2.032  -2.426  0.00  0.00    +0.015 A 
ATOM     22  C   UNL     1       1.379  -1.528  -1.264  0.00  0.00    +0.012 A 
ATOM     23  S   UNL     1       1.561  -2.015   0.438  0.00  0.00    -0.112 S 
ATOM     24  C   UNL     1       0.832  -0.525   1.232  0.00  0.00    +0.146 C 
ENDBRANCH   1  24
TORSDOF 2
