REMARK  Name = ZINC35991923
REMARK  12 active torsions:
REMARK  status: ('A' for Active; 'I' for Inactive)
REMARK    1  A    between atoms: C_1  and  C_2
REMARK    2  A    between atoms: C_2  and  O_3
REMARK    3  A    between atoms: O_3  and  C_4
REMARK    4  A    between atoms: C_4  and  C_6
REMARK    5  A    between atoms: C_7  and  C_23
REMARK    6  A    between atoms: N_8  and  C_22
REMARK    7  A    between atoms: C_12  and  C_14
REMARK    8  A    between atoms: C_19  and  O_20
REMARK    9  A    between atoms: O_20  and  C_21
REMARK   10  A    between atoms: C_23  and  N_24
REMARK   11  A    between atoms: C_31  and  C_33
REMARK   12  A    between atoms: C_36  and  C_39
REMARK                            x       y       z     vdW  Elec       q    Type
REMARK                         _______ _______ _______ _____ _____    ______ ____
ROOT
ATOM      1  C   UNL     1      -2.207  -3.008   0.304  0.00  0.00    +0.077 C 
ATOM      2  C   UNL     1      -2.492  -4.327   0.369  0.00  0.00    +0.010 C 
ATOM      3  N   UNL     1      -3.782  -4.772   0.323  0.00  0.00    -0.264 N 
ATOM      4  C   UNL     1      -4.843  -3.963   0.213  0.00  0.00    +0.307 C 
ATOM      5  O   UNL     1      -5.955  -4.454   0.180  0.00  0.00    -0.252 OA
ATOM      6  N   UNL     1      -4.719  -2.624   0.138  0.00  0.00    -0.288 N 
ATOM      7  C   UNL     1      -3.368  -2.041   0.185  0.00  0.00    +0.147 C 
ATOM      8  C   UNL     1      -4.018  -6.216   0.399  0.00  0.00    +0.139 C 
ATOM      9  H   UNL     1      -5.502  -2.056   0.058  0.00  0.00    +0.151 HD
ENDROOT
BRANCH   7  10
ATOM     10  C   UNL     1      -3.305  -1.094   1.355  0.00  0.00    +0.019 A 
ATOM     11  C   UNL     1      -2.887   0.209   1.168  0.00  0.00    +0.009 A 
ATOM     12  C   UNL     1      -2.829   1.079   2.242  0.00  0.00    +0.001 A 
ATOM     13  C   UNL     1      -3.190   0.646   3.505  0.00  0.00    +0.004 A 
ATOM     14  C   UNL     1      -3.609  -0.656   3.697  0.00  0.00    +0.046 A 
ATOM     15  C   UNL     1      -3.673  -1.529   2.620  0.00  0.00    +0.125 A 
BRANCH  15  16
ATOM     16  O   UNL     1      -4.090  -2.809   2.806  0.00  0.00    -0.495 OA
ATOM     17  C   UNL     1      -4.554  -3.157   4.112  0.00  0.00    +0.277 C 
ENDBRANCH  15  16
ENDBRANCH   7  10
BRANCH   1  18
ATOM     18  C   UNL     1      -0.871  -2.545   0.352  0.00  0.00    +0.339 C 
ATOM     19  O   UNL     1       0.037  -3.328   0.560  0.00  0.00    -0.245 OA
BRANCH  18  20
ATOM     20  O   UNL     1      -0.604  -1.236   0.167  0.00  0.00    -0.462 OA
BRANCH  20  22
ATOM     21  C   UNL     1       0.877   0.668   0.025  0.00  0.00    +0.048 C 
ATOM     22  C   UNL     1       0.772  -0.855   0.117  0.00  0.00    +0.229 C 
ENDBRANCH  20  22
ENDBRANCH  18  20
ENDBRANCH   1  18
BRANCH   2  23
ATOM     23  C   UNL     1      -1.368  -5.323   0.493  0.00  0.00    -0.026 C 
BRANCH  23  24
ATOM     24  N   UNL     1      -1.022  -5.497   1.911  0.00  0.00    +0.384 N 
ATOM     25  C   UNL     1       0.238  -6.232   1.991  0.00  0.00    -0.077 C 
ATOM     26  C   UNL     1       0.973  -5.827   3.250  0.00  0.00    +0.000 C 
ATOM     27  C   UNL     1       0.621  -6.806   4.385  0.00  0.00    +0.106 C 
ATOM     28  N   UNL     1      -0.810  -7.168   4.350  0.00  0.00    -0.299 N 
ATOM     29  C   UNL     1      -1.850  -6.196   4.084  0.00  0.00    +0.089 C 
ATOM     30  C   UNL     1      -2.114  -6.113   2.563  0.00  0.00    -0.059 C 
ATOM     31  C   UNL     1      -1.161  -8.450   4.573  0.00  0.00    +0.247 C 
ATOM     32  O   UNL     1      -2.317  -8.797   4.431  0.00  0.00    -0.270 OA
ATOM     33  H   UNL     1      -0.882  -4.584   2.317  0.00  0.00    -0.081 HD
BRANCH  31  34
ATOM     34  C   UNL     1      -0.140  -9.435   4.990  0.00  0.00    +0.037 A 
ATOM     35  C   UNL     1       0.912  -9.044   5.821  0.00  0.00    +0.013 A 
ATOM     36  C   UNL     1       1.861  -9.968   6.207  0.00  0.00    +0.004 A 
ATOM     37  C   UNL     1       1.773 -11.279   5.772  0.00  0.00    -0.050 A 
ATOM     38  C   UNL     1       0.733 -11.672   4.949  0.00  0.00    +0.004 A 
ATOM     39  C   UNL     1      -0.227 -10.760   4.560  0.00  0.00    +0.013 A 
ATOM     40  C   UNL     1       2.814 -12.282   6.197  0.00  0.00    +0.044 C 
ENDBRANCH  31  34
ENDBRANCH  23  24
ENDBRANCH   2  23
TORSDOF 8
