REMARK  Name = ZINC33121115
REMARK  5 active torsions:
REMARK  status: ('A' for Active; 'I' for Inactive)
REMARK    1  A    between atoms: C_3  and  N_30
REMARK    2  A    between atoms: C_4  and  C_21
REMARK    3  A    between atoms: C_6  and  N_7
REMARK    4  A    between atoms: N_7  and  S_8
REMARK    5  A    between atoms: S_8  and  C_11
REMARK                            x       y       z     vdW  Elec       q    Type
REMARK                         _______ _______ _______ _____ _____    ______ ____
ROOT
ATOM      1  C   UNL     1       1.334  -0.599   0.083  0.00  0.00    +0.026 A 
ATOM      2  C   UNL     1       2.396   0.282   0.096  0.00  0.00    +0.026 A 
ATOM      3  C   UNL     1       2.170   1.645   0.241  0.00  0.00    +0.042 A 
ATOM      4  C   UNL     1       0.857   2.123   0.375  0.00  0.00    +0.060 A 
ATOM      5  C   UNL     1      -0.211   1.223   0.362  0.00  0.00    +0.039 A 
ATOM      6  C   UNL     1       0.031  -0.131   0.217  0.00  0.00    +0.049 A 
ENDROOT
BRANCH   4   7
ATOM      7  C   UNL     1       0.608   3.568   0.529  0.00  0.00    +0.248 C 
ATOM      8  O   UNL     1       1.118   4.179   1.448  0.00  0.00    -0.270 OA
ATOM      9  N   UNL     1      -0.186   4.212  -0.349  0.00  0.00    -0.297 N 
ATOM     10  C   UNL     1      -0.846   3.443  -1.381  0.00  0.00    +0.108 C 
ATOM     11  C   UNL     1       0.060   3.349  -2.626  0.00  0.00    +0.019 C 
ATOM     12  C   UNL     1       0.133   4.653  -3.304  0.00  0.00    +0.002 C 
ATOM     13  C   UNL     1       0.756   5.763  -2.464  0.00  0.00    +0.002 C 
ATOM     14  C   UNL     1      -0.304   6.383  -1.588  0.00  0.00    +0.019 C 
ATOM     15  C   UNL     1      -0.343   5.674  -0.222  0.00  0.00    +0.108 C 
ENDBRANCH   4   7
BRANCH   3  16
ATOM     16  N   UNL     1       3.241   2.533   0.253  0.00  0.00    -0.333 N 
ATOM     17  C   UNL     1       4.519   1.814   0.355  0.00  0.00    +0.086 C 
ATOM     18  C   UNL     1       5.664   2.826   0.445  0.00  0.00    -0.063 C 
ATOM     19  N   UNL     1       5.643   3.692  -0.742  0.00  0.00    +0.381 N 
ATOM     20  C   UNL     1       4.365   4.411  -0.844  0.00  0.00    -0.063 C 
ATOM     21  C   UNL     1       3.220   3.399  -0.934  0.00  0.00    +0.086 C 
ATOM     22  H   UNL     1       6.458   4.428  -0.673  0.00  0.00    -0.086 HD
ATOM     23  H   UNL     1       5.777   3.080  -1.646  0.00  0.00    -0.086 HD
ENDBRANCH   3  16
BRANCH   6  24
ATOM     24  N   UNL     1      -1.040  -1.034   0.203  0.00  0.00    -0.216 N 
ATOM     25  H   UNL     1      -1.839  -0.951   0.954  0.00  0.00    +0.174 HD
BRANCH  24  26
ATOM     26  S   UNL     1      -1.102  -2.228  -0.943  0.00  0.00    +0.072 S 
ATOM     27  O   UNL     1       0.144  -2.909  -0.888  0.00  0.00    -0.150 OA
ATOM     28  O   UNL     1      -2.344  -2.895  -0.768  0.00  0.00    -0.150 OA
BRANCH  26  29
ATOM     29  C   UNL     1      -1.173  -1.436  -2.516  0.00  0.00    +0.109 A 
ATOM     30  C   UNL     1      -2.389  -1.028  -3.033  0.00  0.00    +0.029 A 
ATOM     31  C   UNL     1      -2.436  -0.406  -4.263  0.00  0.00    +0.006 A 
ATOM     32  C   UNL     1      -1.273  -0.197  -4.993  0.00  0.00    -0.044 A 
ATOM     33  C   UNL     1      -0.063  -0.605  -4.479  0.00  0.00    -0.042 A 
ATOM     34  C   UNL     1      -0.017  -1.227  -3.238  0.00  0.00    +0.032 A 
ATOM     35  C   UNL     1       1.238  -0.402  -5.211  0.00  0.00    +0.035 C 
ATOM     36  C   UNL     1       0.985  -0.119  -6.690  0.00  0.00    +0.005 C 
ATOM     37  C   UNL     1      -0.045   1.012  -6.796  0.00  0.00    +0.005 C 
ATOM     38  C   UNL     1      -1.399   0.475  -6.335  0.00  0.00    +0.035 C 
ENDBRANCH  26  29
ENDBRANCH  24  26
ENDBRANCH   6  24
TORSDOF 5
