REMARK  Name = ZINC39665566
REMARK  10 active torsions:
REMARK  status: ('A' for Active; 'I' for Inactive)
REMARK    1  A    between atoms: C_1  and  C_2
REMARK    2  A    between atoms: C_2  and  C_4
REMARK    3  A    between atoms: C_2  and  O_31
REMARK    4  A    between atoms: C_4  and  N_5
REMARK    5  A    between atoms: C_6  and  C_8
REMARK    6  A    between atoms: C_19  and  C_21
REMARK    7  A    between atoms: C_26  and  C_27
REMARK    8  A    between atoms: O_31  and  C_32
REMARK    9  A    between atoms: C_35  and  O_38
REMARK   10  A    between atoms: O_38  and  C_39
REMARK                            x       y       z     vdW  Elec       q    Type
REMARK                         _______ _______ _______ _____ _____    ______ ____
ROOT
ATOM      1  C   UNL     1       1.207  -4.133  -3.562  0.00  0.00    +0.100 C 
ATOM      2  C   UNL     1      -0.208  -4.749  -3.483  0.00  0.00    +0.121 C 
ATOM      3  N   UNL     1      -0.584  -5.006  -4.893  0.00  0.00    -0.296 N 
ATOM      4  C   UNL     1       0.665  -5.493  -5.525  0.00  0.00    +0.115 C 
ATOM      5  C   UNL     1       1.778  -4.626  -4.902  0.00  0.00    -0.004 C 
ATOM      6  C   UNL     1       2.093  -3.441  -5.810  0.00  0.00    -0.010 C 
ATOM      7  C   UNL     1       2.712  -3.954  -7.113  0.00  0.00    -0.082 C 
ATOM      8  N   UNL     1       3.937  -4.705  -6.813  0.00  0.00    +0.379 N 
ATOM      9  C   UNL     1       3.612  -5.895  -6.016  0.00  0.00    -0.082 C 
ATOM     10  C   UNL     1       3.031  -5.464  -4.667  0.00  0.00    -0.010 C 
ATOM     11  C   UNL     1      -1.790  -4.835  -5.471  0.00  0.00    +0.247 C 
ATOM     12  O   UNL     1      -1.968  -5.185  -6.621  0.00  0.00    -0.270 OA
ATOM     13  H   UNL     1       4.376  -4.990  -7.676  0.00  0.00    -0.086 HD
ATOM     14  H   UNL     1       4.572  -4.118  -6.294  0.00  0.00    -0.086 HD
ENDROOT
BRANCH  11  15
ATOM     15  C   UNL     1      -2.896  -4.221  -4.705  0.00  0.00    +0.049 A 
ATOM     16  C   UNL     1      -3.165  -4.643  -3.402  0.00  0.00    +0.013 A 
ATOM     17  C   UNL     1      -4.198  -4.066  -2.694  0.00  0.00    +0.001 A 
ATOM     18  C   UNL     1      -4.967  -3.071  -3.272  0.00  0.00    +0.001 A 
ATOM     19  C   UNL     1      -4.705  -2.648  -4.563  0.00  0.00    +0.013 A 
ATOM     20  C   UNL     1      -3.671  -3.213  -5.280  0.00  0.00    +0.067 A 
BRANCH  20  21
ATOM     21  C   UNL     1      -3.384  -2.747  -6.684  0.00  0.00    +0.418 C 
ATOM     22  F   UNL     1      -4.287  -1.739  -7.035  0.00  0.00    -0.166 F 
ATOM     23  F   UNL     1      -2.078  -2.248  -6.752  0.00  0.00    -0.166 F 
ATOM     24  F   UNL     1      -3.518  -3.822  -7.569  0.00  0.00    -0.166 F 
ENDBRANCH  20  21
ENDBRANCH  11  15
BRANCH   1  26
ATOM     25  N   UNL     1       2.188  -1.900  -3.153  0.00  0.00    -0.312 N 
ATOM     26  C   UNL     1       1.125  -2.629  -3.548  0.00  0.00    +0.218 C 
ATOM     27  O   UNL     1       0.103  -2.073  -3.892  0.00  0.00    -0.275 OA
ATOM     28  H   UNL     1       3.006  -2.344  -2.878  0.00  0.00    +0.149 HD
BRANCH  25  29
ATOM     29  C   UNL     1       2.109  -0.437  -3.139  0.00  0.00    +0.148 C 
BRANCH  29  31
ATOM     30  C   UNL     1       3.318   1.660  -2.521  0.00  0.00    +0.053 C 
ATOM     31  C   UNL     1       3.440   0.141  -2.654  0.00  0.00    +0.187 C 
BRANCH  31  32
ATOM     32  O   UNL     1       4.467  -0.173  -3.596  0.00  0.00    -0.488 OA
BRANCH  32  33
ATOM     33  C   UNL     1       5.745  -0.197  -3.131  0.00  0.00    +0.121 A 
ATOM     34  C   UNL     1       6.795  -0.447  -4.002  0.00  0.00    +0.049 A 
ATOM     35  C   UNL     1       8.093  -0.472  -3.530  0.00  0.00    +0.049 A 
ATOM     36  C   UNL     1       8.346  -0.246  -2.185  0.00  0.00    +0.120 A 
ATOM     37  C   UNL     1       7.296   0.005  -1.315  0.00  0.00    +0.049 A 
ATOM     38  C   UNL     1       5.998   0.034  -1.788  0.00  0.00    +0.049 A 
BRANCH  36  39
ATOM     39  O   UNL     1       9.624  -0.271  -1.720  0.00  0.00    -0.495 OA
ATOM     40  C   UNL     1       9.811  -0.030  -0.324  0.00  0.00    +0.277 C 
ENDBRANCH  36  39
ENDBRANCH  32  33
ENDBRANCH  31  32
ENDBRANCH  29  31
ENDBRANCH  25  29
ENDBRANCH   1  26
TORSDOF 8
