REMARK  Name = ZINC38700419
REMARK  14 active torsions:
REMARK  status: ('A' for Active; 'I' for Inactive)
REMARK    1  A    between atoms: C_1  and  O_2
REMARK    2  A    between atoms: O_2  and  C_3
REMARK    3  A    between atoms: C_6  and  C_10
REMARK    4  A    between atoms: C_10  and  O_12
REMARK    5  A    between atoms: O_12  and  C_13
REMARK    6  A    between atoms: C_20  and  N_38
REMARK    7  A    between atoms: C_21  and  C_36
REMARK    8  A    between atoms: C_22  and  C_24
REMARK    9  A    between atoms: C_26  and  O_34
REMARK   10  A    between atoms: C_27  and  O_32
REMARK   11  A    between atoms: C_28  and  O_30
REMARK   12  A    between atoms: O_30  and  C_31
REMARK   13  A    between atoms: O_32  and  C_33
REMARK   14  A    between atoms: O_34  and  C_35
REMARK                            x       y       z     vdW  Elec       q    Type
REMARK                         _______ _______ _______ _____ _____    ______ ____
ROOT
ATOM      1  C   UNL     1       3.199  -4.301  -5.525  0.00  0.00    +0.135 A 
ATOM      2  C   UNL     1       3.787  -3.413  -6.414  0.00  0.00    +0.047 A 
ATOM      3  C   UNL     1       4.457  -3.889  -7.524  0.00  0.00    +0.012 A 
ATOM      4  C   UNL     1       4.546  -5.251  -7.753  0.00  0.00    +0.008 A 
ATOM      5  C   UNL     1       3.961  -6.143  -6.868  0.00  0.00    +0.138 A 
ATOM      6  C   UNL     1       3.291  -5.665  -5.749  0.00  0.00    +0.093 A 
ATOM      7  O   UNL     1       4.037  -7.481  -7.076  0.00  0.00    -0.441 OA
ATOM      8  C   UNL     1       4.328  -7.953  -8.300  0.00  0.00    +0.199 C 
ATOM      9  C   UNL     1       4.918  -7.183  -9.244  0.00  0.00    +0.098 C 
ATOM     10  C   UNL     1       5.282  -5.751  -8.969  0.00  0.00    +0.098 C 
ENDROOT
BRANCH  10  11
ATOM     11  C   UNL     1       6.766  -5.649  -8.730  0.00  0.00    -0.028 A 
ATOM     12  C   UNL     1       7.345  -6.342  -7.684  0.00  0.00    +0.054 A 
ATOM     13  C   UNL     1       8.711  -6.251  -7.461  0.00  0.00    +0.165 A 
ATOM     14  C   UNL     1       9.497  -5.462  -8.291  0.00  0.00    +0.204 A 
ATOM     15  C   UNL     1       8.912  -4.768  -9.343  0.00  0.00    +0.165 A 
ATOM     16  C   UNL     1       7.546  -4.868  -9.562  0.00  0.00    +0.054 A 
BRANCH  15  17
ATOM     17  O   UNL     1       9.677  -3.994 -10.159  0.00  0.00    -0.491 OA
ATOM     18  C   UNL     1       9.008  -3.309 -11.220  0.00  0.00    +0.277 C 
ENDBRANCH  15  17
BRANCH  14  19
ATOM     19  O   UNL     1      10.838  -5.370  -8.076  0.00  0.00    -0.488 OA
ATOM     20  C   UNL     1      11.669  -6.324  -8.739  0.00  0.00    +0.277 C 
ENDBRANCH  14  19
BRANCH  13  21
ATOM     21  O   UNL     1       9.279  -6.932  -6.430  0.00  0.00    -0.491 OA
ATOM     22  C   UNL     1       8.410  -7.722  -5.617  0.00  0.00    +0.277 C 
ENDBRANCH  13  21
ENDBRANCH  10  11
BRANCH   8  23
ATOM     23  N   UNL     1       4.018  -9.256  -8.601  0.00  0.00    -0.328 N 
ATOM     24  H   UNL     1       3.595  -9.820  -7.936  0.00  0.00    +0.145 HD
ATOM     25  H   UNL     1       4.221  -9.612  -9.480  0.00  0.00    +0.145 HD
ENDBRANCH   8  23
BRANCH   9  26
ATOM     26  C   UNL     1       5.202  -7.744 -10.530  0.00  0.00    +0.101 C 
ATOM     27  N   UNL     1       5.428  -8.189 -11.551  0.00  0.00    -0.191 NA
ENDBRANCH   9  26
BRANCH   1  28
ATOM     28  O   UNL     1       2.539  -3.834  -4.433  0.00  0.00    -0.422 OA
BRANCH  28  29
ATOM     29  C   UNL     1       3.162  -3.903  -3.239  0.00  0.00    +0.344 C 
ATOM     30  O   UNL     1       4.242  -4.452  -3.148  0.00  0.00    -0.245 OA
BRANCH  29  34
ATOM     31  C   UNL     1       1.352  -2.198   0.203  0.00  0.00    +0.138 A 
ATOM     32  C   UNL     1       2.587  -2.827   0.308  0.00  0.00    +0.048 A 
ATOM     33  C   UNL     1       3.177  -3.381  -0.806  0.00  0.00    +0.018 A 
ATOM     34  C   UNL     1       2.532  -3.311  -2.044  0.00  0.00    +0.061 A 
ATOM     35  C   UNL     1       1.290  -2.678  -2.147  0.00  0.00    +0.038 A 
ATOM     36  C   UNL     1       0.704  -2.131  -1.026  0.00  0.00    +0.083 A 
ATOM     37 CL   UNL     1      -0.841  -1.350  -1.151  0.00  0.00    -0.080 Cl
BRANCH  31  39
ATOM     38  C   UNL     1       1.493  -1.758   2.533  0.00  0.00    +0.277 C 
ATOM     39  O   UNL     1       0.774  -1.653   1.303  0.00  0.00    -0.494 OA
ENDBRANCH  31  39
ENDBRANCH  29  34
ENDBRANCH  28  29
ENDBRANCH   1  28
TORSDOF 10
