REMARK  Name = ZINC38507141
REMARK  8 active torsions:
REMARK  status: ('A' for Active; 'I' for Inactive)
REMARK    1  A    between atoms: C_1  and  C_2
REMARK    2  A    between atoms: C_2  and  C_3
REMARK    3  A    between atoms: C_3  and  N_4
REMARK    4  A    between atoms: C_10  and  N_15
REMARK    5  A    between atoms: C_11  and  C_12
REMARK    6  A    between atoms: C_16  and  C_18
REMARK    7  A    between atoms: C_19  and  C_24
REMARK    8  A    between atoms: N_22  and  C_23
REMARK                            x       y       z     vdW  Elec       q    Type
REMARK                         _______ _______ _______ _____ _____    ______ ____
ROOT
ATOM      1  N   UNL     1       0.770  -1.979   1.238  0.00  0.00    +0.383 N 
ATOM      2  C   UNL     1       1.367  -2.470   2.487  0.00  0.00    -0.074 C 
ATOM      3  C   UNL     1       1.114  -3.973   2.639  0.00  0.00    +0.018 C 
ATOM      4  C   UNL     1       1.569  -4.655   1.357  0.00  0.00    -0.027 A 
ATOM      5  C   UNL     1       1.761  -3.929   0.232  0.00  0.00    -0.021 A 
ATOM      6  S   UNL     1       2.277  -5.109  -0.978  0.00  0.00    -0.079 S 
ATOM      7  C   UNL     1       2.241  -6.508  -0.049  0.00  0.00    +0.085 A 
ATOM      8  C   UNL     1       1.832  -6.073   1.204  0.00  0.00    +0.068 A 
ATOM      9  C   UNL     1       1.564  -2.453   0.089  0.00  0.00    -0.035 C 
ATOM     10  H   UNL     1      -0.175  -2.325   1.159  0.00  0.00    -0.081 HD
ENDROOT
BRANCH   8  11
ATOM     11  C   UNL     1       1.671  -7.006   2.323  0.00  0.00    +0.244 C 
ATOM     12  O   UNL     1       0.599  -7.550   2.513  0.00  0.00    -0.270 OA
ATOM     13  N   UNL     1       2.711  -7.261   3.142  0.00  0.00    -0.325 N 
ATOM     14  H   UNL     1       3.565  -6.828   2.990  0.00  0.00    +0.145 HD
ATOM     15  H   UNL     1       2.604  -7.879   3.882  0.00  0.00    +0.145 HD
ENDBRANCH   8  11
BRANCH   7  16
ATOM     16  N   UNL     1       2.550  -7.800  -0.442  0.00  0.00    -0.274 N 
ATOM     17  C   UNL     1       2.934  -8.044  -1.711  0.00  0.00    +0.267 C 
ATOM     18  O   UNL     1       2.921  -7.148  -2.534  0.00  0.00    -0.268 OA
ATOM     19  H   UNL     1       2.489  -8.528   0.195  0.00  0.00    +0.156 HD
BRANCH  17  20
ATOM     20  C   UNL     1       3.370  -9.394  -2.100  0.00  0.00    +0.126 A 
ATOM     21  C   UNL     1       2.620 -10.349  -2.766  0.00  0.00    -0.001 A 
ATOM     22  C   UNL     1       3.466 -11.452  -2.904  0.00  0.00    +0.138 A 
ATOM     23  N   UNL     1       4.615 -11.148  -2.357  0.00  0.00    -0.179 NA
ATOM     24  N   UNL     1       4.596  -9.954  -1.883  0.00  0.00    -0.262 N 
ATOM     25  C   UNL     1       5.718  -9.296  -1.209  0.00  0.00    +0.173 C 
ATOM     26  C   UNL     1       1.195 -10.225  -3.240  0.00  0.00    +0.048 C 
ENDBRANCH  17  20
ENDBRANCH   7  16
BRANCH   1  27
ATOM     27  C   UNL     1       0.753  -0.510   1.248  0.00  0.00    -0.079 C 
BRANCH  27  29
ATOM     28  C   UNL     1      -0.002   1.529   0.018  0.00  0.00    +0.002 C 
ATOM     29  C   UNL     1       0.016  -0.000   0.008  0.00  0.00    -0.022 C 
ENDBRANCH  27  29
ENDBRANCH   1  27
TORSDOF 5
