REMARK  Name = ZINC35667285
REMARK  9 active torsions:
REMARK  status: ('A' for Active; 'I' for Inactive)
REMARK    1  A    between atoms: C_1  and  C_2
REMARK    2  A    between atoms: C_5  and  N_8
REMARK    3  A    between atoms: C_16  and  O_33
REMARK    4  A    between atoms: C_17  and  O_31
REMARK    5  A    between atoms: C_20  and  C_22
REMARK    6  A    between atoms: C_22  and  N_23
REMARK    7  A    between atoms: C_24  and  C_26
REMARK    8  A    between atoms: O_31  and  C_32
REMARK    9  A    between atoms: O_33  and  C_34
REMARK                            x       y       z     vdW  Elec       q    Type
REMARK                         _______ _______ _______ _____ _____    ______ ____
ROOT
ATOM      1  N   UNL     1       0.005  -4.175  -0.017  0.00  0.00    -0.269 N 
ATOM      2  C   UNL     1       0.174  -4.849   1.138  0.00  0.00    +0.307 C 
ATOM      3  O   UNL     1       0.219  -4.246   2.192  0.00  0.00    -0.252 OA
ATOM      4  N   UNL     1       0.294  -6.191   1.123  0.00  0.00    -0.276 N 
ATOM      5  C   UNL     1       0.416  -6.935  -0.141  0.00  0.00    +0.114 C 
ATOM      6  C   UNL     1       1.792  -7.599  -0.164  0.00  0.00    +0.054 C 
ATOM      7  C   UNL     1       2.069  -8.303   1.138  0.00  0.00    -0.037 A 
ATOM      8  C   UNL     1       3.049  -9.290   1.138  0.00  0.00    +0.053 A 
ATOM      9  C   UNL     1       3.362  -9.971   2.300  0.00  0.00    +0.162 A 
ATOM     10  C   UNL     1       2.691  -9.663   3.481  0.00  0.00    +0.162 A 
ATOM     11  C   UNL     1       1.716  -8.683   3.476  0.00  0.00    +0.055 A 
ATOM     12  C   UNL     1       1.401  -8.007   2.304  0.00  0.00    -0.019 A 
ATOM     13  C   UNL     1       0.313  -6.969   2.366  0.00  0.00    +0.125 C 
ATOM     14  H   UNL     1      -0.164  -4.658  -0.841  0.00  0.00    +0.156 HD
ENDROOT
BRANCH   1  19
ATOM     15  C   UNL     1       0.283   1.492  -0.061  0.00  0.00    +0.044 C 
ATOM     16  C   UNL     1       0.209  -0.013  -0.050  0.00  0.00    -0.050 A 
ATOM     17  C   UNL     1       0.465  -0.726  -1.207  0.00  0.00    +0.005 A 
ATOM     18  C   UNL     1       0.399  -2.105  -1.199  0.00  0.00    +0.023 A 
ATOM     19  C   UNL     1       0.074  -2.777  -0.028  0.00  0.00    +0.035 A 
ATOM     20  C   UNL     1      -0.182  -2.059   1.132  0.00  0.00    +0.023 A 
ATOM     21  C   UNL     1      -0.108  -0.679   1.120  0.00  0.00    +0.005 A 
ENDBRANCH   1  19
BRANCH  10  22
ATOM     22  O   UNL     1       2.994 -10.322   4.631  0.00  0.00    -0.491 OA
ATOM     23  C   UNL     1       2.263  -9.952   5.802  0.00  0.00    +0.277 C 
ENDBRANCH  10  22
BRANCH   9  24
ATOM     24  O   UNL     1       4.320 -10.936   2.290  0.00  0.00    -0.491 OA
ATOM     25  C   UNL     1       4.964 -11.197   1.041  0.00  0.00    +0.277 C 
ENDBRANCH   9  24
BRANCH  13  26
ATOM     26  C   UNL     1      -1.037  -7.663   2.554  0.00  0.00    +0.131 C 
BRANCH  26  27
ATOM     27  N   UNL     1      -2.110  -6.666   2.505  0.00  0.00    -0.313 N 
ATOM     28  C   UNL     1      -3.393  -7.050   2.648  0.00  0.00    +0.216 C 
ATOM     29  O   UNL     1      -3.661  -8.221   2.817  0.00  0.00    -0.276 OA
ATOM     30  H   UNL     1      -1.896  -5.730   2.369  0.00  0.00    +0.149 HD
BRANCH  28  31
ATOM     31  C   UNL     1      -4.497  -6.025   2.597  0.00  0.00    +0.075 C 
ATOM     32  C   UNL     1      -4.342  -5.024   3.761  0.00  0.00    +0.013 C 
ATOM     33  C   UNL     1      -5.797  -4.723   4.199  0.00  0.00    +0.001 C 
ATOM     34  C   UNL     1      -6.489  -6.101   4.056  0.00  0.00    +0.001 C 
ATOM     35  C   UNL     1      -5.862  -6.710   2.784  0.00  0.00    +0.013 C 
ENDBRANCH  28  31
ENDBRANCH  26  27
ENDBRANCH  13  26
TORSDOF 6
