REMARK  Name = ZINC13623749
REMARK  8 active torsions:
REMARK  status: ('A' for Active; 'I' for Inactive)
REMARK    1  A    between atoms: C_1  and  C_2
REMARK    2  A    between atoms: C_3  and  N_15
REMARK    3  A    between atoms: C_4  and  C_14
REMARK    4  A    between atoms: N_5  and  C_7
REMARK    5  A    between atoms: C_7  and  C_8
REMARK    6  A    between atoms: C_16  and  C_18
REMARK    7  A    between atoms: C_24  and  C_33
REMARK    8  A    between atoms: C_27  and  C_29
REMARK                            x       y       z     vdW  Elec       q    Type
REMARK                         _______ _______ _______ _____ _____    ______ ____
ROOT
ATOM      1  C   UNL     1      -0.106   1.378  -4.154  0.00  0.00    +0.096 A 
ATOM      2  C   UNL     1      -0.698   0.662  -5.225  0.00  0.00    +0.149 A 
ATOM      3  N   UNL     1      -0.733   1.444  -6.270  0.00  0.00    -0.177 NA
ATOM      4  N   UNL     1      -0.177   2.679  -5.937  0.00  0.00    -0.238 N 
ATOM      5  C   UNL     1       0.199   2.637  -4.637  0.00  0.00    +0.130 A 
ATOM      6  N   UNL     1       0.781   3.712  -3.987  0.00  0.00    -0.319 N 
ATOM      7  C   UNL     1       0.713   5.010  -4.686  0.00  0.00    +0.140 C 
ATOM      8  C   UNL     1       1.037   4.782  -6.167  0.00  0.00    +0.066 C 
ATOM      9  C   UNL     1      -0.008   3.856  -6.795  0.00  0.00    +0.215 C 
ATOM     10  H   UNL     1       1.208   3.617  -3.122  0.00  0.00    +0.148 HD
ENDROOT
BRANCH   7  11
ATOM     11  C   UNL     1      -0.672   5.588  -4.550  0.00  0.00    +0.125 A 
ATOM     12  C   UNL     1      -0.967   6.883  -4.343  0.00  0.00    +0.046 A 
ATOM     13  C   UNL     1      -2.376   6.977  -4.279  0.00  0.00    +0.041 A 
ATOM     14  C   UNL     1      -2.858   5.733  -4.451  0.00  0.00    +0.195 A 
ATOM     15  O   UNL     1      -1.821   4.896  -4.621  0.00  0.00    -0.466 OA
ENDBRANCH   7  11
BRANCH   1  17
ATOM     16  N   UNL     1      -0.221  -0.377  -2.465  0.00  0.00    -0.278 N 
ATOM     17  C   UNL     1       0.131   0.881  -2.793  0.00  0.00    +0.253 C 
ATOM     18  O   UNL     1       0.646   1.606  -1.962  0.00  0.00    -0.270 OA
ATOM     19  H   UNL     1      -0.572  -0.975  -3.143  0.00  0.00    +0.155 HD
BRANCH  16  22
ATOM     20  C   UNL     1      -2.007   0.551  -0.088  0.00  0.00    +0.069 C 
ATOM     21  C   UNL     1      -0.863  -0.429  -0.044  0.00  0.00    +0.081 A 
ATOM     22  C   UNL     1      -0.079  -0.824  -1.137  0.00  0.00    +0.077 A 
ATOM     23  C   UNL     1       0.842  -1.715  -0.688  0.00  0.00    +0.058 A 
ATOM     24  N   UNL     1       0.641  -1.874   0.646  0.00  0.00    -0.262 N 
ATOM     25  N   UNL     1      -0.429  -1.053   1.021  0.00  0.00    -0.174 NA
ATOM     26  C   UNL     1       1.895  -2.403  -1.519  0.00  0.00    +0.067 C 
BRANCH  24  27
ATOM     27  C   UNL     1       1.411  -2.747   1.536  0.00  0.00    +0.179 C 
BRANCH  27  28
ATOM     28  C   UNL     1       2.579  -1.981   2.103  0.00  0.00    -0.026 A 
ATOM     29  C   UNL     1       3.789  -1.971   1.436  0.00  0.00    +0.005 A 
ATOM     30  C   UNL     1       4.860  -1.269   1.957  0.00  0.00    +0.000 A 
ATOM     31  C   UNL     1       4.720  -0.576   3.145  0.00  0.00    +0.000 A 
ATOM     32  C   UNL     1       3.509  -0.586   3.812  0.00  0.00    +0.000 A 
ATOM     33  C   UNL     1       2.437  -1.284   3.289  0.00  0.00    +0.005 A 
ENDBRANCH  27  28
ENDBRANCH  24  27
ENDBRANCH  16  22
ENDBRANCH   1  17
BRANCH   9  34
ATOM     34  C   UNL     1       0.452   3.415  -8.186  0.00  0.00    +0.412 C 
ATOM     35  F   UNL     1      -0.508   2.565  -8.747  0.00  0.00    -0.168 F 
ATOM     36  F   UNL     1       0.613   4.539  -9.002  0.00  0.00    -0.168 F 
ATOM     37  F   UNL     1       1.671   2.736  -8.081  0.00  0.00    -0.168 F 
ENDBRANCH   9  34
TORSDOF 6
