REMARK  Name = ZINC08833005
REMARK  6 active torsions:
REMARK  status: ('A' for Active; 'I' for Inactive)
REMARK    1  A    between atoms: C_3  and  N_25
REMARK    2  A    between atoms: C_4  and  N_22
REMARK    3  A    between atoms: C_6  and  C_7
REMARK    4  A    between atoms: N_9  and  C_10
REMARK    5  A    between atoms: C_10  and  N_12
REMARK    6  A    between atoms: N_12  and  C_13
REMARK                            x       y       z     vdW  Elec       q    Type
REMARK                         _______ _______ _______ _____ _____    ______ ____
ROOT
ATOM      1  C   UNL     1       3.476   7.263  -0.299  0.00  0.00    +0.250 C 
ATOM      2  O   UNL     1       2.416   7.858  -0.286  0.00  0.00    -0.270 OA
ATOM      3  N   UNL     1       3.494   5.919  -0.205  0.00  0.00    -0.264 N 
ATOM      4  H   UNL     1       4.340   5.444  -0.215  0.00  0.00    +0.157 HD
ENDROOT
BRANCH   1  10
ATOM      5  C   UNL     1       5.960   7.328  -0.428  0.00  0.00    +0.015 A 
ATOM      6  C   UNL     1       7.138   8.032  -0.546  0.00  0.00    +0.026 A 
ATOM      7  C   UNL     1       7.110   9.421  -0.643  0.00  0.00    +0.060 A 
ATOM      8  C   UNL     1       5.894  10.099  -0.628  0.00  0.00    +0.148 A 
ATOM      9  C   UNL     1       4.722   9.406  -0.517  0.00  0.00    +0.047 A 
ATOM     10  C   UNL     1       4.740   8.011  -0.419  0.00  0.00    +0.039 A 
BRANCH   7  11
ATOM     11  N   UNL     1       8.299  10.132  -0.755  0.00  0.00    -0.328 N 
ATOM     12  C   UNL     1       8.993   9.803  -2.007  0.00  0.00    +0.105 C 
ATOM     13  C   UNL     1      10.218  10.707  -2.166  0.00  0.00    +0.019 C 
ATOM     14  C   UNL     1      11.155  10.502  -0.973  0.00  0.00    +0.003 C 
ATOM     15  C   UNL     1      10.394  10.805   0.321  0.00  0.00    +0.019 C 
ATOM     16  C   UNL     1       9.164   9.899   0.408  0.00  0.00    +0.105 C 
ENDBRANCH   7  11
BRANCH   8  17
ATOM     17  N   UNL     1       5.871  11.576  -0.731  0.00  0.00    +0.058 N 
ATOM     18  O   UNL     1       4.809  12.171  -0.718  0.00  0.00    -0.126 OA
ATOM     19  O   UNL     1       6.915  12.195  -0.830  0.00  0.00    -0.126 OA
ENDBRANCH   8  17
ENDBRANCH   1  10
BRANCH   3  20
ATOM     20  C   UNL     1       2.338   5.234  -0.095  0.00  0.00    +0.141 C 
ATOM     21  S   UNL     1       0.846   6.073  -0.077  0.00  0.00    -0.018 S 
BRANCH  20  22
ATOM     22  N   UNL     1       2.357   3.890  -0.001  0.00  0.00    -0.295 N 
ATOM     23  H   UNL     1       3.204   3.421   0.069  0.00  0.00    +0.154 HD
BRANCH  22  24
ATOM     24  C   UNL     1       1.156   3.171  -0.002  0.00  0.00    +0.053 A 
ATOM     25  C   UNL     1       0.156   3.490  -0.911  0.00  0.00    +0.046 A 
ATOM     26  C   UNL     1      -1.029   2.779  -0.911  0.00  0.00    +0.061 A 
ATOM     27  C   UNL     1      -1.217   1.745  -0.009  0.00  0.00    +0.061 A 
ATOM     28  C   UNL     1      -0.224   1.428   0.901  0.00  0.00    +0.043 A 
ATOM     29  C   UNL     1       0.963   2.137   0.905  0.00  0.00    +0.064 A 
ATOM     30 CL   UNL     1       2.211   1.735   2.043  0.00  0.00    -0.082 Cl
ATOM     31 CL   UNL     1      -2.704   0.849  -0.016  0.00  0.00    -0.082 Cl
ATOM     32 CL   UNL     1      -2.279   3.177  -2.048  0.00  0.00    -0.082 Cl
ENDBRANCH  22  24
ENDBRANCH  20  22
ENDBRANCH   3  20
TORSDOF 6
