REMARK  Name = ZINC53735984
REMARK  6 active torsions:
REMARK  status: ('A' for Active; 'I' for Inactive)
REMARK    1  A    between atoms: C_1  and  C_2
REMARK    2  A    between atoms: C_7  and  N_8
REMARK    3  A    between atoms: C_12  and  N_21
REMARK    4  A    between atoms: C_16  and  C_17
REMARK    5  A    between atoms: C_17  and  C_19
REMARK    6  A    between atoms: C_17  and  O_20
REMARK                            x       y       z     vdW  Elec       q    Type
REMARK                         _______ _______ _______ _____ _____    ______ ____
ROOT
ATOM      1  N   UNL     1       0.025  -0.013   2.418  0.00  0.00    -0.294 N 
ATOM      2  C   UNL     1      -1.088   0.372   3.146  0.00  0.00    +0.074 A 
ATOM      3  C   UNL     1      -2.456   0.233   2.960  0.00  0.00    +0.030 A 
ATOM      4  C   UNL     1      -3.332   0.741   3.894  0.00  0.00    +0.025 A 
ATOM      5  C   UNL     1      -2.853   1.397   5.026  0.00  0.00    +0.027 A 
ATOM      6  C   UNL     1      -1.493   1.544   5.226  0.00  0.00    +0.052 A 
ATOM      7  C   UNL     1      -0.596   1.032   4.285  0.00  0.00    +0.091 A 
ATOM      8  N   UNL     1       0.759   1.017   4.198  0.00  0.00    -0.229 NA
ATOM      9  C   UNL     1       1.123   0.401   3.111  0.00  0.00    +0.144 A 
ENDROOT
BRANCH   1  16
ATOM     10  C   UNL     1      -0.018   1.503   0.010  0.00  0.00    +0.046 C 
ATOM     11  C   UNL     1       0.002  -0.004   0.002  0.00  0.00    -0.026 A 
ATOM     12  C   UNL     1       0.006  -0.689  -1.198  0.00  0.00    +0.020 A 
ATOM     13  C   UNL     1       0.025  -2.072  -1.206  0.00  0.00    +0.018 A 
ATOM     14  C   UNL     1       0.040  -2.773  -0.013  0.00  0.00    +0.017 A 
ATOM     15  C   UNL     1       0.037  -2.094   1.189  0.00  0.00    +0.027 A 
ATOM     16  C   UNL     1       0.023  -0.705   1.200  0.00  0.00    +0.051 A 
ATOM     17 BR   UNL     1       0.028  -3.006  -2.850  0.00  0.00    -0.050 Br
ENDBRANCH   1  16
BRANCH   5  18
ATOM     18  N   UNL     1      -3.753   1.910   5.966  0.00  0.00    -0.358 N 
ATOM     19  H   UNL     1      -4.708   1.809   5.829  0.00  0.00    +0.142 HD
ATOM     20  H   UNL     1      -3.423   2.367   6.756  0.00  0.00    +0.142 HD
ENDBRANCH   5  18
BRANCH   9  21
ATOM     21  C   UNL     1       2.550   0.182   2.678  0.00  0.00    +0.177 C 
ATOM     22  C   UNL     1       3.175  -0.926   3.526  0.00  0.00    +0.046 C 
BRANCH  21  23
ATOM     23  O   UNL     1       3.291   1.392   2.853  0.00  0.00    -0.384 OA
ATOM     24  H   UNL     1       3.315   1.710   3.766  0.00  0.00    +0.210 HD
ENDBRANCH  21  23
ENDBRANCH   9  21
TORSDOF 4
