REMARK  Name = ZINC40220895
REMARK  6 active torsions:
REMARK  status: ('A' for Active; 'I' for Inactive)
REMARK    1  A    between atoms: C_1  and  C_2
REMARK    2  A    between atoms: C_2  and  C_3
REMARK    3  A    between atoms: C_2  and  N_4
REMARK    4  A    between atoms: N_7  and  C_8
REMARK    5  A    between atoms: C_11  and  S_15
REMARK    6  A    between atoms: S_15  and  N_18
REMARK                            x       y       z     vdW  Elec       q    Type
REMARK                         _______ _______ _______ _____ _____    ______ ____
ROOT
ATOM      1  C   UNL     1      -4.092  -1.179  -2.297  0.00  0.00    +0.049 A 
ATOM      2  C   UNL     1      -3.534  -0.861  -3.528  0.00  0.00    +0.026 A 
ATOM      3  C   UNL     1      -4.303  -0.931  -4.673  0.00  0.00    +0.030 A 
ATOM      4  C   UNL     1      -5.628  -1.319  -4.595  0.00  0.00    +0.106 A 
ATOM      5  C   UNL     1      -6.188  -1.638  -3.372  0.00  0.00    +0.045 A 
ATOM      6  C   UNL     1      -5.422  -1.574  -2.223  0.00  0.00    +0.041 A 
ATOM      7 BR   UNL     1      -6.186  -2.017  -0.551  0.00  0.00    -0.048 Br
ENDROOT
BRANCH   1  11
ATOM      8  N   UNL     1      -1.682  -0.033   0.139  0.00  0.00    -0.297 N 
ATOM      9  C   UNL     1      -2.368  -0.158  -1.014  0.00  0.00    +0.304 C 
ATOM     10  O   UNL     1      -2.132   0.586  -1.946  0.00  0.00    -0.253 OA
ATOM     11  N   UNL     1      -3.315  -1.109  -1.135  0.00  0.00    -0.268 N 
ATOM     12  H   UNL     1      -1.870  -0.627   0.882  0.00  0.00    +0.151 HD
ATOM     13  H   UNL     1      -3.459  -1.745  -0.416  0.00  0.00    +0.156 HD
BRANCH   8  15
ATOM     14  C   UNL     1      -1.304   2.321   0.685  0.00  0.00    +0.027 C 
ATOM     15  C   UNL     1      -0.652   1.000   0.270  0.00  0.00    +0.068 C 
ATOM     16  C   UNL     1       0.363   0.577   1.333  0.00  0.00    +0.027 C 
ENDBRANCH   8  15
ENDBRANCH   1  11
BRANCH   4  17
ATOM     17  S   UNL     1      -6.605  -1.408  -6.059  0.00  0.00    +0.056 S 
ATOM     18  O   UNL     1      -7.960  -1.270  -5.652  0.00  0.00    -0.153 OA
ATOM     19  O   UNL     1      -6.001  -0.535  -7.004  0.00  0.00    -0.153 OA
BRANCH  17  20
ATOM     20  N   UNL     1      -6.446  -2.942  -6.662  0.00  0.00    -0.204 NA
ATOM     21  H   UNL     1      -5.887  -3.588  -6.203  0.00  0.00    +0.144 HD
ATOM     22  H   UNL     1      -6.912  -3.194  -7.474  0.00  0.00    +0.144 HD
ENDBRANCH  17  20
ENDBRANCH   4  17
TORSDOF 4
