REMARK  Name = ZINC20218672
REMARK  1 active torsions:
REMARK  status: ('A' for Active; 'I' for Inactive)
REMARK    1  A    between atoms: C_10  and  C_12
REMARK                            x       y       z     vdW  Elec       q    Type
REMARK                         _______ _______ _______ _____ _____    ______ ____
ROOT
ATOM      1  C   UNL     1      -0.017   1.376   0.010  0.00  0.00    +0.000 A 
ATOM      2  C   UNL     1       1.173   2.080   0.002  0.00  0.00    +0.000 A 
ATOM      3  C   UNL     1       2.375   1.401  -0.015  0.00  0.00    +0.002 A 
ATOM      4  C   UNL     1       2.395   0.014  -0.023  0.00  0.00    -0.054 A 
ATOM      5  C   UNL     1       1.208  -0.687  -0.013  0.00  0.00    -0.047 A 
ATOM      6  C   UNL     1       0.002  -0.004   0.002  0.00  0.00    +0.004 A 
ATOM      7  C   UNL     1       1.186  -2.194  -0.014  0.00  0.00    +0.016 C 
ATOM      8  C   UNL     1       2.554  -2.732  -0.434  0.00  0.00    -0.077 C 
ATOM      9  N   UNL     1       3.587  -2.079   0.386  0.00  0.00    +0.387 N 
ATOM     10  C   UNL     1       3.728  -0.686  -0.046  0.00  0.00    +0.001 C 
ATOM     11  H   UNL     1       3.313  -2.106   1.357  0.00  0.00    -0.085 HD
ATOM     12  H   UNL     1       4.466  -2.561   0.268  0.00  0.00    -0.085 HD
ENDROOT
BRANCH  10  13
ATOM     13  C   UNL     1       4.680   0.027   0.880  0.00  0.00    +0.074 A 
ATOM     14  C   UNL     1       5.785   0.656   0.377  0.00  0.00    +0.198 A 
ATOM     15  C   UNL     1       6.682   1.338   1.323  0.00  0.00    +0.064 A 
ATOM     16  C   UNL     1       7.828   2.001   0.879  0.00  0.00    +0.015 A 
ATOM     17  C   UNL     1       8.647   2.629   1.791  0.00  0.00    +0.001 A 
ATOM     18  C   UNL     1       8.338   2.606   3.143  0.00  0.00    +0.004 A 
ATOM     19  C   UNL     1       7.209   1.954   3.595  0.00  0.00    +0.047 A 
ATOM     20  C   UNL     1       6.370   1.314   2.692  0.00  0.00    +0.143 A 
ATOM     21  O   UNL     1       5.260   0.673   3.117  0.00  0.00    -0.422 OA
ATOM     22  C   UNL     1       4.433   0.053   2.261  0.00  0.00    +0.343 A 
ATOM     23  O   UNL     1       3.442  -0.508   2.696  0.00  0.00    -0.245 OA
ATOM     24  O   UNL     1       6.046   0.652  -0.950  0.00  0.00    -0.287 OA
ENDBRANCH  10  13
TORSDOF 1
