REMARK  Name = ZINC14274079
REMARK  7 active torsions:
REMARK  status: ('A' for Active; 'I' for Inactive)
REMARK    1  A    between atoms: C_1  and  C_2
REMARK    2  A    between atoms: C_4  and  C_34
REMARK    3  A    between atoms: C_9  and  C_11
REMARK    4  A    between atoms: C_15  and  N_17
REMARK    5  A    between atoms: N_17  and  C_18
REMARK    6  A    between atoms: C_18  and  N_20
REMARK    7  A    between atoms: C_21  and  C_23
REMARK                            x       y       z     vdW  Elec       q    Type
REMARK                         _______ _______ _______ _____ _____    ______ ____
ROOT
ATOM      1  C   UNL     1       8.484  -4.860  -0.306  0.00  0.00    +0.039 A 
ATOM      2  C   UNL     1       8.430  -6.251  -0.410  0.00  0.00    +0.015 A 
ATOM      3  C   UNL     1       7.211  -6.896  -0.404  0.00  0.00    +0.022 A 
ATOM      4  C   UNL     1       6.039  -6.169  -0.295  0.00  0.00    +0.062 A 
ATOM      5  C   UNL     1       6.083  -4.783  -0.192  0.00  0.00    +0.052 A 
ATOM      6  C   UNL     1       7.303  -4.126  -0.202  0.00  0.00    +0.038 A 
ATOM      7 CL   UNL     1       4.509  -6.989  -0.289  0.00  0.00    -0.082 Cl
ENDROOT
BRANCH   1  16
ATOM      8  C   UNL     1      14.193  -0.183  -0.213  0.00  0.00    +0.044 C 
ATOM      9  C   UNL     1      13.394  -1.459  -0.273  0.00  0.00    -0.048 A 
ATOM     10  C   UNL     1      14.047  -2.676  -0.396  0.00  0.00    +0.010 A 
ATOM     11  C   UNL     1      13.330  -3.853  -0.452  0.00  0.00    -0.006 A 
ATOM     12  C   UNL     1      11.946  -3.823  -0.386  0.00  0.00    +0.159 A 
ATOM     13  C   UNL     1      11.280  -2.592  -0.262  0.00  0.00    +0.110 A 
ATOM     14  C   UNL     1      12.020  -1.409  -0.207  0.00  0.00    +0.035 A 
ATOM     15  N   UNL     1       9.951  -2.870  -0.228  0.00  0.00    -0.209 NA
ATOM     16  C   UNL     1       9.790  -4.166  -0.313  0.00  0.00    +0.228 A 
ATOM     17  O   UNL     1      10.986  -4.775  -0.414  0.00  0.00    -0.435 OA
ATOM     18  C   UNL     1      14.050  -5.170  -0.585  0.00  0.00    +0.047 C 
ENDBRANCH   1  16
BRANCH   5  19
ATOM     19  N   UNL     1       4.894  -4.051  -0.082  0.00  0.00    -0.295 N 
ATOM     20  H   UNL     1       4.213  -4.325   0.551  0.00  0.00    +0.154 HD
BRANCH  19  21
ATOM     21  C   UNL     1       4.698  -2.966  -0.857  0.00  0.00    +0.141 C 
ATOM     22  S   UNL     1       5.944  -2.418  -1.896  0.00  0.00    -0.018 S 
BRANCH  21  23
ATOM     23  N   UNL     1       3.520  -2.312  -0.815  0.00  0.00    -0.264 N 
ATOM     24  C   UNL     1       3.323  -1.228  -1.590  0.00  0.00    +0.250 C 
ATOM     25  O   UNL     1       4.208  -0.839  -2.327  0.00  0.00    -0.270 OA
ATOM     26  H   UNL     1       2.814  -2.623  -0.227  0.00  0.00    +0.157 HD
BRANCH  24  27
ATOM     27  C   UNL     1       2.033  -0.512  -1.544  0.00  0.00    +0.041 A 
ATOM     28  C   UNL     1       1.015  -0.957  -0.697  0.00  0.00    +0.017 A 
ATOM     29  C   UNL     1      -0.188  -0.288  -0.656  0.00  0.00    +0.050 A 
ATOM     30  C   UNL     1      -0.394   0.831  -1.456  0.00  0.00    +0.162 A 
ATOM     31  C   UNL     1       0.618   1.282  -2.300  0.00  0.00    +0.163 A 
ATOM     32  C   UNL     1       1.827   0.613  -2.346  0.00  0.00    +0.062 A 
ATOM     33  O   UNL     1       0.434   2.381  -3.082  0.00  0.00    -0.485 OA
ATOM     34  C   UNL     1      -0.918   2.805  -3.287  0.00  0.00    +0.270 C 
ATOM     35  C   UNL     1      -1.634   2.803  -1.930  0.00  0.00    +0.270 C 
ATOM     36  O   UNL     1      -1.593   1.471  -1.405  0.00  0.00    -0.485 OA
ENDBRANCH  24  27
ENDBRANCH  21  23
ENDBRANCH  19  21
ENDBRANCH   5  19
TORSDOF 5
