REMARK  Name = ZINC09265884
REMARK  5 active torsions:
REMARK  status: ('A' for Active; 'I' for Inactive)
REMARK    1  A    between atoms: C_1  and  C_2
REMARK    2  A    between atoms: C_9  and  S_14
REMARK    3  A    between atoms: S_14  and  N_17
REMARK    4  A    between atoms: C_20  and  C_23
REMARK    5  A    between atoms: N_25  and  C_26
REMARK                            x       y       z     vdW  Elec       q    Type
REMARK                         _______ _______ _______ _____ _____    ______ ____
ROOT
ATOM      1  N   UNL     1       7.030   2.088  -0.351  0.00  0.00    -0.177 NA
ATOM      2  C   UNL     1       6.813   2.661  -1.687  0.00  0.00    +0.110 C 
ATOM      3  C   UNL     1       8.044   3.486  -2.075  0.00  0.00    +0.030 C 
ATOM      4  C   UNL     1       8.323   4.523  -0.985  0.00  0.00    +0.078 C 
ATOM      5  C   UNL     1       8.618   3.809   0.336  0.00  0.00    +0.030 C 
ATOM      6  C   UNL     1       7.388   2.988   0.754  0.00  0.00    +0.110 C 
ENDROOT
BRANCH   4   7
ATOM      7  C   UNL     1       9.513   5.359  -1.380  0.00  0.00    +0.220 C 
ATOM      8  O   UNL     1      10.082   5.146  -2.430  0.00  0.00    -0.275 OA
ATOM      9  N   UNL     1       9.946   6.342  -0.567  0.00  0.00    -0.285 N 
ATOM     10  H   UNL     1       9.452   6.556   0.240  0.00  0.00    +0.155 HD
BRANCH   9  11
ATOM     11  C   UNL     1      11.108   7.054  -0.886  0.00  0.00    +0.033 A 
ATOM     12  C   UNL     1      11.959   7.485   0.123  0.00  0.00    +0.025 A 
ATOM     13  C   UNL     1      13.105   8.188  -0.195  0.00  0.00    +0.022 A 
ATOM     14  C   UNL     1      13.405   8.463  -1.518  0.00  0.00    +0.041 A 
ATOM     15  C   UNL     1      12.558   8.035  -2.525  0.00  0.00    +0.022 A 
ATOM     16  C   UNL     1      11.414   7.327  -2.213  0.00  0.00    +0.025 A 
ATOM     17 CL   UNL     1      14.846   9.347  -1.914  0.00  0.00    -0.084 Cl
ENDBRANCH   9  11
ENDBRANCH   4   7
BRANCH   1  18
ATOM     18  S   UNL     1       6.868   0.460  -0.095  0.00  0.00    +0.061 S 
ATOM     19  O   UNL     1       7.642   0.151   1.056  0.00  0.00    -0.153 OA
ATOM     20  O   UNL     1       7.081  -0.172  -1.349  0.00  0.00    -0.153 OA
BRANCH  18  28
ATOM     21  C   UNL     1      -0.039   1.563  -0.028  0.00  0.00    +0.029 C 
ATOM     22  C   UNL     1      -0.023   0.033  -0.031  0.00  0.00    +0.134 C 
ATOM     23  C   UNL     1       0.692  -0.462  -1.259  0.00  0.00    +0.230 C 
ATOM     24  O   UNL     1       0.028  -0.739  -2.236  0.00  0.00    -0.274 OA
ATOM     25  N   UNL     1       2.011  -0.612  -1.333  0.00  0.00    -0.284 N 
ATOM     26  C   UNL     1       2.929  -0.337  -0.323  0.00  0.00    +0.049 A 
ATOM     27  C   UNL     1       4.260  -0.103  -0.652  0.00  0.00    +0.053 A 
ATOM     28  C   UNL     1       5.185   0.167   0.337  0.00  0.00    +0.107 A 
ATOM     29  C   UNL     1       4.800   0.207   1.665  0.00  0.00    +0.030 A 
ATOM     30  C   UNL     1       3.479  -0.021   2.007  0.00  0.00    +0.018 A 
ATOM     31  C   UNL     1       2.547  -0.289   1.019  0.00  0.00    +0.030 A 
ATOM     32  S   UNL     1       0.853  -0.571   1.443  0.00  0.00    -0.111 S 
ATOM     33  H   UNL     1       2.369  -0.945  -2.171  0.00  0.00    +0.155 HD
ENDBRANCH  18  28
ENDBRANCH   1  18
TORSDOF 4
