REMARK  Name = ZINC36796621
REMARK  6 active torsions:
REMARK  status: ('A' for Active; 'I' for Inactive)
REMARK    1  A    between atoms: C_1  and  C_2
REMARK    2  A    between atoms: C_2  and  C_4
REMARK    3  A    between atoms: C_2  and  S_16
REMARK    4  A    between atoms: N_9  and  C_10
REMARK    5  A    between atoms: S_16  and  C_17
REMARK    6  A    between atoms: N_19  and  C_23
REMARK                            x       y       z     vdW  Elec       q    Type
REMARK                         _______ _______ _______ _____ _____    ______ ____
ROOT
ATOM      1  C   UNL     1       0.389   2.792  -1.075  0.00  0.00    +0.029 C 
ATOM      2  C   UNL     1      -0.073   1.346  -0.882  0.00  0.00    +0.136 C 
ENDROOT
BRANCH   2   3
ATOM      3  C   UNL     1      -1.557   1.256  -1.130  0.00  0.00    +0.233 C 
ATOM      4  O   UNL     1      -1.970   0.851  -2.195  0.00  0.00    -0.274 OA
ATOM      5  N   UNL     1      -2.424   1.626  -0.167  0.00  0.00    -0.239 N 
ATOM      6  C   UNL     1      -3.751   1.546  -0.388  0.00  0.00    +0.306 C 
ATOM      7  O   UNL     1      -4.166   1.140  -1.456  0.00  0.00    -0.252 OA
ATOM      8  N   UNL     1      -4.619   1.916   0.575  0.00  0.00    -0.296 N 
ATOM      9  H   UNL     1      -2.094   1.950   0.685  0.00  0.00    +0.159 HD
ATOM     10  H   UNL     1      -4.288   2.240   1.427  0.00  0.00    +0.151 HD
BRANCH   8  11
ATOM     11  C   UNL     1      -6.061   1.829   0.334  0.00  0.00    +0.074 C 
ATOM     12  C   UNL     1      -6.537   3.097  -0.378  0.00  0.00    +0.022 C 
ATOM     13  C   UNL     1      -8.044   3.005  -0.629  0.00  0.00    +0.002 C 
ATOM     14  C   UNL     1      -8.776   2.865   0.707  0.00  0.00    +0.000 C 
ATOM     15  C   UNL     1      -8.300   1.597   1.419  0.00  0.00    +0.002 C 
ATOM     16  C   UNL     1      -6.793   1.688   1.670  0.00  0.00    +0.022 C 
ENDBRANCH   8  11
ENDBRANCH   2   3
BRANCH   2  17
ATOM     17  S   UNL     1       0.801   0.271  -2.053  0.00  0.00    -0.085 S 
BRANCH  17  18
ATOM     18  C   UNL     1       2.486   0.370  -1.546  0.00  0.00    +0.158 A 
ATOM     19  N   UNL     1       3.010   1.048  -0.556  0.00  0.00    -0.151 NA
ATOM     20  N   UNL     1       4.364   0.998  -0.316  0.00  0.00    -0.217 N 
ATOM     21  C   UNL     1       5.140   0.233  -1.124  0.00  0.00    +0.150 A 
ATOM     22  S   UNL     1       6.832  -0.028  -1.078  0.00  0.00    -0.023 S 
ATOM     23  S   UNL     1       3.919  -0.435  -2.244  0.00  0.00    -0.034 S 
BRANCH  20  24
ATOM     24  C   UNL     1       4.929   1.721   0.741  0.00  0.00    +0.067 A 
ATOM     25  C   UNL     1       6.053   2.508   0.523  0.00  0.00    +0.029 A 
ATOM     26  C   UNL     1       6.607   3.221   1.567  0.00  0.00    +0.022 A 
ATOM     27  C   UNL     1       6.045   3.152   2.830  0.00  0.00    +0.041 A 
ATOM     28  C   UNL     1       4.926   2.368   3.050  0.00  0.00    +0.022 A 
ATOM     29  C   UNL     1       4.363   1.658   2.008  0.00  0.00    +0.029 A 
ATOM     30 CL   UNL     1       6.747   4.049   4.140  0.00  0.00    -0.084 Cl
ENDBRANCH  20  24
ENDBRANCH  17  18
ENDBRANCH   2  17
TORSDOF 5
