REMARK  Name = ZINC16215803
REMARK  9 active torsions:
REMARK  status: ('A' for Active; 'I' for Inactive)
REMARK    1  A    between atoms: C_1  and  O_2
REMARK    2  A    between atoms: O_2  and  C_3
REMARK    3  A    between atoms: C_6  and  C_9
REMARK    4  A    between atoms: C_10  and  C_11
REMARK    5  A    between atoms: C_10  and  C_17
REMARK    6  A    between atoms: N_19  and  C_20
REMARK    7  A    between atoms: C_23  and  S_26
REMARK    8  A    between atoms: S_26  and  N_29
REMARK    9  A    between atoms: N_29  and  C_30
REMARK                            x       y       z     vdW  Elec       q    Type
REMARK                         _______ _______ _______ _____ _____    ______ ____
ROOT
ATOM      1  C   UNL     1       8.387  -0.117   0.444  0.00  0.00    +0.249 C 
ATOM      2  O   UNL     1       7.656   0.764   0.032  0.00  0.00    -0.270 OA
ATOM      3  N   UNL     1       7.899  -1.356   0.652  0.00  0.00    -0.281 N 
ATOM      4  H   UNL     1       8.463  -2.039   1.048  0.00  0.00    +0.155 HD
ENDROOT
BRANCH   3   5
ATOM      5  C   UNL     1       6.581  -1.657   0.295  0.00  0.00    +0.034 A 
ATOM      6  C   UNL     1       5.858  -2.590   1.028  0.00  0.00    +0.025 A 
ATOM      7  C   UNL     1       4.556  -2.885   0.673  0.00  0.00    +0.030 A 
ATOM      8  C   UNL     1       3.973  -2.253  -0.410  0.00  0.00    +0.109 A 
ATOM      9  C   UNL     1       4.692  -1.329  -1.145  0.00  0.00    +0.030 A 
ATOM     10  C   UNL     1       5.992  -1.024  -0.792  0.00  0.00    +0.025 A 
BRANCH   8  11
ATOM     11  S   UNL     1       2.312  -2.633  -0.860  0.00  0.00    +0.072 S 
ATOM     12  O   UNL     1       2.000  -3.877  -0.247  0.00  0.00    -0.150 OA
ATOM     13  O   UNL     1       2.214  -2.429  -2.262  0.00  0.00    -0.150 OA
BRANCH  11  14
ATOM     14  N   UNL     1       1.340  -1.498  -0.147  0.00  0.00    -0.216 N 
ATOM     15  H   UNL     1       0.802  -0.906  -0.696  0.00  0.00    +0.174 HD
BRANCH  14  16
ATOM     16  C   UNL     1       1.296  -1.391   1.247  0.00  0.00    +0.048 A 
ATOM     17  C   UNL     1       1.361  -0.142   1.851  0.00  0.00    +0.027 A 
ATOM     18  C   UNL     1       1.317  -0.039   3.227  0.00  0.00    +0.040 A 
ATOM     19  C   UNL     1       1.208  -1.179   4.005  0.00  0.00    +0.124 A 
ATOM     20  C   UNL     1       1.143  -2.425   3.405  0.00  0.00    +0.040 A 
ATOM     21  C   UNL     1       1.187  -2.533   2.029  0.00  0.00    +0.027 A 
ATOM     22  F   UNL     1       1.166  -1.076   5.351  0.00  0.00    -0.205 F 
ENDBRANCH  14  16
ENDBRANCH  11  14
ENDBRANCH   8  11
ENDBRANCH   3   5
BRANCH   1  24
ATOM     23  C   UNL     1      10.296   1.422   0.506  0.00  0.00    +0.021 C 
ATOM     24  C   UNL     1       9.803   0.171   0.715  0.00  0.00    +0.045 C 
BRANCH  23  28
ATOM     25  C   UNL     1      14.231   2.388   1.754  0.00  0.00    +0.120 A 
ATOM     26  C   UNL     1      13.705   2.973   0.608  0.00  0.00    +0.046 A 
ATOM     27  C   UNL     1      12.428   2.663   0.198  0.00  0.00    +0.011 A 
ATOM     28  C   UNL     1      11.658   1.756   0.938  0.00  0.00    -0.024 A 
ATOM     29  C   UNL     1      12.191   1.174   2.095  0.00  0.00    +0.011 A 
ATOM     30  C   UNL     1      13.471   1.487   2.492  0.00  0.00    +0.046 A 
BRANCH  25  32
ATOM     31  C   UNL     1      15.969   2.060   3.340  0.00  0.00    +0.277 C 
ATOM     32  O   UNL     1      15.491   2.697   2.154  0.00  0.00    -0.495 OA
ENDBRANCH  25  32
ENDBRANCH  23  28
BRANCH  24  33
ATOM     33  C   UNL     1      10.694  -0.901   1.217  0.00  0.00    -0.013 A 
ATOM     34  C   UNL     1      11.739  -1.373   0.423  0.00  0.00    +0.008 A 
ATOM     35  C   UNL     1      12.568  -2.368   0.898  0.00  0.00    +0.001 A 
ATOM     36  C   UNL     1      12.358  -2.906   2.155  0.00  0.00    +0.000 A 
ATOM     37  C   UNL     1      11.319  -2.447   2.945  0.00  0.00    +0.001 A 
ATOM     38  C   UNL     1      10.486  -1.448   2.483  0.00  0.00    +0.008 A 
ENDBRANCH  24  33
ENDBRANCH   1  24
TORSDOF 8
