REMARK  Name = ZINC20499721
REMARK  8 active torsions:
REMARK  status: ('A' for Active; 'I' for Inactive)
REMARK    1  A    between atoms: C_1  and  C_2
REMARK    2  A    between atoms: C_5  and  S_8
REMARK    3  A    between atoms: S_8  and  N_11
REMARK    4  A    between atoms: N_11  and  C_12
REMARK    5  A    between atoms: N_11  and  C_25
REMARK    6  A    between atoms: C_12  and  C_13
REMARK    7  A    between atoms: N_15  and  N_16
REMARK    8  A    between atoms: C_17  and  C_18
REMARK                            x       y       z     vdW  Elec       q    Type
REMARK                         _______ _______ _______ _____ _____    ______ ____
ROOT
ATOM      1  N   UNL     1       1.651  -4.999  -0.034  0.00  0.00    -0.191 N 
ENDROOT
BRANCH   1   2
ATOM      2  C   UNL     1       2.315  -5.191  -1.250  0.00  0.00    +0.087 A 
ATOM      3  C   UNL     1       2.388  -6.459  -1.810  0.00  0.00    +0.027 A 
ATOM      4  C   UNL     1       3.044  -6.645  -3.012  0.00  0.00    +0.002 A 
ATOM      5  C   UNL     1       3.628  -5.570  -3.657  0.00  0.00    +0.003 A 
ATOM      6  C   UNL     1       3.558  -4.306  -3.103  0.00  0.00    +0.040 A 
ATOM      7  C   UNL     1       2.898  -4.111  -1.904  0.00  0.00    +0.146 A 
ATOM      8  F   UNL     1       2.824  -2.874  -1.365  0.00  0.00    -0.203 F 
ENDBRANCH   1   2
BRANCH   1   9
ATOM      9  S   UNL     1       0.063  -4.530  -0.023  0.00  0.00    +0.075 S 
ATOM     10  O   UNL     1      -0.476  -4.950   1.223  0.00  0.00    -0.150 OA
ATOM     11  O   UNL     1      -0.490  -4.937  -1.267  0.00  0.00    -0.150 OA
BRANCH   9  16
ATOM     12  C   UNL     1      -0.018   1.503   0.010  0.00  0.00    +0.044 C 
ATOM     13  C   UNL     1       0.002  -0.004   0.002  0.00  0.00    -0.050 A 
ATOM     14  C   UNL     1       0.006  -0.689  -1.199  0.00  0.00    +0.005 A 
ATOM     15  C   UNL     1       0.025  -2.071  -1.206  0.00  0.00    +0.029 A 
ATOM     16  C   UNL     1       0.040  -2.768  -0.013  0.00  0.00    +0.109 A 
ATOM     17  C   UNL     1       0.037  -2.084   1.188  0.00  0.00    +0.029 A 
ATOM     18  C   UNL     1       0.023  -0.702   1.195  0.00  0.00    +0.005 A 
ENDBRANCH   9  16
ENDBRANCH   1   9
BRANCH   1  19
ATOM     19  C   UNL     1       2.360  -5.214   1.229  0.00  0.00    +0.229 C 
BRANCH  19  20
ATOM     20  C   UNL     1       2.305  -6.675   1.595  0.00  0.00    +0.251 C 
ATOM     21  O   UNL     1       1.730  -7.460   0.871  0.00  0.00    -0.272 OA
ATOM     22  N   UNL     1       2.895  -7.109   2.726  0.00  0.00    -0.206 N 
ATOM     23  H   UNL     1       3.355  -6.481   3.305  0.00  0.00    +0.177 HD
BRANCH  22  24
ATOM     24  N   UNL     1       2.844  -8.467   3.066  0.00  0.00    -0.188 NA
ATOM     25  C   UNL     1       3.412  -8.886   4.155  0.00  0.00    +0.138 C 
BRANCH  25  26
ATOM     26  C   UNL     1       3.358 -10.315   4.513  0.00  0.00    -0.005 A 
ATOM     27  C   UNL     1       2.701 -11.223   3.678  0.00  0.00    +0.010 A 
ATOM     28  C   UNL     1       2.655 -12.559   4.018  0.00  0.00    +0.016 A 
ATOM     29  C   UNL     1       3.257 -13.001   5.184  0.00  0.00    +0.018 A 
ATOM     30  C   UNL     1       3.910 -12.106   6.016  0.00  0.00    +0.016 A 
ATOM     31  C   UNL     1       3.968 -10.769   5.684  0.00  0.00    +0.010 A 
ATOM     32 BR   UNL     1       3.188 -14.834   5.643  0.00  0.00    -0.050 Br
ENDBRANCH  25  26
ENDBRANCH  22  24
ENDBRANCH  19  20
ENDBRANCH   1  19
TORSDOF 7
