REMARK  Name = ZINC09042714
REMARK  6 active torsions:
REMARK  status: ('A' for Active; 'I' for Inactive)
REMARK    1  A    between atoms: C_3  and  C_6
REMARK    2  A    between atoms: C_7  and  O_18
REMARK    3  A    between atoms: O_18  and  C_19
REMARK    4  A    between atoms: C_19  and  C_20
REMARK    5  A    between atoms: N_22  and  C_23
REMARK    6  A    between atoms: C_24  and  C_32
REMARK                            x       y       z     vdW  Elec       q    Type
REMARK                         _______ _______ _______ _____ _____    ______ ____
ROOT
ATOM      1  C   UNL     1       2.980   4.397   1.270  0.00  0.00    +0.325 C 
ENDROOT
BRANCH   1   2
ATOM      2  C   UNL     1       2.612   5.847   1.083  0.00  0.00    +0.255 C 
ATOM      3  O   UNL     1       2.488   6.302  -0.035  0.00  0.00    -0.272 OA
ATOM      4  N   UNL     1       2.421   6.637   2.158  0.00  0.00    -0.277 N 
ATOM      5  H   UNL     1       2.520   6.273   3.051  0.00  0.00    +0.155 HD
BRANCH   4   6
ATOM      6  C   UNL     1       2.083   7.971   1.986  0.00  0.00    +0.084 A 
ATOM      7  C   UNL     1       1.842   8.931   2.958  0.00  0.00    +0.068 A 
ATOM      8  C   UNL     1       1.505  10.272   2.509  0.00  0.00    -0.023 A 
ATOM      9  C   UNL     1       1.453  10.433   1.169  0.00  0.00    -0.004 A 
ATOM     10  S   UNL     1       1.851   8.841   0.505  0.00  0.00    -0.077 S 
ATOM     11  C   UNL     1       1.128  11.690   0.422  0.00  0.00    +0.043 C 
ATOM     12  C   UNL     1       0.493  12.686   1.405  0.00  0.00    +0.005 C 
ATOM     13  C   UNL     1       1.352  12.744   2.671  0.00  0.00    +0.005 C 
ATOM     14  C   UNL     1       1.219  11.434   3.451  0.00  0.00    +0.037 C 
BRANCH   7  15
ATOM     15  C   UNL     1       1.929   8.607   4.385  0.00  0.00    +0.244 C 
ATOM     16  O   UNL     1       2.986   8.732   4.974  0.00  0.00    -0.270 OA
ATOM     17  N   UNL     1       0.837   8.171   5.044  0.00  0.00    -0.325 N 
ATOM     18  H   UNL     1      -0.005   8.071   4.575  0.00  0.00    +0.145 HD
ATOM     19  H   UNL     1       0.894   7.956   5.989  0.00  0.00    +0.145 HD
ENDBRANCH   7  15
ENDBRANCH   4   6
ENDBRANCH   1   2
BRANCH   1  20
ATOM     20  O   UNL     1       3.127   3.775  -0.008  0.00  0.00    -0.476 OA
BRANCH  20  22
ATOM     21  C   UNL     1       2.477   1.488  -0.014  0.00  0.00    +0.216 A 
ATOM     22  C   UNL     1       3.460   2.455  -0.018  0.00  0.00    +0.214 A 
ATOM     23  C   UNL     1       4.818   2.062  -0.033  0.00  0.00    +0.235 A 
ATOM     24  O   UNL     1       5.717   2.887  -0.038  0.00  0.00    -0.283 OA
ATOM     25  C   UNL     1       5.107   0.614  -0.044  0.00  0.00    +0.069 A 
ATOM     26  C   UNL     1       6.419   0.141  -0.058  0.00  0.00    +0.035 A 
ATOM     27  C   UNL     1       6.652  -1.218  -0.068  0.00  0.00    +0.042 A 
ATOM     28  C   UNL     1       5.588  -2.110  -0.063  0.00  0.00    +0.023 A 
ATOM     29  C   UNL     1       4.288  -1.653  -0.048  0.00  0.00    +0.048 A 
ATOM     30  C   UNL     1       4.031  -0.287  -0.038  0.00  0.00    +0.140 A 
ATOM     31  O   UNL     1       2.764   0.175  -0.019  0.00  0.00    -0.448 OA
ATOM     32 CL   UNL     1       8.282  -1.816  -0.087  0.00  0.00    -0.084 Cl
BRANCH  21  35
ATOM     33  C   UNL     1      -1.151   1.899   0.017  0.00  0.00    +0.042 A 
ATOM     34  C   UNL     1      -0.013   1.076   0.008  0.00  0.00    +0.053 A 
ATOM     35  C   UNL     1       1.073   1.906   0.002  0.00  0.00    +0.173 A 
ATOM     36  O   UNL     1       0.625   3.178   0.013  0.00  0.00    -0.460 OA
ATOM     37  C   UNL     1      -0.717   3.178   0.026  0.00  0.00    +0.196 A 
ENDBRANCH  21  35
ENDBRANCH  20  22
ENDBRANCH   1  20
TORSDOF 6
