REMARK  Name = ZINC21664304
REMARK  11 active torsions:
REMARK  status: ('A' for Active; 'I' for Inactive)
REMARK    1  A    between atoms: C_1  and  C_2
REMARK    2  A    between atoms: C_2  and  C_3
REMARK    3  A    between atoms: C_3  and  C_4
REMARK    4  A    between atoms: C_4  and  N_5
REMARK    5  A    between atoms: N_5  and  C_6
REMARK    6  A    between atoms: C_6  and  C_7
REMARK    7  A    between atoms: C_8  and  C_10
REMARK    8  A    between atoms: C_12  and  N_22
REMARK    9  A    between atoms: C_15  and  N_16
REMARK   10  A    between atoms: N_22  and  S_23
REMARK   11  A    between atoms: S_23  and  C_26
REMARK                            x       y       z     vdW  Elec       q    Type
REMARK                         _______ _______ _______ _____ _____    ______ ____
ROOT
ATOM      1  C   UNL     1       2.321   0.234   0.783  0.00  0.00    +0.060 A 
ATOM      2  C   UNL     1       2.195   1.606   1.014  0.00  0.00    +0.039 A 
ATOM      3  C   UNL     1       3.053   2.236   1.898  0.00  0.00    +0.049 A 
ATOM      4  C   UNL     1       4.039   1.508   2.556  0.00  0.00    +0.026 A 
ATOM      5  C   UNL     1       4.171   0.153   2.333  0.00  0.00    +0.026 A 
ATOM      6  C   UNL     1       3.314  -0.495   1.453  0.00  0.00    +0.042 A 
ENDROOT
BRANCH   6   7
ATOM      7  N   UNL     1       3.444  -1.863   1.234  0.00  0.00    -0.333 N 
ATOM      8  C   UNL     1       4.694  -2.374   1.814  0.00  0.00    +0.086 C 
ATOM      9  C   UNL     1       4.837  -3.861   1.483  0.00  0.00    -0.063 C 
ATOM     10  N   UNL     1       3.677  -4.592   2.012  0.00  0.00    +0.381 N 
ATOM     11  C   UNL     1       2.427  -4.082   1.432  0.00  0.00    -0.063 C 
ATOM     12  C   UNL     1       2.284  -2.594   1.763  0.00  0.00    +0.086 C 
ATOM     13  H   UNL     1       3.772  -5.659   1.765  0.00  0.00    -0.086 HD
ATOM     14  H   UNL     1       3.635  -4.471   3.105  0.00  0.00    -0.086 HD
ENDBRANCH   6   7
BRANCH   1  16
ATOM     15  N   UNL     1       0.079  -0.414   0.053  0.00  0.00    -0.298 N 
ATOM     16  C   UNL     1       1.410  -0.445  -0.157  0.00  0.00    +0.248 C 
ATOM     17  O   UNL     1       1.860  -1.034  -1.121  0.00  0.00    -0.270 OA
BRANCH  15  18
ATOM     18  C   UNL     1      -0.470   0.381   1.154  0.00  0.00    +0.104 C 
ATOM     19  C   UNL     1      -0.645  -0.509   2.387  0.00  0.00    +0.024 C 
ENDBRANCH  15  18
BRANCH  15  20
ATOM     20  C   UNL     1      -0.818  -1.174  -0.821  0.00  0.00    +0.108 C 
BRANCH  20  21
ATOM     21  C   UNL     1      -1.242  -0.299  -2.002  0.00  0.00    +0.019 C 
BRANCH  21  23
ATOM     22  C   UNL     1      -2.603  -0.217  -4.096  0.00  0.00    +0.004 C 
ATOM     23  C   UNL     1      -2.179  -1.093  -2.915  0.00  0.00    -0.002 C 
ENDBRANCH  21  23
ENDBRANCH  20  21
ENDBRANCH  15  20
ENDBRANCH   1  16
BRANCH   3  24
ATOM     24  N   UNL     1       2.928   3.612   2.131  0.00  0.00    -0.216 N 
ATOM     25  H   UNL     1       2.800   4.303   1.285  0.00  0.00    +0.174 HD
BRANCH  24  26
ATOM     26  S   UNL     1       2.974   4.196   3.680  0.00  0.00    +0.072 S 
ATOM     27  O   UNL     1       4.151   3.671   4.278  0.00  0.00    -0.150 OA
ATOM     28  O   UNL     1       2.720   5.592   3.594  0.00  0.00    -0.150 OA
BRANCH  26  29
ATOM     29  C   UNL     1       1.611   3.489   4.544  0.00  0.00    +0.109 A 
ATOM     30  C   UNL     1       0.362   4.078   4.472  0.00  0.00    +0.029 A 
ATOM     31  C   UNL     1      -0.700   3.516   5.149  0.00  0.00    +0.006 A 
ATOM     32  C   UNL     1      -0.524   2.368   5.912  0.00  0.00    -0.044 A 
ATOM     33  C   UNL     1       0.720   1.783   5.985  0.00  0.00    -0.042 A 
ATOM     34  C   UNL     1       1.788   2.348   5.299  0.00  0.00    +0.032 A 
ATOM     35  C   UNL     1       0.982   0.533   6.784  0.00  0.00    +0.035 C 
ATOM     36  C   UNL     1      -0.140   0.296   7.793  0.00  0.00    +0.005 C 
ATOM     37  C   UNL     1      -1.480   0.367   7.052  0.00  0.00    +0.005 C 
ATOM     38  C   UNL     1      -1.724   1.816   6.636  0.00  0.00    +0.035 C 
ENDBRANCH  26  29
ENDBRANCH  24  26
ENDBRANCH   3  24
TORSDOF 9
