REMARK  Name = ZINC01252105
REMARK  7 active torsions:
REMARK  status: ('A' for Active; 'I' for Inactive)
REMARK    1  A    between atoms: C_1  and  O_2
REMARK    2  A    between atoms: O_2  and  C_3
REMARK    3  A    between atoms: C_6  and  C_13
REMARK    4  A    between atoms: C_7  and  C_11
REMARK    5  A    between atoms: C_8  and  O_9
REMARK    6  A    between atoms: O_9  and  C_10
REMARK    7  A    between atoms: C_19  and  C_21
REMARK                            x       y       z     vdW  Elec       q    Type
REMARK                         _______ _______ _______ _____ _____    ______ ____
ROOT
ATOM      1  C   UNL     1       2.382   1.319   0.892  0.00  0.00    +0.311 C 
ATOM      2  N   UNL     1       1.469   2.045  -0.001  0.00  0.00    -0.205 N 
ATOM      3  C   UNL     1       0.023   1.734  -0.021  0.00  0.00    +0.136 C 
ATOM      4  C   UNL     1      -0.446   2.382  -1.331  0.00  0.00    +0.088 C 
ATOM      5  C   UNL     1       0.739   3.223  -1.759  0.00  0.00    +0.087 C 
ATOM      6  N   UNL     1       1.739   2.993  -0.971  0.00  0.00    -0.183 NA
ATOM      7  C   UNL     1      -0.090   0.233  -0.064  0.00  0.00    +0.018 A 
ATOM      8  C   UNL     1      -1.291  -0.344  -0.433  0.00  0.00    +0.024 A 
ATOM      9  C   UNL     1      -1.425  -1.720  -0.465  0.00  0.00    +0.018 A 
ATOM     10  C   UNL     1      -0.350  -2.520  -0.121  0.00  0.00    +0.019 A 
ATOM     11  C   UNL     1       0.851  -1.949   0.241  0.00  0.00    +0.047 A 
ATOM     12  C   UNL     1       0.998  -0.562   0.265  0.00  0.00    +0.129 A 
ATOM     13  O   UNL     1       2.222  -0.071   0.586  0.00  0.00    -0.465 OA
ATOM     14 BR   UNL     1      -3.069  -2.503  -0.975  0.00  0.00    -0.050 Br
ENDROOT
BRANCH   1  18
ATOM     15  C   UNL     1       1.330   2.046   4.984  0.00  0.00    +0.162 A 
ATOM     16  C   UNL     1       0.806   0.959   4.306  0.00  0.00    +0.050 A 
ATOM     17  C   UNL     1       1.149   0.728   2.983  0.00  0.00    +0.013 A 
ATOM     18  C   UNL     1       2.015   1.577   2.330  0.00  0.00    +0.030 A 
ATOM     19  C   UNL     1       2.557   2.677   3.003  0.00  0.00    +0.117 A 
ATOM     20  C   UNL     1       2.205   2.913   4.339  0.00  0.00    +0.176 A 
BRANCH  19  21
ATOM     21  C   UNL     1       3.488   3.585   2.310  0.00  0.00    +0.391 C 
ATOM     22  O   UNL     1       3.060   4.551   1.710  0.00  0.00    -0.240 OA
ATOM     23  O   UNL     1       4.813   3.343   2.341  0.00  0.00    -0.240 OA
ENDBRANCH  19  21
BRANCH  15  25
ATOM     24  C   UNL     1       0.085   1.336   6.882  0.00  0.00    +0.277 C 
ATOM     25  O   UNL     1       0.988   2.266   6.282  0.00  0.00    -0.491 OA
ENDBRANCH  15  25
BRANCH  20  26
ATOM     26  O   UNL     1       2.721   3.980   5.001  0.00  0.00    -0.491 OA
ATOM     27  C   UNL     1       3.953   3.779   5.697  0.00  0.00    +0.277 C 
ENDBRANCH  20  26
ENDBRANCH   1  18
BRANCH   5  28
ATOM     28  C   UNL     1       0.752   4.158  -2.898  0.00  0.00    +0.087 A 
ATOM     29  C   UNL     1       1.912   4.879  -3.191  0.00  0.00    +0.029 A 
ATOM     30  C   UNL     1       1.907   5.753  -4.262  0.00  0.00    +0.004 A 
ATOM     31  C   UNL     1       0.743   5.880  -5.009  0.00  0.00    +0.020 A 
ATOM     32  C   UNL     1      -0.370   5.137  -4.665  0.00  0.00    +0.111 A 
ATOM     33  N   UNL     1      -0.340   4.306  -3.642  0.00  0.00    -0.254 NA
ENDBRANCH   5  28
TORSDOF 5
