REMARK  Name = ZINC16372383
REMARK  13 active torsions:
REMARK  status: ('A' for Active; 'I' for Inactive)
REMARK    1  A    between atoms: C_1  and  C_2
REMARK    2  A    between atoms: C_2  and  O_3
REMARK    3  A    between atoms: O_3  and  C_4
REMARK    4  A    between atoms: C_4  and  C_6
REMARK    5  A    between atoms: C_10  and  N_11
REMARK    6  A    between atoms: C_12  and  C_14
REMARK    7  A    between atoms: C_14  and  S_15
REMARK    8  A    between atoms: S_15  and  C_16
REMARK    9  A    between atoms: N_20  and  C_21
REMARK   10  A    between atoms: C_26  and  C_31
REMARK   11  A    between atoms: C_26  and  C_32
REMARK   12  A    between atoms: C_27  and  C_29
REMARK   13  A    between atoms: C_27  and  C_30
REMARK                            x       y       z     vdW  Elec       q    Type
REMARK                         _______ _______ _______ _____ _____    ______ ____
ROOT
ATOM      1  C   UNL     1      -2.317   4.394   0.037  0.00  0.00    +0.091 A 
ATOM      2  C   UNL     1      -2.059   5.819   0.049  0.00  0.00    -0.024 A 
ATOM      3  C   UNL     1      -0.754   6.176   0.039  0.00  0.00    -0.016 A 
ATOM      4  S   UNL     1       0.129   4.643   0.025  0.00  0.00    -0.079 S 
ATOM      5  C   UNL     1      -1.213   3.547   0.027  0.00  0.00    +0.086 A 
ATOM      6  C   UNL     1      -0.213   7.569   0.031  0.00  0.00    -0.041 C 
ATOM      7  C   UNL     1      -2.514   8.110   0.834  0.00  0.00    -0.069 C 
ATOM      8  C   UNL     1      -3.113   6.917   0.079  0.00  0.00    +0.024 C 
ATOM      9  C   UNL     1      -2.319   7.731   2.305  0.00  0.00    -0.010 C 
ATOM     10  C   UNL     1      -3.530   9.265   0.773  0.00  0.00    -0.010 C 
ATOM     11  C   UNL     1       0.867   7.702   1.114  0.00  0.00    -0.005 C 
ATOM     12  C   UNL     1       0.451   7.823  -1.336  0.00  0.00    -0.005 C 
ATOM     13  N   UNL     1      -1.258   8.615   0.223  0.00  0.00    +0.389 N 
ATOM     14  H   UNL     1      -1.484   9.018  -0.694  0.00  0.00    -0.084 HD
ATOM     15  H   UNL     1      -0.874   9.347   0.833  0.00  0.00    -0.084 HD
ENDROOT
BRANCH   5  16
ATOM     16  N   UNL     1      -1.195   2.161   0.019  0.00  0.00    -0.279 N 
ATOM     17  C   UNL     1      -0.018   1.503   0.010  0.00  0.00    +0.228 C 
ATOM     18  O   UNL     1       1.024   2.123   0.004  0.00  0.00    -0.275 OA
ATOM     19  H   UNL     1      -2.028   1.664   0.021  0.00  0.00    +0.155 HD
BRANCH  17  20
ATOM     20  C   UNL     1       0.002  -0.004   0.002  0.00  0.00    +0.173 C 
BRANCH  20  21
ATOM     21  S   UNL     1       1.716  -0.584  -0.018  0.00  0.00    -0.075 S 
BRANCH  21  22
ATOM     22  C   UNL     1       1.450  -2.326  -0.024  0.00  0.00    +0.210 A 
ATOM     23  N   UNL     1       0.286  -2.939  -0.011  0.00  0.00    -0.101 NA
ATOM     24  N   UNL     1       0.448  -4.212  -0.025  0.00  0.00    -0.022 NA
ATOM     25  N   UNL     1       1.704  -4.504  -0.038  0.00  0.00    -0.043 NA
ATOM     26  N   UNL     1       2.405  -3.286  -0.039  0.00  0.00    -0.217 N 
BRANCH  26  27
ATOM     27  C   UNL     1       3.858  -3.095  -0.052  0.00  0.00    +0.112 C 
ATOM     28  C   UNL     1       4.469  -3.784  -1.290  0.00  0.00    +0.027 C 
ATOM     29  C   UNL     1       5.815  -4.357  -0.778  0.00  0.00    +0.002 C 
ATOM     30  C   UNL     1       5.462  -4.837   0.651  0.00  0.00    +0.002 C 
ATOM     31  C   UNL     1       4.489  -3.764   1.181  0.00  0.00    +0.027 C 
ENDBRANCH  26  27
ENDBRANCH  21  22
ENDBRANCH  20  21
ENDBRANCH  17  20
ENDBRANCH   5  16
BRANCH   1  32
ATOM     32  C   UNL     1      -3.678   3.855   0.031  0.00  0.00    +0.342 C 
ATOM     33  O   UNL     1      -4.243   3.619   1.082  0.00  0.00    -0.245 OA
BRANCH  32  34
ATOM     34  O   UNL     1      -4.305   3.619  -1.139  0.00  0.00    -0.461 OA
BRANCH  34  36
ATOM     35  C   UNL     1      -6.197   2.883  -2.485  0.00  0.00    +0.048 C 
ATOM     36  C   UNL     1      -5.653   3.083  -1.069  0.00  0.00    +0.229 C 
ENDBRANCH  34  36
ENDBRANCH  32  34
ENDBRANCH   1  32
TORSDOF 8
