REMARK  Name = ZINC14526522
REMARK  7 active torsions:
REMARK  status: ('A' for Active; 'I' for Inactive)
REMARK    1  A    between atoms: C_1  and  C_2
REMARK    2  A    between atoms: N_5  and  C_8
REMARK    3  A    between atoms: C_8  and  C_9
REMARK    4  A    between atoms: C_15  and  C_17
REMARK    5  A    between atoms: C_17  and  S_18
REMARK    6  A    between atoms: S_18  and  C_19
REMARK    7  A    between atoms: C_19  and  C_20
REMARK                            x       y       z     vdW  Elec       q    Type
REMARK                         _______ _______ _______ _____ _____    ______ ____
ROOT
ATOM      1  C   UNL     1      -0.143  -4.380   2.730  0.00  0.00    +0.034 A 
ATOM      2  C   UNL     1      -0.911  -4.617   3.822  0.00  0.00    +0.070 A 
ATOM      3  S   UNL     1       0.338  -5.073   5.014  0.00  0.00    -0.060 S 
ATOM      4  C   UNL     1       1.682  -4.917   4.013  0.00  0.00    +0.165 A 
ATOM      5  N   UNL     1       1.160  -4.547   2.864  0.00  0.00    -0.231 NA
ATOM      6  N   UNL     1       3.020  -5.131   4.325  0.00  0.00    -0.264 N 
ATOM      7  C   UNL     1       3.369  -5.517   5.568  0.00  0.00    +0.228 C 
ATOM      8  O   UNL     1       2.516  -5.677   6.415  0.00  0.00    -0.275 OA
ATOM      9  H   UNL     1       3.702  -5.003   3.647  0.00  0.00    +0.157 HD
ENDROOT
BRANCH   1  10
ATOM     10  C   UNL     1      -0.750  -3.952   1.419  0.00  0.00    -0.022 C 
BRANCH  10  15
ATOM     11  C   UNL     1      -0.019   1.526   0.010  0.00  0.00    +0.007 C 
ATOM     12  C   UNL     1       0.002  -0.004   0.002  0.00  0.00    -0.018 C 
ATOM     13  C   UNL     1      -1.434  -0.536   0.023  0.00  0.00    -0.016 C 
ATOM     14  C   UNL     1      -1.405  -2.064   0.095  0.00  0.00    -0.078 C 
ATOM     15  N   UNL     1      -0.707  -2.487   1.315  0.00  0.00    +0.383 N 
ATOM     16  C   UNL     1       0.691  -2.042   1.269  0.00  0.00    -0.078 C 
ATOM     17  C   UNL     1       0.743  -0.513   1.242  0.00  0.00    -0.016 C 
ATOM     18  H   UNL     1      -1.162  -2.082   2.119  0.00  0.00    -0.081 HD
ENDBRANCH  10  15
ENDBRANCH   1  10
BRANCH   7  19
ATOM     19  C   UNL     1       4.819  -5.749   5.905  0.00  0.00    +0.165 C 
BRANCH  19  20
ATOM     20  S   UNL     1       4.963  -6.255   7.642  0.00  0.00    -0.144 S 
BRANCH  20  21
ATOM     21  C   UNL     1       6.745  -6.492   7.884  0.00  0.00    +0.143 C 
BRANCH  21  22
ATOM     22  C   UNL     1       7.006  -6.920   9.305  0.00  0.00    +0.121 A 
ATOM     23  N   UNL     1       8.282  -7.148   9.708  0.00  0.00    -0.310 N 
ATOM     24  H   UNL     1       9.008  -7.033   9.076  0.00  0.00    +0.170 HD
ATOM     25  C   UNL     1       8.560  -7.532  10.969  0.00  0.00    +0.260 A 
ATOM     26  O   UNL     1       9.711  -7.734  11.317  0.00  0.00    -0.267 OA
ATOM     27  C   UNL     1       7.478  -7.699  11.893  0.00  0.00    +0.075 A 
ATOM     28  C   UNL     1       7.546  -8.106  13.305  0.00  0.00    -0.023 A 
ATOM     29  C   UNL     1       6.381  -8.192  13.968  0.00  0.00    -0.004 A 
ATOM     30  S   UNL     1       5.139  -7.740  12.778  0.00  0.00    -0.073 S 
ATOM     31  C   UNL     1       6.198  -7.440  11.387  0.00  0.00    +0.116 A 
ATOM     32  N   UNL     1       6.001  -7.058  10.128  0.00  0.00    -0.226 NA
ATOM     33  C   UNL     1       6.572  -8.622  15.398  0.00  0.00    +0.043 C 
ATOM     34  C   UNL     1       7.997  -9.216  15.438  0.00  0.00    +0.010 C 
ATOM     35  C   UNL     1       8.677  -8.477  14.268  0.00  0.00    +0.037 C 
ENDBRANCH  21  22
ENDBRANCH  20  21
ENDBRANCH  19  20
ENDBRANCH   7  19
TORSDOF 6
