REMARK  Name = ZINC22635331
REMARK  14 active torsions:
REMARK  status: ('A' for Active; 'I' for Inactive)
REMARK    1  A    between atoms: C_1  and  C_2
REMARK    2  A    between atoms: C_5  and  N_9
REMARK    3  A    between atoms: C_6  and  C_8
REMARK    4  A    between atoms: C_10  and  C_12
REMARK    5  A    between atoms: C_16  and  N_17
REMARK    6  A    between atoms: C_18  and  C_20
REMARK    7  A    between atoms: C_20  and  N_21
REMARK    8  A    between atoms: N_24  and  C_27
REMARK    9  A    between atoms: C_27  and  C_28
REMARK   10  A    between atoms: C_28  and  O_29
REMARK   11  A    between atoms: C_31  and  C_35
REMARK   12  A    between atoms: C_35  and  C_36
REMARK   13  A    between atoms: C_35  and  C_37
REMARK   14  A    between atoms: C_35  and  C_38
REMARK                            x       y       z     vdW  Elec       q    Type
REMARK                         _______ _______ _______ _____ _____    ______ ____
ROOT
ATOM      1  C   UNL     1      -4.168   5.998   0.137  0.00  0.00    +0.069 A 
ATOM      2  C   UNL     1      -5.044   6.297  -0.983  0.00  0.00    -0.023 A 
ATOM      3  C   UNL     1      -6.271   6.752  -0.648  0.00  0.00    -0.004 A 
ATOM      4  S   UNL     1      -6.273   6.788   1.122  0.00  0.00    -0.077 S 
ATOM      5  C   UNL     1      -4.669   6.201   1.416  0.00  0.00    +0.084 A 
ATOM      6  C   UNL     1      -7.378   7.138  -1.581  0.00  0.00    +0.046 C 
ATOM      7  C   UNL     1      -7.048   6.587  -2.976  0.00  0.00    -0.000 C 
ATOM      8  C   UNL     1      -5.597   6.941  -3.315  0.00  0.00    +0.009 C 
ATOM      9  C   UNL     1      -4.644   6.123  -2.442  0.00  0.00    +0.037 C 
ENDROOT
BRANCH   1  11
ATOM     10  N   UNL     1      -2.582   4.170  -0.151  0.00  0.00    -0.281 N 
ATOM     11  C   UNL     1      -2.807   5.497  -0.075  0.00  0.00    +0.251 C 
ATOM     12  O   UNL     1      -1.880   6.278  -0.182  0.00  0.00    -0.270 OA
ATOM     13  H   UNL     1      -3.429   3.467  -0.142  0.00  0.00    +0.155 HD
BRANCH  10  18
ATOM     14  C   UNL     1       2.728   2.209  -0.517  0.00  0.00    +0.044 C 
ATOM     15  C   UNL     1       1.317   2.730  -0.420  0.00  0.00    -0.050 A 
ATOM     16  C   UNL     1       1.084   4.003   0.069  0.00  0.00    +0.005 A 
ATOM     17  C   UNL     1      -0.208   4.483   0.159  0.00  0.00    +0.024 A 
ATOM     18  C   UNL     1      -1.273   3.687  -0.241  0.00  0.00    +0.037 A 
ATOM     19  C   UNL     1      -1.035   2.411  -0.737  0.00  0.00    -0.029 A 
ATOM     20  C   UNL     1       0.259   1.935  -0.820  0.00  0.00    +0.008 A 
ATOM     21  C   UNL     1      -2.187   1.546  -1.178  0.00  0.00    +0.045 C 
ENDBRANCH  10  18
ENDBRANCH   1  11
BRANCH   5  22
ATOM     22  N   UNL     1      -4.039   5.987   2.632  0.00  0.00    -0.281 N 
ATOM     23  C   UNL     1      -4.691   6.243   3.783  0.00  0.00    +0.201 C 
ATOM     24  O   UNL     1      -5.830   6.660   3.755  0.00  0.00    -0.278 OA
ATOM     25  H   UNL     1      -3.006   5.609   2.657  0.00  0.00    +0.155 HD
BRANCH  23  26
ATOM     26  C   UNL     1      -4.006   6.011   5.105  0.00  0.00    +0.019 C 
BRANCH  26  27
ATOM     27  N   UNL     1      -4.922   6.362   6.199  0.00  0.00    +0.387 N 
ATOM     28  C   UNL     1      -5.207   7.804   6.205  0.00  0.00    -0.063 C 
ATOM     29  C   UNL     1      -6.223   8.116   7.307  0.00  0.00    +0.066 C 
ATOM     30  N   UNL     1      -5.684   7.683   8.604  0.00  0.00    -0.304 NA
ATOM     31  C   UNL     1      -5.399   6.241   8.598  0.00  0.00    +0.066 C 
ATOM     32  C   UNL     1      -4.383   5.929   7.496  0.00  0.00    -0.063 C 
ATOM     33  H   UNL     1      -5.869   5.829   6.030  0.00  0.00    -0.081 HD
BRANCH  30  34
ATOM     34  C   UNL     1      -6.599   8.034   9.698  0.00  0.00    +0.112 C 
BRANCH  34  35
ATOM     35  C   UNL     1      -8.021   7.606   9.330  0.00  0.00    +0.171 C 
BRANCH  35  36
ATOM     36  O   UNL     1      -8.082   6.181   9.241  0.00  0.00    -0.394 OA
ATOM     37  H   UNL     1      -9.030   5.686   8.985  0.00  0.00    +0.209 HD
ENDBRANCH  35  36
ENDBRANCH  34  35
ENDBRANCH  30  34
ENDBRANCH  26  27
ENDBRANCH  23  26
ENDBRANCH   5  22
BRANCH   7  38
ATOM     38  C   UNL     1      -7.984   7.215  -4.010  0.00  0.00    -0.035 C 
ATOM     39  C   UNL     1      -7.642   6.678  -5.401  0.00  0.00    +0.011 C 
ATOM     40  C   UNL     1      -9.433   6.860  -3.668  0.00  0.00    +0.011 C 
ATOM     41  C   UNL     1      -7.815   8.735  -3.994  0.00  0.00    +0.011 C 
ENDBRANCH   7  38
TORSDOF 9
