REMARK  Name = ZINC08895625
REMARK  5 active torsions:
REMARK  status: ('A' for Active; 'I' for Inactive)
REMARK    1  A    between atoms: C_4  and  C_7
REMARK    2  A    between atoms: C_8  and  C_31
REMARK    3  A    between atoms: C_13  and  C_15
REMARK    4  A    between atoms: N_20  and  S_21
REMARK    5  A    between atoms: S_21  and  C_24
REMARK                            x       y       z     vdW  Elec       q    Type
REMARK                         _______ _______ _______ _____ _____    ______ ____
ROOT
ATOM      1  C   UNL     1      -9.825   2.175  -1.686  0.00  0.00    +0.088 A 
ATOM      2  C   UNL     1      -9.835   2.057  -0.299  0.00  0.00    +0.048 A 
ATOM      3  S   UNL     1      -8.084   1.915   0.032  0.00  0.00    -0.051 S 
ATOM      4  C   UNL     1      -7.524   2.033  -1.661  0.00  0.00    +0.166 A 
ATOM      5  N   UNL     1      -8.663   2.159  -2.315  0.00  0.00    -0.224 NA
ATOM      6  N   UNL     1      -6.228   1.997  -2.158  0.00  0.00    -0.263 N 
ATOM      7  C   UNL     1      -5.186   1.861  -1.315  0.00  0.00    +0.238 C 
ATOM      8  O   UNL     1      -5.380   1.771  -0.121  0.00  0.00    -0.274 OA
ATOM      9  H   UNL     1      -6.073   2.069  -3.113  0.00  0.00    +0.157 HD
ENDROOT
BRANCH   1  13
ATOM     10  C   UNL     1     -13.458   2.580  -3.853  0.00  0.00    +0.000 A 
ATOM     11  C   UNL     1     -13.271   3.293  -2.682  0.00  0.00    +0.001 A 
ATOM     12  C   UNL     1     -12.094   3.166  -1.974  0.00  0.00    +0.010 A 
ATOM     13  C   UNL     1     -11.091   2.316  -2.441  0.00  0.00    +0.002 A 
ATOM     14  C   UNL     1     -11.283   1.605  -3.625  0.00  0.00    +0.010 A 
ATOM     15  C   UNL     1     -12.467   1.736  -4.321  0.00  0.00    +0.001 A 
ENDBRANCH   1  13
BRANCH   2  16
ATOM     16  C   UNL     1     -10.976   2.047   0.637  0.00  0.00    -0.009 A 
ATOM     17  C   UNL     1     -12.084   1.234   0.385  0.00  0.00    +0.009 A 
ATOM     18  C   UNL     1     -13.143   1.224   1.268  0.00  0.00    +0.001 A 
ATOM     19  C   UNL     1     -13.116   2.027   2.395  0.00  0.00    +0.000 A 
ATOM     20  C   UNL     1     -12.025   2.839   2.648  0.00  0.00    +0.001 A 
ATOM     21  C   UNL     1     -10.956   2.854   1.777  0.00  0.00    +0.009 A 
ENDBRANCH   2  16
BRANCH   7  22
ATOM     22  C   UNL     1      -3.780   1.821  -1.855  0.00  0.00    +0.166 C 
ATOM     23  C   UNL     1      -3.449   3.151  -2.566  0.00  0.00    +0.031 C 
ATOM     24  C   UNL     1      -1.969   3.397  -2.171  0.00  0.00    +0.019 C 
ATOM     25  C   UNL     1      -1.940   2.849  -0.720  0.00  0.00    +0.110 C 
ATOM     26  N   UNL     1      -2.824   1.669  -0.748  0.00  0.00    -0.165 NA
BRANCH  26  27
ATOM     27  S   UNL     1      -2.754   0.387   0.298  0.00  0.00    +0.062 S 
ATOM     28  O   UNL     1      -4.047  -0.203   0.304  0.00  0.00    -0.153 OA
ATOM     29  O   UNL     1      -2.128   0.862   1.482  0.00  0.00    -0.153 OA
BRANCH  27  30
ATOM     30  C   UNL     1      -1.662  -0.803  -0.407  0.00  0.00    +0.106 A 
ATOM     31  C   UNL     1      -2.156  -1.777  -1.255  0.00  0.00    +0.031 A 
ATOM     32  C   UNL     1      -1.301  -2.715  -1.803  0.00  0.00    +0.040 A 
ATOM     33  C   UNL     1       0.052  -2.670  -1.513  0.00  0.00    +0.124 A 
ATOM     34  C   UNL     1       0.547  -1.690  -0.669  0.00  0.00    +0.040 A 
ATOM     35  C   UNL     1      -0.311  -0.757  -0.117  0.00  0.00    +0.031 A 
ATOM     36  F   UNL     1       0.890  -3.582  -2.053  0.00  0.00    -0.205 F 
ENDBRANCH  27  30
ENDBRANCH  26  27
ENDBRANCH   7  22
TORSDOF 5
