REMARK  Name = ZINC53853448
REMARK  4 active torsions:
REMARK  status: ('A' for Active; 'I' for Inactive)
REMARK    1  A    between atoms: C_1  and  C_2
REMARK    2  A    between atoms: C_2  and  C_4
REMARK    3  A    between atoms: C_2  and  N_16
REMARK    4  A    between atoms: C_17  and  C_19
REMARK                            x       y       z     vdW  Elec       q    Type
REMARK                         _______ _______ _______ _____ _____    ______ ____
ROOT
ATOM      1  N   UNL     1      -1.372  -0.511   0.012  0.00  0.00    -0.304 N 
ATOM      2  C   UNL     1      -2.029  -0.655   1.181  0.00  0.00    +0.261 C 
ATOM      3  O   UNL     1      -1.480  -0.364   2.227  0.00  0.00    -0.269 OA
ATOM      4  H   UNL     1      -1.810  -0.743  -0.822  0.00  0.00    +0.150 HD
ENDROOT
BRANCH   2   5
ATOM      5  C   UNL     1      -3.408  -1.164   1.191  0.00  0.00    +0.103 A 
ATOM      6  C   UNL     1      -4.172  -1.347   2.300  0.00  0.00    +0.040 A 
ATOM      7  C   UNL     1      -5.428  -1.849   1.881  0.00  0.00    +0.000 A 
ATOM      8  C   UNL     1      -6.593  -2.218   2.565  0.00  0.00    +0.011 A 
ATOM      9  C   UNL     1      -7.671  -2.680   1.869  0.00  0.00    +0.016 A 
ATOM     10  C   UNL     1      -7.626  -2.788   0.484  0.00  0.00    +0.020 A 
ATOM     11  C   UNL     1      -6.492  -2.432  -0.212  0.00  0.00    +0.041 A 
ATOM     12  C   UNL     1      -5.379  -1.957   0.477  0.00  0.00    +0.048 A 
ATOM     13  N   UNL     1      -4.136  -1.527   0.074  0.00  0.00    -0.351 N 
ATOM     14  H   UNL     1      -3.822  -1.488  -0.842  0.00  0.00    +0.166 HD
ATOM     15 BR   UNL     1      -9.136  -3.432  -0.455  0.00  0.00    -0.050 Br
ENDBRANCH   2   5
BRANCH   1  17
ATOM     16  C   UNL     1      -0.019   1.526   0.010  0.00  0.00    +0.033 C 
ATOM     17  C   UNL     1       0.002  -0.004   0.002  0.00  0.00    +0.100 C 
BRANCH  17  18
ATOM     18  C   UNL     1       0.707  -0.490  -1.238  0.00  0.00    -0.025 A 
ATOM     19  C   UNL     1       0.034  -0.520  -2.447  0.00  0.00    +0.007 A 
ATOM     20  C   UNL     1       0.672  -0.964  -3.589  0.00  0.00    +0.028 A 
ATOM     21  C   UNL     1       1.993  -1.381  -3.523  0.00  0.00    +0.067 A 
ATOM     22  C   UNL     1       2.672  -1.350  -2.304  0.00  0.00    +0.067 A 
ATOM     23  C   UNL     1       2.025  -0.898  -1.164  0.00  0.00    +0.033 A 
ATOM     24  N   UNL     1       3.960  -1.820  -2.549  0.00  0.00    -0.306 N 
ATOM     25  H   UNL     1       4.665  -1.913  -1.890  0.00  0.00    +0.170 HD
ATOM     26  C   UNL     1       4.060  -2.122  -3.857  0.00  0.00    +0.325 A 
ATOM     27  O   UNL     1       5.057  -2.559  -4.402  0.00  0.00    -0.247 OA
ATOM     28  N   UNL     1       2.889  -1.868  -4.472  0.00  0.00    -0.306 N 
ATOM     29  H   UNL     1       2.702  -2.002  -5.414  0.00  0.00    +0.170 HD
ENDBRANCH  17  18
ENDBRANCH   1  17
TORSDOF 3
