REMARK  Name = ZINC31637082
REMARK  13 active torsions:
REMARK  status: ('A' for Active; 'I' for Inactive)
REMARK    1  A    between atoms: C_1  and  C_2
REMARK    2  A    between atoms: C_5  and  N_8
REMARK    3  A    between atoms: C_9  and  C_36
REMARK    4  A    between atoms: C_10  and  N_14
REMARK    5  A    between atoms: C_11  and  C_13
REMARK    6  A    between atoms: C_15  and  C_17
REMARK    7  A    between atoms: C_17  and  N_18
REMARK    8  A    between atoms: C_21  and  C_25
REMARK    9  A    between atoms: C_21  and  C_26
REMARK   10  A    between atoms: C_29  and  C_32
REMARK   11  A    between atoms: C_32  and  C_33
REMARK   12  A    between atoms: C_32  and  C_34
REMARK   13  A    between atoms: C_32  and  C_35
REMARK                            x       y       z     vdW  Elec       q    Type
REMARK                         _______ _______ _______ _____ _____    ______ ____
ROOT
ATOM      1  C   UNL     1       1.541  -1.969   0.068  0.00  0.00    +0.214 C 
ENDROOT
BRANCH   1   2
ATOM      2  N   UNL     1       1.287  -0.528   0.148  0.00  0.00    -0.215 N 
ATOM      3  C   UNL     1       0.073   0.037  -0.008  0.00  0.00    +0.251 C 
ATOM      4  O   UNL     1      -0.975  -0.530  -0.232  0.00  0.00    -0.272 OA
ATOM      5  C   UNL     1       0.291   1.528   0.154  0.00  0.00    +0.135 C 
ATOM      6  N   UNL     1       1.738   1.641   0.407  0.00  0.00    -0.281 N 
ATOM      7  C   UNL     1       2.232   0.389   0.384  0.00  0.00    +0.310 C 
ATOM      8  O   UNL     1       3.405   0.122   0.558  0.00  0.00    -0.252 OA
ATOM      9  C   UNL     1      -0.506   2.062   1.346  0.00  0.00    +0.047 C 
ATOM     10  H   UNL     1       2.193   2.629   0.567  0.00  0.00    +0.152 HD
BRANCH   5  11
ATOM     11  C   UNL     1      -0.085   2.260  -1.108  0.00  0.00    -0.015 A 
ATOM     12  C   UNL     1      -1.071   1.752  -1.934  0.00  0.00    +0.006 A 
ATOM     13  C   UNL     1      -1.419   2.425  -3.089  0.00  0.00    +0.004 A 
ATOM     14  C   UNL     1      -0.775   3.602  -3.425  0.00  0.00    -0.042 A 
ATOM     15  C   UNL     1       0.215   4.107  -2.602  0.00  0.00    +0.004 A 
ATOM     16  C   UNL     1       0.559   3.436  -1.444  0.00  0.00    +0.006 A 
BRANCH  14  17
ATOM     17  C   UNL     1      -1.150   4.333  -4.688  0.00  0.00    -0.013 C 
ATOM     18  C   UNL     1       0.073   4.435  -5.601  0.00  0.00    +0.015 C 
ATOM     19  C   UNL     1      -2.262   3.567  -5.409  0.00  0.00    +0.015 C 
ATOM     20  C   UNL     1      -1.644   5.738  -4.336  0.00  0.00    +0.015 C 
ENDBRANCH  14  17
ENDBRANCH   5  11
ENDBRANCH   1   2
BRANCH   1  22
ATOM     21  N   UNL     1       2.133  -3.626  -1.670  0.00  0.00    -0.281 N 
ATOM     22  C   UNL     1       1.863  -2.344  -1.355  0.00  0.00    +0.235 C 
ATOM     23  O   UNL     1       1.879  -1.492  -2.219  0.00  0.00    -0.274 OA
ATOM     24  H   UNL     1       2.217  -4.382  -0.875  0.00  0.00    +0.155 HD
BRANCH  21  27
ATOM     25  N   UNL     1       2.990  -5.031  -4.826  0.00  0.00    -0.235 N 
ATOM     26  C   UNL     1       3.105  -5.000  -3.470  0.00  0.00    +0.063 A 
ATOM     27  C   UNL     1       2.308  -3.999  -3.015  0.00  0.00    +0.078 A 
ATOM     28  C   UNL     1       1.687  -3.406  -4.125  0.00  0.00    +0.082 A 
ATOM     29  N   UNL     1       2.098  -4.020  -5.205  0.00  0.00    -0.170 NA
ATOM     30  C   UNL     1       0.713  -2.257  -4.080  0.00  0.00    +0.069 C 
ATOM     31  C   UNL     1       3.960  -5.911  -2.628  0.00  0.00    +0.068 C 
BRANCH  25  36
ATOM     32  C   UNL     1       5.651  -8.623  -8.323  0.00  0.00    +0.044 C 
ATOM     33  C   UNL     1       4.944  -7.669  -7.395  0.00  0.00    -0.050 A 
ATOM     34  C   UNL     1       4.403  -8.133  -6.210  0.00  0.00    +0.005 A 
ATOM     35  C   UNL     1       3.755  -7.262  -5.357  0.00  0.00    +0.028 A 
ATOM     36  C   UNL     1       3.647  -5.918  -5.690  0.00  0.00    +0.066 A 
ATOM     37  C   UNL     1       4.186  -5.456  -6.883  0.00  0.00    +0.028 A 
ATOM     38  C   UNL     1       4.838  -6.332  -7.729  0.00  0.00    +0.005 A 
ENDBRANCH  25  36
ENDBRANCH  21  27
ENDBRANCH   1  22
TORSDOF 6
