REMARK  Name = ZINC15666033
REMARK  8 active torsions:
REMARK  status: ('A' for Active; 'I' for Inactive)
REMARK    1  A    between atoms: C_1  and  C_2
REMARK    2  A    between atoms: C_5  and  N_19
REMARK    3  A    between atoms: C_7  and  S_8
REMARK    4  A    between atoms: S_8  and  N_11
REMARK    5  A    between atoms: N_11  and  C_12
REMARK    6  A    between atoms: C_20  and  C_22
REMARK    7  A    between atoms: C_24  and  C_28
REMARK    8  A    between atoms: C_26  and  C_27
REMARK                            x       y       z     vdW  Elec       q    Type
REMARK                         _______ _______ _______ _____ _____    ______ ____
ROOT
ATOM      1  C   UNL     1       3.782  -1.029  -0.235  0.00  0.00    +0.046 C 
ATOM      2  C   UNL     1       2.503  -0.249  -0.073  0.00  0.00    -0.024 A 
ATOM      3  C   UNL     1       2.548   1.123   0.096  0.00  0.00    +0.007 A 
ATOM      4  C   UNL     1       1.377   1.841   0.246  0.00  0.00    +0.024 A 
ATOM      5  C   UNL     1       0.154   1.183   0.224  0.00  0.00    +0.036 A 
ATOM      6  C   UNL     1       0.112  -0.194   0.053  0.00  0.00    +0.052 A 
ATOM      7  C   UNL     1       1.287  -0.906  -0.095  0.00  0.00    +0.113 A 
ENDROOT
BRANCH   5   8
ATOM      8  N   UNL     1      -1.034   1.908   0.369  0.00  0.00    -0.281 N 
ATOM      9  C   UNL     1      -1.074   2.979   1.186  0.00  0.00    +0.252 C 
ATOM     10  O   UNL     1      -0.059   3.366   1.732  0.00  0.00    -0.270 OA
ATOM     11  H   UNL     1      -1.828   1.639  -0.119  0.00  0.00    +0.155 HD
BRANCH   9  12
ATOM     12  C   UNL     1      -2.349   3.681   1.417  0.00  0.00    +0.078 A 
ATOM     13  C   UNL     1      -3.660   3.356   0.838  0.00  0.00    +0.057 A 
ATOM     14  C   UNL     1      -4.517   4.261   1.335  0.00  0.00    +0.103 A 
ATOM     15  O   UNL     1      -3.852   5.099   2.145  0.00  0.00    -0.464 OA
ATOM     16  C   UNL     1      -2.557   4.773   2.209  0.00  0.00    +0.114 A 
ATOM     17  C   UNL     1      -1.506   5.488   3.018  0.00  0.00    +0.087 C 
ATOM     18  C   UNL     1      -5.991   4.330   1.028  0.00  0.00    +0.086 C 
ENDBRANCH   9  12
ENDBRANCH   5   8
BRANCH   7  19
ATOM     19  S   UNL     1       1.235  -2.654  -0.311  0.00  0.00    +0.073 S 
ATOM     20  O   UNL     1      -0.134  -3.031  -0.248  0.00  0.00    -0.150 OA
ATOM     21  O   UNL     1       2.055  -2.949  -1.433  0.00  0.00    -0.150 OA
BRANCH  19  22
ATOM     22  N   UNL     1       1.974  -3.333   1.006  0.00  0.00    -0.216 N 
ATOM     23  H   UNL     1       2.813  -3.808   0.901  0.00  0.00    +0.174 HD
BRANCH  22  24
ATOM     24  C   UNL     1       1.388  -3.221   2.270  0.00  0.00    +0.048 A 
ATOM     25  C   UNL     1       0.890  -1.998   2.701  0.00  0.00    +0.025 A 
ATOM     26  C   UNL     1       0.308  -1.892   3.949  0.00  0.00    +0.017 A 
ATOM     27  C   UNL     1       0.230  -3.000   4.774  0.00  0.00    +0.018 A 
ATOM     28  C   UNL     1       0.730  -4.218   4.350  0.00  0.00    +0.017 A 
ATOM     29  C   UNL     1       1.309  -4.332   3.101  0.00  0.00    +0.025 A 
ATOM     30 BR   UNL     1      -0.562  -2.848   6.484  0.00  0.00    -0.050 Br
ENDBRANCH  22  24
ENDBRANCH  19  22
ENDBRANCH   7  19
TORSDOF 5
