REMARK  Name = ZINC08740554
REMARK  9 active torsions:
REMARK  status: ('A' for Active; 'I' for Inactive)
REMARK    1  A    between atoms: C_1  and  C_2
REMARK    2  A    between atoms: N_6  and  O_7
REMARK    3  A    between atoms: O_7  and  C_8
REMARK    4  A    between atoms: C_8  and  C_9
REMARK    5  A    between atoms: N_11  and  C_12
REMARK    6  A    between atoms: C_12  and  C_13
REMARK    7  A    between atoms: C_29  and  C_38
REMARK    8  A    between atoms: C_34  and  C_35
REMARK    9  A    between atoms: C_34  and  O_37
REMARK                            x       y       z     vdW  Elec       q    Type
REMARK                         _______ _______ _______ _____ _____    ______ ____
ROOT
ATOM      1  C   UNL     1      -0.013   1.086   0.008  0.00  0.00    +0.016 C 
ATOM      2  C   UNL     1      -0.729   1.579   1.267  0.00  0.00    -0.007 C 
ATOM      3  C   UNL     1       0.011   1.072   2.506  0.00  0.00    +0.017 C 
ATOM      4  C   UNL     1       0.012  -0.460   2.492  0.00  0.00    +0.059 C 
ATOM      5  C   UNL     1      -1.413  -0.948   2.428  0.00  0.00    +0.080 C 
ATOM      6  N   UNL     1      -1.726  -2.105   2.920  0.00  0.00    -0.089 NA
ATOM      7  C   UNL     1      -2.447  -0.110   1.808  0.00  0.00    +0.026 C 
ATOM      8  C   UNL     1      -2.143   1.064   1.274  0.00  0.00    -0.062 C 
ATOM      9  C   UNL     1      -3.215   1.929   0.660  0.00  0.00    +0.031 C 
ATOM     10  C   UNL     1      -3.276   3.259   1.397  0.00  0.00    +0.008 C 
ATOM     11  C   UNL     1      -1.948   3.633   2.049  0.00  0.00    -0.003 C 
ATOM     12  C   UNL     1      -0.750   3.114   1.275  0.00  0.00    +0.002 C 
ATOM     13  C   UNL     1       0.549   3.574   1.955  0.00  0.00    +0.005 C 
ATOM     14  C   UNL     1       0.600   5.099   1.953  0.00  0.00    +0.011 C 
ATOM     15  C   UNL     1      -0.574   5.666   2.719  0.00  0.00    +0.011 C 
ATOM     16  C   UNL     1      -1.923   5.161   2.187  0.00  0.00    +0.002 C 
ATOM     17  C   UNL     1      -2.876   5.506   3.370  0.00  0.00    +0.008 C 
ATOM     18  C   UNL     1      -2.039   5.173   4.625  0.00  0.00    +0.049 C 
ATOM     19  C   UNL     1      -0.559   5.270   4.201  0.00  0.00    +0.132 C 
ATOM     20  C   UNL     1      -0.534   7.192   2.610  0.00  0.00    +0.015 C 
ENDROOT
BRANCH  19  21
ATOM     21  C   UNL     1       0.130   6.300   4.996  0.00  0.00    -0.070 C 
ATOM     22  C   UNL     1       0.680   7.121   5.629  0.00  0.00    +0.007 C 
ENDBRANCH  19  21
BRANCH  19  23
ATOM     23  O   UNL     1       0.085   4.005   4.369  0.00  0.00    -0.376 OA
ATOM     24  H   UNL     1       0.096   3.687   5.282  0.00  0.00    +0.211 HD
ENDBRANCH  19  23
BRANCH   6  25
ATOM     25  O   UNL     1      -3.065  -2.562   2.859  0.00  0.00    -0.384 OA
BRANCH  25  26
ATOM     26  C   UNL     1      -3.265  -3.853   3.439  0.00  0.00    +0.358 C 
BRANCH  26  27
ATOM     27  C   UNL     1      -4.717  -4.237   3.320  0.00  0.00    +0.254 C 
ATOM     28  O   UNL     1      -5.503  -3.480   2.790  0.00  0.00    -0.272 OA
ATOM     29  N   UNL     1      -5.143  -5.422   3.801  0.00  0.00    -0.308 N 
ATOM     30  H   UNL     1      -4.514  -6.027   4.224  0.00  0.00    +0.149 HD
BRANCH  29  31
ATOM     31  C   UNL     1      -6.554  -5.796   3.685  0.00  0.00    +0.141 C 
BRANCH  31  32
ATOM     32  C   UNL     1      -6.766  -7.157   4.296  0.00  0.00    -0.012 A 
ATOM     33  C   UNL     1      -6.648  -8.301   3.521  0.00  0.00    +0.008 A 
ATOM     34  C   UNL     1      -6.846  -9.532   4.127  0.00  0.00    +0.020 A 
ATOM     35  C   UNL     1      -7.162  -9.577   5.472  0.00  0.00    +0.111 A 
ATOM     36  N   UNL     1      -7.271  -8.469   6.177  0.00  0.00    -0.263 NA
ATOM     37  C   UNL     1      -7.085  -7.281   5.635  0.00  0.00    +0.115 A 
ENDBRANCH  31  32
ENDBRANCH  29  31
ENDBRANCH  26  27
ENDBRANCH  25  26
ENDBRANCH   6  25
TORSDOF 7
