REMARK  Name = ZINC32972021
REMARK  14 active torsions:
REMARK  status: ('A' for Active; 'I' for Inactive)
REMARK    1  A    between atoms: C_1  and  C_2
REMARK    2  A    between atoms: C_2  and  N_3
REMARK    3  A    between atoms: C_4  and  C_33
REMARK    4  A    between atoms: C_5  and  C_9
REMARK    5  A    between atoms: C_6  and  C_8
REMARK    6  A    between atoms: C_9  and  N_10
REMARK    7  A    between atoms: N_10  and  C_11
REMARK    8  A    between atoms: N_12  and  C_13
REMARK    9  A    between atoms: C_18  and  O_19
REMARK   10  A    between atoms: O_19  and  C_20
REMARK   11  A    between atoms: N_22  and  C_23
REMARK   12  A    between atoms: C_23  and  C_25
REMARK   13  A    between atoms: C_27  and  C_32
REMARK   14  A    between atoms: C_29  and  C_31
REMARK                            x       y       z     vdW  Elec       q    Type
REMARK                         _______ _______ _______ _____ _____    ______ ____
ROOT
ATOM      1  C   UNL     1      -6.406  -0.642   2.669  0.00  0.00    +0.216 C 
ATOM      2  N   UNL     1      -6.721  -1.866   3.183  0.00  0.00    -0.323 N 
ATOM      3  N   UNL     1      -7.182   0.402   2.920  0.00  0.00    -0.141 NA
ATOM      4  H   UNL     1      -6.205  -2.647   2.929  0.00  0.00    +0.169 HD
ENDROOT
BRANCH   2   5
ATOM      5  C   UNL     1      -7.791  -1.995   4.078  0.00  0.00    +0.085 A 
ATOM      6  C   UNL     1      -8.199  -0.907   4.836  0.00  0.00    +0.049 A 
ATOM      7  C   UNL     1      -9.255  -1.036   5.719  0.00  0.00    +0.043 A 
ATOM      8  C   UNL     1      -9.907  -2.250   5.849  0.00  0.00    +0.024 A 
ATOM      9  C   UNL     1      -9.505  -3.339   5.098  0.00  0.00    +0.049 A 
ATOM     10  C   UNL     1      -8.452  -3.215   4.206  0.00  0.00    +0.143 A 
ATOM     11 CL   UNL     1      -9.764   0.326   6.667  0.00  0.00    -0.083 Cl
BRANCH  10  12
ATOM     12  O   UNL     1      -8.060  -4.283   3.461  0.00  0.00    -0.493 OA
ATOM     13  C   UNL     1      -8.783  -5.502   3.645  0.00  0.00    +0.277 C 
ENDBRANCH  10  12
ENDBRANCH   2   5
BRANCH   3  14
ATOM     14  C   UNL     1      -6.872   1.603   2.415  0.00  0.00    +0.270 C 
ATOM     15  O   UNL     1      -5.877   1.736   1.726  0.00  0.00    -0.268 OA
BRANCH  14  16
ATOM     16  C   UNL     1      -7.739   2.771   2.696  0.00  0.00    +0.039 A 
ATOM     17  C   UNL     1      -8.877   2.623   3.490  0.00  0.00    +0.016 A 
ATOM     18  C   UNL     1      -9.681   3.714   3.748  0.00  0.00    -0.049 A 
ATOM     19  C   UNL     1      -9.361   4.953   3.221  0.00  0.00    +0.006 A 
ATOM     20  C   UNL     1      -8.234   5.105   2.432  0.00  0.00    -0.049 A 
ATOM     21  C   UNL     1      -7.419   4.023   2.172  0.00  0.00    +0.016 A 
ATOM     22  C   UNL     1      -7.894   6.458   1.862  0.00  0.00    +0.044 C 
ATOM     23  C   UNL     1     -10.910   3.557   4.606  0.00  0.00    +0.044 C 
ENDBRANCH  14  16
ENDBRANCH   3  14
BRANCH   1  24
ATOM     24  N   UNL     1      -5.291  -0.493   1.896  0.00  0.00    -0.247 NA
BRANCH  24  25
ATOM     25  C   UNL     1      -4.433  -1.648   1.619  0.00  0.00    +0.184 C 
BRANCH  25  28
ATOM     26  N   UNL     1      -1.326  -0.491   0.101  0.00  0.00    -0.268 N 
ATOM     27  C   UNL     1      -2.079  -0.768   1.185  0.00  0.00    +0.041 A 
ATOM     28  C   UNL     1      -3.279  -1.219   0.750  0.00  0.00    +0.017 A 
ATOM     29  C   UNL     1      -3.258  -1.216  -0.648  0.00  0.00    +0.065 A 
ATOM     30  N   UNL     1      -2.090  -0.774  -1.039  0.00  0.00    -0.176 NA
ATOM     31  C   UNL     1      -4.388  -1.642  -1.550  0.00  0.00    +0.068 C 
ATOM     32  C   UNL     1      -1.660  -0.607   2.623  0.00  0.00    +0.065 C 
BRANCH  26  34
ATOM     33  C   UNL     1       0.018   1.552   0.119  0.00  0.00    +0.029 C 
ATOM     34  C   UNL     1       0.046   0.022   0.113  0.00  0.00    +0.140 C 
ENDBRANCH  26  34
ENDBRANCH  25  28
ENDBRANCH  24  25
ENDBRANCH   1  24
TORSDOF 8
