REMARK  Name = ZINC62824351
REMARK  4 active torsions:
REMARK  status: ('A' for Active; 'I' for Inactive)
REMARK    1  A    between atoms: C_1  and  C_2
REMARK    2  A    between atoms: C_5  and  C_8
REMARK    3  A    between atoms: C_10  and  C_13
REMARK    4  A    between atoms: C_18  and  N_19
REMARK                            x       y       z     vdW  Elec       q    Type
REMARK                         _______ _______ _______ _____ _____    ______ ____
ROOT
ATOM      1  C   UNL     1       4.320   0.114  -0.037  0.00  0.00    +0.175 A 
ATOM      2  N   UNL     1       5.413  -0.651   0.002  0.00  0.00    -0.191 NA
ATOM      3  C   UNL     1       6.489   0.098  -0.106  0.00  0.00    +0.260 A 
ATOM      4  O   UNL     1       6.094   1.378  -0.219  0.00  0.00    -0.333 OA
ATOM      5  N   UNL     1       4.675   1.360  -0.176  0.00  0.00    -0.061 NA
ENDROOT
BRANCH   1  10
ATOM      6  C   UNL     1       0.013   1.647  -0.062  0.00  0.00    +0.007 C 
ATOM      7  C   UNL     1       0.016   0.125   0.094  0.00  0.00    -0.014 C 
ATOM      8  C   UNL     1       0.700  -0.510  -1.119  0.00  0.00    +0.004 C 
ATOM      9  C   UNL     1       2.141  -0.004  -1.215  0.00  0.00    +0.011 C 
ATOM     10  C   UNL     1       2.901  -0.385   0.057  0.00  0.00    +0.060 C 
ATOM     11  C   UNL     1       2.217   0.250   1.270  0.00  0.00    +0.011 C 
ATOM     12  C   UNL     1       0.776  -0.256   1.366  0.00  0.00    +0.004 C 
ENDBRANCH   1  10
BRANCH   3  13
ATOM     13  C   UNL     1       7.884  -0.383  -0.104  0.00  0.00    +0.061 A 
ATOM     14  C   UNL     1       8.254  -1.470  -0.898  0.00  0.00    +0.029 A 
ATOM     15  C   UNL     1       9.559  -1.914  -0.892  0.00  0.00    +0.014 A 
ATOM     16  C   UNL     1      10.508  -1.287  -0.100  0.00  0.00    +0.016 A 
ATOM     17  C   UNL     1      10.157  -0.211   0.691  0.00  0.00    +0.024 A 
ATOM     18  C   UNL     1       8.848   0.253   0.693  0.00  0.00    +0.037 A 
ATOM     19  I   UNL     1      10.111  -3.546  -2.084  0.00  0.00    -0.044 I 
BRANCH  18  20
ATOM     20  N   UNL     1       8.493   1.341   1.484  0.00  0.00    -0.357 N 
ATOM     21  H   UNL     1       7.563   1.604   1.558  0.00  0.00    +0.142 HD
ATOM     22  H   UNL     1       9.177   1.836   1.962  0.00  0.00    +0.142 HD
ENDBRANCH  18  20
ENDBRANCH   3  13
TORSDOF 3
