REMARK  Name = ZINC12941652
REMARK  3 active torsions:
REMARK  status: ('A' for Active; 'I' for Inactive)
REMARK    1  A    between atoms: C_13  and  C_16
REMARK    2  A    between atoms: N_18  and  N_19
REMARK    3  A    between atoms: C_20  and  C_22
REMARK                            x       y       z     vdW  Elec       q    Type
REMARK                         _______ _______ _______ _____ _____    ______ ____
ROOT
ATOM      1  C   UNL     1       1.170   2.091   0.002  0.00  0.00    +0.002 A 
ATOM      2  C   UNL     1       2.381   1.417  -0.014  0.00  0.00    +0.004 A 
ATOM      3  C   UNL     1       2.414   0.037  -0.021  0.00  0.00    +0.048 A 
ATOM      4  C   UNL     1       1.230  -0.682  -0.013  0.00  0.00    +0.157 A 
ATOM      5  C   UNL     1       0.002  -0.004   0.002  0.00  0.00    +0.111 A 
ATOM      6  C   UNL     1      -0.017   1.391   0.010  0.00  0.00    +0.031 A 
ATOM      7  N   UNL     1      -0.970  -0.958   0.006  0.00  0.00    -0.195 NA
ATOM      8  C   UNL     1      -0.401  -2.136  -0.006  0.00  0.00    +0.291 A 
ATOM      9  O   UNL     1       0.937  -2.003  -0.018  0.00  0.00    -0.424 OA
ATOM     10  N   UNL     1      -1.074  -3.337  -0.006  0.00  0.00    -0.285 N 
ATOM     11  C   UNL     1      -2.014  -3.412  -1.132  0.00  0.00    +0.110 C 
ATOM     12  C   UNL     1      -2.846  -4.692  -1.018  0.00  0.00    +0.032 C 
ATOM     13  C   UNL     1      -1.912  -5.905  -1.027  0.00  0.00    +0.079 C 
ATOM     14  C   UNL     1      -0.912  -5.777   0.126  0.00  0.00    +0.032 C 
ATOM     15  C   UNL     1      -0.136  -4.466  -0.021  0.00  0.00    +0.110 C 
ENDROOT
BRANCH  13  16
ATOM     16  C   UNL     1      -2.719  -7.166  -0.856  0.00  0.00    +0.232 C 
ATOM     17  O   UNL     1      -2.516  -7.892   0.094  0.00  0.00    -0.274 OA
ATOM     18  N   UNL     1      -3.667  -7.486  -1.759  0.00  0.00    -0.234 N 
ATOM     19  H   UNL     1      -3.829  -6.906  -2.518  0.00  0.00    +0.173 HD
BRANCH  18  20
ATOM     20  N   UNL     1      -4.418  -8.659  -1.600  0.00  0.00    -0.228 N 
ATOM     21  C   UNL     1      -5.366  -8.979  -2.503  0.00  0.00    +0.295 C 
ATOM     22  O   UNL     1      -5.569  -8.251  -3.456  0.00  0.00    -0.265 OA
ATOM     23  H   UNL     1      -4.255  -9.239  -0.840  0.00  0.00    +0.173 HD
BRANCH  21  24
ATOM     24  C   UNL     1      -6.151 -10.207  -2.336  0.00  0.00    +0.190 A 
ATOM     25  C   UNL     1      -7.137 -10.648  -3.172  0.00  0.00    +0.054 A 
ATOM     26  C   UNL     1      -7.613 -11.853  -2.634  0.00  0.00    +0.042 A 
ATOM     27  C   UNL     1      -6.906 -12.092  -1.507  0.00  0.00    +0.196 A 
ATOM     28  O   UNL     1      -6.023 -11.100  -1.334  0.00  0.00    -0.458 OA
ENDBRANCH  21  24
ENDBRANCH  18  20
ENDBRANCH  13  16
TORSDOF 3
