REMARK  Name = ZINC02411878
REMARK  5 active torsions:
REMARK  status: ('A' for Active; 'I' for Inactive)
REMARK    1  A    between atoms: C_9  and  S_21
REMARK    2  A    between atoms: C_10  and  N_20
REMARK    3  A    between atoms: N_11  and  C_14
REMARK    4  A    between atoms: C_14  and  C_15
REMARK    5  A    between atoms: S_21  and  C_24
REMARK                            x       y       z     vdW  Elec       q    Type
REMARK                         _______ _______ _______ _____ _____    ______ ____
ROOT
ATOM      1  C   UNL     1       8.009   1.904  -4.115  0.00  0.00    +0.002 A 
ATOM      2  C   UNL     1       7.775   2.487  -5.360  0.00  0.00    +0.002 A 
ATOM      3  C   UNL     1       6.655   3.224  -5.588  0.00  0.00    +0.030 A 
ATOM      4  C   UNL     1       5.714   3.405  -4.558  0.00  0.00    +0.092 A 
ATOM      5  C   UNL     1       5.951   2.812  -3.292  0.00  0.00    +0.090 A 
ATOM      6  C   UNL     1       7.123   2.056  -3.095  0.00  0.00    +0.030 A 
ATOM      7  N   UNL     1       5.074   2.967  -2.295  0.00  0.00    -0.240 NA
ATOM      8  C   UNL     1       3.981   3.687  -2.493  0.00  0.00    +0.135 A 
ATOM      9  C   UNL     1       2.872   4.040  -1.688  0.00  0.00    +0.161 A 
ATOM     10  C   UNL     1       2.035   4.797  -2.435  0.00  0.00    +0.126 A 
ATOM     11  N   UNL     1       2.532   4.961  -3.704  0.00  0.00    -0.304 N 
ATOM     12  C   UNL     1       3.734   4.294  -3.807  0.00  0.00    +0.164 A 
ATOM     13  N   UNL     1       4.608   4.129  -4.774  0.00  0.00    -0.226 NA
ENDROOT
BRANCH  10  14
ATOM     14  N   UNL     1       0.842   5.332  -1.983  0.00  0.00    -0.343 N 
ATOM     15  H   UNL     1       0.555   5.173  -1.070  0.00  0.00    +0.144 HD
ATOM     16  H   UNL     1       0.294   5.867  -2.578  0.00  0.00    +0.144 HD
ENDBRANCH  10  14
BRANCH   9  17
ATOM     17  S   UNL     1       2.627   3.580  -0.004  0.00  0.00    +0.037 S 
ATOM     18  O   UNL     1       1.759   4.554   0.560  0.00  0.00    -0.164 OA
ATOM     19  O   UNL     1       3.913   3.304   0.532  0.00  0.00    -0.164 OA
BRANCH  17  20
ATOM     20  C   UNL     1       1.742   2.057  -0.004  0.00  0.00    +0.131 A 
ATOM     21  C   UNL     1       2.223   0.790  -0.015  0.00  0.00    +0.035 A 
ATOM     22  C   UNL     1       1.332  -0.266  -0.012  0.00  0.00    +0.009 A 
ATOM     23  C   UNL     1       0.002  -0.004   0.002  0.00  0.00    +0.047 A 
ATOM     24  S   UNL     1      -0.022   1.781   0.012  0.00  0.00    -0.078 S 
ENDBRANCH  17  20
ENDBRANCH   9  17
BRANCH  11  25
ATOM     25  C   UNL     1       1.888   5.721  -4.777  0.00  0.00    +0.199 C 
BRANCH  25  26
ATOM     26  C   UNL     1       2.352   7.154  -4.726  0.00  0.00    +0.125 A 
ATOM     27  C   UNL     1       3.425   7.657  -5.364  0.00  0.00    +0.046 A 
ATOM     28  C   UNL     1       3.486   9.032  -5.041  0.00  0.00    +0.041 A 
ATOM     29  C   UNL     1       2.453   9.285  -4.218  0.00  0.00    +0.195 A 
ATOM     30  O   UNL     1       1.769   8.145  -4.031  0.00  0.00    -0.466 OA
ENDBRANCH  25  26
ENDBRANCH  11  25
TORSDOF 5
