REMARK  Name = ZINC59931891
REMARK  5 active torsions:
REMARK  status: ('A' for Active; 'I' for Inactive)
REMARK    1  A    between atoms: C_1  and  N_2
REMARK    2  A    between atoms: C_3  and  C_5
REMARK    3  A    between atoms: C_8  and  N_11
REMARK    4  A    between atoms: C_12  and  C_14
REMARK    5  A    between atoms: C_19  and  N_20
REMARK                            x       y       z     vdW  Elec       q    Type
REMARK                         _______ _______ _______ _____ _____    ______ ____
ROOT
ATOM      1  N   UNL     1      -1.611  -6.652   1.063  0.00  0.00    -0.281 N 
ATOM      2  C   UNL     1      -0.384  -7.193   1.199  0.00  0.00    +0.250 C 
ATOM      3  O   UNL     1       0.508  -6.553   1.723  0.00  0.00    -0.270 OA
ATOM      4  H   UNL     1      -2.342  -7.188   0.717  0.00  0.00    +0.155 HD
ENDROOT
BRANCH   2   5
ATOM      5  C   UNL     1      -0.124  -8.559   0.714  0.00  0.00    +0.058 A 
ATOM      6  C   UNL     1      -1.113  -9.257   0.014  0.00  0.00    +0.018 A 
ATOM      7  C   UNL     1      -0.864 -10.533  -0.438  0.00  0.00    +0.039 A 
ATOM      8  C   UNL     1       0.366 -11.133  -0.202  0.00  0.00    +0.125 A 
ATOM      9  C   UNL     1       1.354 -10.456   0.489  0.00  0.00    +0.061 A 
ATOM     10  C   UNL     1       1.122  -9.165   0.946  0.00  0.00    +0.040 A 
ATOM     11  F   UNL     1       0.599 -12.386  -0.650  0.00  0.00    -0.205 F 
BRANCH  10  12
ATOM     12  N   UNL     1       2.114  -8.480   1.635  0.00  0.00    -0.357 N 
ATOM     13  H   UNL     1       2.114  -7.510   1.648  0.00  0.00    +0.142 HD
ATOM     14  H   UNL     1       2.807  -8.971   2.103  0.00  0.00    +0.142 HD
ENDBRANCH  10  12
ENDBRANCH   2   5
BRANCH   1  18
ATOM     15  C   UNL     1      -2.267  -2.681   2.131  0.00  0.00    +0.037 A 
ATOM     16  C   UNL     1      -1.033  -3.069   1.602  0.00  0.00    +0.015 A 
ATOM     17  C   UNL     1      -0.820  -4.383   1.250  0.00  0.00    +0.024 A 
ATOM     18  C   UNL     1      -1.831  -5.324   1.421  0.00  0.00    +0.034 A 
ATOM     19  C   UNL     1      -3.060  -4.940   1.948  0.00  0.00    +0.024 A 
ATOM     20  C   UNL     1      -3.278  -3.629   2.307  0.00  0.00    +0.015 A 
BRANCH  15  23
ATOM     21  C   UNL     1      -1.753   1.037   2.716  0.00  0.00    +0.128 C 
ATOM     22  N   UNL     1      -1.522  -0.360   2.340  0.00  0.00    -0.314 N 
ATOM     23  C   UNL     1      -2.499  -1.273   2.510  0.00  0.00    +0.244 C 
ATOM     24  O   UNL     1      -3.571  -0.938   2.975  0.00  0.00    -0.270 OA
ATOM     25  H   UNL     1      -0.667  -0.628   1.968  0.00  0.00    +0.149 HD
ENDBRANCH  15  23
ENDBRANCH   1  18
TORSDOF 4
