REMARK  Name = ZINC42272457
REMARK  4 active torsions:
REMARK  status: ('A' for Active; 'I' for Inactive)
REMARK    1  A    between atoms: C_2  and  N_22
REMARK    2  A    between atoms: C_6  and  S_7
REMARK    3  A    between atoms: S_7  and  N_10
REMARK    4  A    between atoms: C_15  and  C_17
REMARK                            x       y       z     vdW  Elec       q    Type
REMARK                         _______ _______ _______ _____ _____    ______ ____
ROOT
ATOM      1  S   UNL     1      -1.521  -0.908   0.015  0.00  0.00    +0.064 S 
ATOM      2  O   UNL     1      -1.768   0.432  -0.387  0.00  0.00    -0.153 OA
ATOM      3  O   UNL     1      -0.356  -1.286   0.736  0.00  0.00    -0.153 OA
ENDROOT
BRANCH   1   9
ATOM      4  C   UNL     1      -2.697  -1.989   2.227  0.00  0.00    +0.057 A 
ATOM      5  C   UNL     1      -3.783  -2.378   2.998  0.00  0.00    +0.062 A 
ATOM      6  C   UNL     1      -5.075  -2.176   2.527  0.00  0.00    +0.147 A 
ATOM      7  C   UNL     1      -5.274  -1.588   1.291  0.00  0.00    +0.080 A 
ATOM      8  C   UNL     1      -4.188  -1.202   0.525  0.00  0.00    +0.152 A 
ATOM      9  C   UNL     1      -2.901  -1.402   0.994  0.00  0.00    +0.142 A 
ATOM     10  F   UNL     1      -4.384  -0.628  -0.682  0.00  0.00    -0.203 F 
ATOM     11  F   UNL     1      -6.135  -2.554   3.275  0.00  0.00    -0.203 F 
BRANCH   5  12
ATOM     12  N   UNL     1      -3.578  -2.974   4.249  0.00  0.00    -0.356 N 
ATOM     13  H   UNL     1      -2.676  -3.115   4.577  0.00  0.00    +0.142 HD
ATOM     14  H   UNL     1      -4.338  -3.246   4.787  0.00  0.00    +0.142 HD
ENDBRANCH   5  12
ENDBRANCH   1   9
BRANCH   1  15
ATOM     15  N   UNL     1      -1.544  -1.828  -1.362  0.00  0.00    -0.165 NA
ATOM     16  C   UNL     1      -2.076  -1.282  -2.618  0.00  0.00    +0.110 C 
ATOM     17  C   UNL     1      -1.020  -1.450  -3.716  0.00  0.00    +0.017 C 
ATOM     18  C   UNL     1      -0.604  -2.920  -3.796  0.00  0.00    +0.003 C 
ATOM     19  C   UNL     1       0.012  -3.352  -2.463  0.00  0.00    +0.030 C 
ATOM     20  C   UNL     1      -1.026  -3.203  -1.353  0.00  0.00    +0.165 C 
BRANCH  20  21
ATOM     21  C   UNL     1      -0.384  -3.492  -0.021  0.00  0.00    +0.229 C 
ATOM     22  O   UNL     1       0.773  -3.184   0.174  0.00  0.00    -0.274 OA
ATOM     23  N   UNL     1      -1.094  -4.092   0.954  0.00  0.00    -0.328 N 
ATOM     24  H   UNL     1      -2.020  -4.338   0.799  0.00  0.00    +0.145 HD
ATOM     25  H   UNL     1      -0.681  -4.278   1.812  0.00  0.00    +0.145 HD
ENDBRANCH  20  21
ENDBRANCH   1  15
TORSDOF 4
