REMARK  Name = ZINC04212612
REMARK  9 active torsions:
REMARK  status: ('A' for Active; 'I' for Inactive)
REMARK    1  A    between atoms: C_1  and  C_2
REMARK    2  A    between atoms: C_2  and  C_4
REMARK    3  A    between atoms: C_2  and  N_10
REMARK    4  A    between atoms: C_11  and  C_13
REMARK    5  A    between atoms: C_15  and  N_22
REMARK    6  A    between atoms: C_18  and  N_19
REMARK    7  A    between atoms: N_19  and  C_20
REMARK    8  A    between atoms: N_19  and  C_21
REMARK    9  A    between atoms: N_25  and  C_26
REMARK                            x       y       z     vdW  Elec       q    Type
REMARK                         _______ _______ _______ _____ _____    ______ ____
ROOT
ATOM      1  C   UNL     1       4.772  -4.353   0.119  0.00  0.00    +0.059 A 
ATOM      2  C   UNL     1       4.744  -2.956   0.122  0.00  0.00    +0.038 A 
ATOM      3  C   UNL     1       3.531  -2.292   0.136  0.00  0.00    +0.036 A 
ATOM      4  C   UNL     1       2.340  -3.010   0.152  0.00  0.00    +0.025 A 
ATOM      5  C   UNL     1       2.357  -4.389   0.143  0.00  0.00    +0.025 A 
ATOM      6  C   UNL     1       3.567  -5.071   0.129  0.00  0.00    +0.042 A 
ENDROOT
BRANCH   3   7
ATOM      7  N   UNL     1       3.502  -0.890   0.140  0.00  0.00    -0.269 N 
ATOM      8  C   UNL     1       2.527  -0.234  -0.520  0.00  0.00    +0.308 C 
ATOM      9  O   UNL     1       1.626  -0.857  -1.049  0.00  0.00    -0.252 OA
ATOM     10  N   UNL     1       2.550   1.111  -0.595  0.00  0.00    -0.268 N 
ATOM     11  H   UNL     1       4.184  -0.392   0.617  0.00  0.00    +0.156 HD
ATOM     12  H   UNL     1       3.302   1.604  -0.231  0.00  0.00    +0.156 HD
BRANCH  10  13
ATOM     13  C   UNL     1       1.489   1.798  -1.197  0.00  0.00    +0.053 A 
ATOM     14  C   UNL     1       0.828   1.241  -2.284  0.00  0.00    +0.026 A 
ATOM     15  C   UNL     1      -0.214   1.923  -2.880  0.00  0.00    +0.022 A 
ATOM     16  C   UNL     1      -0.609   3.155  -2.389  0.00  0.00    +0.042 A 
ATOM     17  C   UNL     1       0.047   3.713  -1.306  0.00  0.00    +0.041 A 
ATOM     18  C   UNL     1       1.095   3.037  -0.709  0.00  0.00    +0.064 A 
ATOM     19 CL   UNL     1       1.918   3.737   0.650  0.00  0.00    -0.082 Cl
ATOM     20 CL   UNL     1      -1.924   4.006  -3.137  0.00  0.00    -0.083 Cl
ENDBRANCH  10  13
ENDBRANCH   3   7
BRANCH   1  22
ATOM     21  N   UNL     1       7.217  -4.375   0.094  0.00  0.00    -0.305 N 
ATOM     22  C   UNL     1       6.061  -5.069   0.104  0.00  0.00    +0.246 C 
ATOM     23  O   UNL     1       6.082  -6.285   0.101  0.00  0.00    -0.270 OA
ATOM     24  H   UNL     1       7.200  -3.405   0.096  0.00  0.00    +0.150 HD
BRANCH  21  26
ATOM     25  C   UNL     1       8.868  -5.440  -1.363  0.00  0.00    +0.033 C 
ATOM     26  C   UNL     1       8.498  -5.086   0.079  0.00  0.00    +0.100 C 
BRANCH  26  27
ATOM     27  C   UNL     1       9.568  -4.205   0.670  0.00  0.00    -0.027 A 
ATOM     28  C   UNL     1       9.593  -2.855   0.376  0.00  0.00    +0.005 A 
ATOM     29  C   UNL     1      10.572  -2.046   0.922  0.00  0.00    +0.000 A 
ATOM     30  C   UNL     1      11.532  -2.590   1.755  0.00  0.00    +0.000 A 
ATOM     31  C   UNL     1      11.510  -3.941   2.045  0.00  0.00    +0.000 A 
ATOM     32  C   UNL     1      10.528  -4.749   1.503  0.00  0.00    +0.005 A 
ENDBRANCH  26  27
ENDBRANCH  21  26
ENDBRANCH   1  22
BRANCH   6  33
ATOM     33  N   UNL     1       3.584  -6.462   0.126  0.00  0.00    -0.335 N 
ATOM     34  C   UNL     1       2.916  -6.999   1.319  0.00  0.00    +0.129 C 
ATOM     35  C   UNL     1       2.976  -6.993  -1.101  0.00  0.00    +0.129 C 
ENDBRANCH   6  33
TORSDOF 6
