REMARK  Name = ZINC67106430
REMARK  7 active torsions:
REMARK  status: ('A' for Active; 'I' for Inactive)
REMARK    1  A    between atoms: C_1  and  C_2
REMARK    2  A    between atoms: N_9  and  N_10
REMARK    3  A    between atoms: C_11  and  C_13
REMARK    4  A    between atoms: C_13  and  C_14
REMARK    5  A    between atoms: C_17  and  C_24
REMARK    6  A    between atoms: C_20  and  C_22
REMARK    7  A    between atoms: C_20  and  C_23
REMARK                            x       y       z     vdW  Elec       q    Type
REMARK                         _______ _______ _______ _____ _____    ______ ____
ROOT
ATOM      1  N   UNL     1       0.071  -4.702   1.273  0.00  0.00    -0.234 N 
ATOM      2  C   UNL     1       0.089  -6.049   1.312  0.00  0.00    +0.229 C 
ATOM      3  O   UNL     1       0.093  -6.686   0.280  0.00  0.00    -0.274 OA
ATOM      4  H   UNL     1       0.069  -4.193   2.098  0.00  0.00    +0.173 HD
ENDROOT
BRANCH   1  13
ATOM      5  C   UNL     1      -0.018   1.503   0.010  0.00  0.00    +0.073 C 
ATOM      6  C   UNL     1       0.002  -0.004   0.002  0.00  0.00    +0.127 A 
ATOM      7  C   UNL     1       0.006  -0.704  -1.206  0.00  0.00    +0.296 A 
ATOM      8  O   UNL     1      -0.008  -0.042  -2.388  0.00  0.00    -0.264 OA
ATOM      9  N   UNL     1       0.024  -2.032  -1.173  0.00  0.00    -0.172 NA
ATOM     10  C   UNL     1       0.038  -2.654  -0.001  0.00  0.00    +0.255 A 
ATOM     11  N   UNL     1       0.034  -1.965   1.133  0.00  0.00    -0.111 NA
ATOM     12  N   UNL     1       0.022  -0.678   1.136  0.00  0.00    -0.146 NA
ATOM     13  N   UNL     1       0.057  -4.037   0.039  0.00  0.00    -0.231 N 
ATOM     14  H   UNL     1       0.059  -4.546  -0.786  0.00  0.00    +0.173 HD
ENDBRANCH   1  13
BRANCH   2  15
ATOM     15  C   UNL     1       0.105  -6.764   2.638  0.00  0.00    +0.101 C 
BRANCH  15  16
ATOM     16  C   UNL     1       0.124  -8.279   2.402  0.00  0.00    -0.001 C 
ATOM     17  C   UNL     1      -1.187  -8.698   1.739  0.00  0.00    +0.007 C 
ATOM     18  C   UNL     1      -1.208 -10.199   1.488  0.00  0.00    -0.013 C 
ATOM     19  C   UNL     1      -0.877 -11.014   2.722  0.00  0.00    +0.009 C 
ATOM     20  C   UNL     1       0.287 -10.506   3.554  0.00  0.00    -0.034 C 
ATOM     21  C   UNL     1       0.249  -8.994   3.746  0.00  0.00    +0.010 C 
ATOM     22  C   UNL     1       0.197 -11.159   4.950  0.00  0.00    +0.011 C 
ATOM     23  C   UNL     1       1.626 -10.923   2.938  0.00  0.00    +0.011 C 
ATOM     24  C   UNL     1      -0.303 -10.562   0.311  0.00  0.00    +0.007 C 
ENDBRANCH  15  16
ENDBRANCH   2  15
TORSDOF 3
