REMARK  Name = ZINC16609134
REMARK  10 active torsions:
REMARK  status: ('A' for Active; 'I' for Inactive)
REMARK    1  A    between atoms: C_1  and  C_2
REMARK    2  A    between atoms: C_2  and  N_3
REMARK    3  A    between atoms: C_4  and  C_33
REMARK    4  A    between atoms: C_5  and  C_28
REMARK    5  A    between atoms: C_6  and  C_11
REMARK    6  A    between atoms: C_14  and  N_17
REMARK    7  A    between atoms: C_18  and  C_20
REMARK    8  A    between atoms: C_28  and  O_30
REMARK    9  A    between atoms: O_30  and  C_31
REMARK   10  A    between atoms: C_31  and  C_32
REMARK                            x       y       z     vdW  Elec       q    Type
REMARK                         _______ _______ _______ _____ _____    ______ ____
ROOT
ATOM      1  C   UNL     1      -2.000   1.242   1.055  0.00  0.00    -0.022 A 
ATOM      2  C   UNL     1      -1.435   1.230   2.317  0.00  0.00    +0.007 A 
ATOM      3  C   UNL     1      -2.226   1.008   3.427  0.00  0.00    +0.023 A 
ATOM      4  C   UNL     1      -3.588   0.785   3.274  0.00  0.00    +0.034 A 
ATOM      5  C   UNL     1      -4.152   0.792   2.005  0.00  0.00    +0.023 A 
ATOM      6  C   UNL     1      -3.356   1.021   0.899  0.00  0.00    +0.007 A 
ENDROOT
BRANCH   1  10
ATOM      7  N   UNL     1       1.294   2.813  -0.181  0.00  0.00    -0.286 N 
ATOM      8  C   UNL     1       0.168   3.560  -0.369  0.00  0.00    +0.021 C 
ATOM      9  C   UNL     1      -1.057   2.989  -0.366  0.00  0.00    +0.078 C 
ATOM     10  C   UNL     1      -1.135   1.491  -0.154  0.00  0.00    +0.141 C 
ATOM     11  N   UNL     1       0.138   0.777   0.044  0.00  0.00    -0.315 N 
ATOM     12  C   UNL     1       1.282   1.488   0.015  0.00  0.00    +0.138 C 
ATOM     13  S   UNL     1       2.770   0.671   0.237  0.00  0.00    -0.018 S 
ATOM     14  C   UNL     1       0.292   5.047  -0.583  0.00  0.00    +0.061 C 
ATOM     15  H   UNL     1       0.152  -0.182   0.188  0.00  0.00    +0.149 HD
BRANCH   7  17
ATOM     16  C   UNL     1       3.064   3.658  -1.642  0.00  0.00    +0.025 C 
ATOM     17  C   UNL     1       2.589   3.498  -0.197  0.00  0.00    +0.109 C 
ENDBRANCH   7  17
BRANCH   9  18
ATOM     18  C   UNL     1      -2.225   3.762  -0.560  0.00  0.00    +0.339 C 
ATOM     19  O   UNL     1      -2.137   4.964  -0.734  0.00  0.00    -0.245 OA
BRANCH  18  20
ATOM     20  O   UNL     1      -3.436   3.168  -0.553  0.00  0.00    -0.462 OA
BRANCH  20  21
ATOM     21  C   UNL     1      -4.573   4.010  -0.755  0.00  0.00    +0.229 C 
ATOM     22  C   UNL     1      -5.848   3.165  -0.715  0.00  0.00    +0.048 C 
ENDBRANCH  20  21
ENDBRANCH  18  20
ENDBRANCH   9  18
ENDBRANCH   1  10
BRANCH   4  23
ATOM     23  N   UNL     1      -4.391   0.554   4.396  0.00  0.00    -0.282 N 
ATOM     24  C   UNL     1      -4.135   1.198   5.552  0.00  0.00    +0.248 C 
ATOM     25  O   UNL     1      -3.164   1.924   5.641  0.00  0.00    -0.270 OA
ATOM     26  H   UNL     1      -5.132  -0.070   4.342  0.00  0.00    +0.155 HD
BRANCH  24  27
ATOM     27  C   UNL     1      -5.035   1.021   6.711  0.00  0.00    +0.040 A 
ATOM     28  C   UNL     1      -6.154   0.193   6.610  0.00  0.00    +0.033 A 
ATOM     29  C   UNL     1      -6.988   0.028   7.698  0.00  0.00    +0.043 A 
ATOM     30  C   UNL     1      -6.722   0.690   8.884  0.00  0.00    +0.040 A 
ATOM     31  C   UNL     1      -5.617   1.518   8.989  0.00  0.00    +0.043 A 
ATOM     32  C   UNL     1      -4.773   1.687   7.910  0.00  0.00    +0.033 A 
ATOM     33 CL   UNL     1      -5.293   2.345  10.481  0.00  0.00    -0.083 Cl
ATOM     34 CL   UNL     1      -8.376  -1.008   7.576  0.00  0.00    -0.083 Cl
ENDBRANCH  24  27
ENDBRANCH   4  23
TORSDOF 7
