REMARK  Name = ZINC36862334
REMARK  6 active torsions:
REMARK  status: ('A' for Active; 'I' for Inactive)
REMARK    1  A    between atoms: C_1  and  C_2
REMARK    2  A    between atoms: C_6  and  C_20
REMARK    3  A    between atoms: C_7  and  N_8
REMARK    4  A    between atoms: C_9  and  C_11
REMARK    5  A    between atoms: C_13  and  N_19
REMARK    6  A    between atoms: N_15  and  C_16
REMARK                            x       y       z     vdW  Elec       q    Type
REMARK                         _______ _______ _______ _____ _____    ______ ____
ROOT
ATOM      1  N   UNL     1      -1.008   0.085   2.460  0.00  0.00    -0.280 N 
ATOM      2  C   UNL     1      -0.902  -0.640   3.592  0.00  0.00    +0.265 C 
ATOM      3  O   UNL     1      -1.042  -1.848   3.556  0.00  0.00    -0.268 OA
ATOM      4  H   UNL     1      -0.943   1.052   2.495  0.00  0.00    +0.155 HD
ENDROOT
BRANCH   1  11
ATOM      5  C   UNL     1       0.847  -1.923   1.669  0.00  0.00    +0.046 C 
ATOM      6  C   UNL     1      -0.332  -1.544   0.810  0.00  0.00    -0.028 A 
ATOM      7  C   UNL     1      -0.540  -2.181  -0.397  0.00  0.00    +0.020 A 
ATOM      8  C   UNL     1      -1.622  -1.833  -1.187  0.00  0.00    +0.018 A 
ATOM      9  C   UNL     1      -2.499  -0.848  -0.769  0.00  0.00    +0.020 A 
ATOM     10  C   UNL     1      -2.296  -0.208   0.438  0.00  0.00    -0.028 A 
ATOM     11  C   UNL     1      -1.214  -0.558   1.235  0.00  0.00    +0.040 A 
ATOM     12  C   UNL     1      -3.250   0.867   0.892  0.00  0.00    +0.046 C 
ATOM     13 BR   UNL     1      -1.903  -2.707  -2.840  0.00  0.00    -0.050 Br
ENDBRANCH   1  11
BRANCH   2  14
ATOM     14  C   UNL     1      -0.618   0.028   4.865  0.00  0.00    +0.107 A 
ATOM     15  C   UNL     1      -0.607  -0.565   6.111  0.00  0.00    +0.055 A 
ATOM     16  C   UNL     1      -0.289   0.435   7.042  0.00  0.00    +0.043 A 
ATOM     17  C   UNL     1      -0.114   1.596   6.359  0.00  0.00    +0.109 A 
ATOM     18  N   UNL     1      -0.307   1.358   5.034  0.00  0.00    -0.338 N 
BRANCH  18  19
ATOM     19  C   UNL     1      -0.203   2.353   3.963  0.00  0.00    +0.088 C 
ATOM     20  C   UNL     1       0.192   3.777   4.358  0.00  0.00    +0.027 C 
ATOM     21  C   UNL     1      -1.246   3.472   3.935  0.00  0.00    +0.027 C 
ENDBRANCH  18  19
BRANCH  16  22
ATOM     22  N   UNL     1      -0.172   0.265   8.434  0.00  0.00    -0.357 N 
ATOM     23  H   UNL     1      -0.316  -0.609   8.830  0.00  0.00    +0.142 HD
ATOM     24  H   UNL     1       0.053   1.022   8.997  0.00  0.00    +0.142 HD
ENDBRANCH  16  22
ENDBRANCH   2  14
TORSDOF 4
