REMARK  Name = ZINC12659004
REMARK  6 active torsions:
REMARK  status: ('A' for Active; 'I' for Inactive)
REMARK    1  A    between atoms: C_1  and  C_2
REMARK    2  A    between atoms: N_6  and  N_7
REMARK    3  A    between atoms: C_8  and  C_10
REMARK    4  A    between atoms: C_27  and  C_43
REMARK    5  A    between atoms: N_33  and  N_34
REMARK    6  A    between atoms: C_35  and  C_37
REMARK                            x       y       z     vdW  Elec       q    Type
REMARK                         _______ _______ _______ _____ _____    ______ ____
ROOT
ATOM      1  C   UNL     1       6.450   7.818   0.697  0.00  0.00    +0.012 C 
ATOM      2  C   UNL     1       5.913   7.588  -0.718  0.00  0.00    -0.025 C 
ATOM      3  C   UNL     1       4.546   8.262  -0.862  0.00  0.00    +0.013 C 
ATOM      4  C   UNL     1       3.602   7.729   0.213  0.00  0.00    +0.053 C 
ATOM      5  C   UNL     1       3.553   6.221   0.097  0.00  0.00    +0.037 C 
ATOM      6  N   UNL     1       2.435   5.603   0.008  0.00  0.00    -0.189 NA
ATOM      7  C   UNL     1       4.862   5.464   0.084  0.00  0.00    +0.056 C 
ATOM      8  C   UNL     1       5.782   6.086  -0.975  0.00  0.00    +0.001 C 
ATOM      9  C   UNL     1       7.155   5.415  -0.882  0.00  0.00    +0.005 C 
ATOM     10  C   UNL     1       8.107   6.042  -1.902  0.00  0.00    +0.004 C 
ATOM     11  C   UNL     1       8.246   7.539  -1.617  0.00  0.00    -0.003 C 
ATOM     12  C   UNL     1       6.877   8.203  -1.736  0.00  0.00    -0.001 C 
ATOM     13  C   UNL     1       6.337   7.961  -3.151  0.00  0.00    +0.005 C 
ATOM     14  C   UNL     1       7.273   8.645  -4.147  0.00  0.00    +0.013 C 
ATOM     15  C   UNL     1       8.681   8.104  -4.038  0.00  0.00    +0.011 C 
ATOM     16  C   UNL     1       9.237   8.158  -2.604  0.00  0.00    +0.004 C 
ATOM     17  C   UNL     1      10.438   7.171  -2.707  0.00  0.00    +0.010 C 
ATOM     18  C   UNL     1       9.902   6.047  -3.621  0.00  0.00    +0.053 C 
ATOM     19  C   UNL     1       8.783   6.654  -4.448  0.00  0.00    +0.043 C 
ATOM     20  N   UNL     1       8.065   6.054  -5.322  0.00  0.00    -0.188 NA
ATOM     21  C   UNL     1       9.588   8.935  -4.948  0.00  0.00    +0.018 C 
ENDROOT
BRANCH   6  22
ATOM     22  N   UNL     1       2.405   4.203   0.034  0.00  0.00    -0.203 N 
ATOM     23  C   UNL     1       1.243   3.551  -0.169  0.00  0.00    +0.263 C 
ATOM     24  O   UNL     1       0.222   4.177  -0.374  0.00  0.00    -0.268 OA
ATOM     25  H   UNL     1       3.219   3.703   0.197  0.00  0.00    +0.178 HD
BRANCH  23  26
ATOM     26  C   UNL     1       1.210   2.070  -0.142  0.00  0.00    +0.041 A 
ATOM     27  C   UNL     1       0.015   1.374  -0.350  0.00  0.00    +0.033 A 
ATOM     28  C   UNL     1       0.031  -0.007  -0.317  0.00  0.00    +0.111 A 
ATOM     29  N   UNL     1       1.150  -0.666  -0.093  0.00  0.00    -0.263 NA
ATOM     30  C   UNL     1       2.297  -0.049   0.108  0.00  0.00    +0.111 A 
ATOM     31  C   UNL     1       2.373   1.330   0.091  0.00  0.00    +0.033 A 
ENDBRANCH  23  26
ENDBRANCH   6  22
BRANCH  20  32
ATOM     32  N   UNL     1       8.281   4.696  -5.593  0.00  0.00    -0.203 N 
ATOM     33  C   UNL     1       7.526   4.064  -6.513  0.00  0.00    +0.263 C 
ATOM     34  O   UNL     1       6.657   4.672  -7.107  0.00  0.00    -0.268 OA
ATOM     35  H   UNL     1       8.975   4.211  -5.118  0.00  0.00    +0.178 HD
BRANCH  33  36
ATOM     36  C   UNL     1       7.754   2.629  -6.799  0.00  0.00    +0.041 A 
ATOM     37  C   UNL     1       8.752   1.913  -6.131  0.00  0.00    +0.033 A 
ATOM     38  C   UNL     1       8.928   0.575  -6.426  0.00  0.00    +0.111 A 
ATOM     39  N   UNL     1       8.178  -0.023  -7.330  0.00  0.00    -0.263 NA
ATOM     40  C   UNL     1       7.229   0.616  -7.985  0.00  0.00    +0.111 A 
ATOM     41  C   UNL     1       6.982   1.954  -7.750  0.00  0.00    +0.033 A 
ENDBRANCH  33  36
ENDBRANCH  20  32
TORSDOF 4
