REMARK  Name = ZINC39938595
REMARK  5 active torsions:
REMARK  status: ('A' for Active; 'I' for Inactive)
REMARK    1  A    between atoms: C_7  and  C_10
REMARK    2  A    between atoms: C_13  and  S_16
REMARK    3  A    between atoms: S_16  and  C_17
REMARK    4  A    between atoms: C_17  and  C_18
REMARK    5  A    between atoms: N_20  and  C_21
REMARK                            x       y       z     vdW  Elec       q    Type
REMARK                         _______ _______ _______ _____ _____    ______ ____
ROOT
ATOM      1  C   UNL     1      -0.057  -5.082  -2.875  0.00  0.00    +0.170 C 
ENDROOT
BRANCH   1   2
ATOM      2  C   UNL     1      -0.092  -5.819  -4.190  0.00  0.00    +0.227 C 
ATOM      3  O   UNL     1      -0.194  -7.027  -4.205  0.00  0.00    -0.275 OA
ATOM      4  N   UNL     1      -0.011  -5.134  -5.348  0.00  0.00    -0.285 N 
ATOM      5  H   UNL     1       0.003  -4.164  -5.338  0.00  0.00    +0.155 HD
BRANCH   4   6
ATOM      6  C   UNL     1       0.054  -5.824  -6.566  0.00  0.00    +0.037 A 
ATOM      7  C   UNL     1       0.823  -5.322  -7.608  0.00  0.00    +0.027 A 
ATOM      8  C   UNL     1       0.887  -6.001  -8.809  0.00  0.00    +0.051 A 
ATOM      9  C   UNL     1       0.186  -7.183  -8.979  0.00  0.00    +0.167 A 
ATOM     10  C   UNL     1      -0.586  -7.689  -7.935  0.00  0.00    +0.169 A 
ATOM     11  C   UNL     1      -0.646  -7.011  -6.729  0.00  0.00    +0.072 A 
ATOM     12  O   UNL     1      -1.171  -8.853  -8.348  0.00  0.00    -0.447 OA
ATOM     13  C   UNL     1      -1.065  -8.846  -9.779  0.00  0.00    +0.254 C 
ATOM     14  O   UNL     1       0.085  -8.030 -10.047  0.00  0.00    -0.448 OA
ATOM     15  C   UNL     1      -0.844 -10.261 -10.302  0.00  0.00    +0.093 C 
ATOM     16  C   UNL     1      -0.701 -10.227 -11.826  0.00  0.00    +0.008 C 
ATOM     17  C   UNL     1      -1.968  -9.629 -12.442  0.00  0.00    +0.000 C 
ATOM     18  C   UNL     1      -2.165  -8.203 -11.925  0.00  0.00    +0.008 C 
ATOM     19  C   UNL     1      -2.312  -8.229 -10.402  0.00  0.00    +0.093 C 
ENDBRANCH   4   6
ENDBRANCH   1   2
BRANCH   1  20
ATOM     20  S   UNL     1      -0.185  -6.272  -1.512  0.00  0.00    -0.087 S 
BRANCH  20  24
ATOM     21  C   UNL     1       0.648  -3.122  -0.020  0.00  0.00    +0.238 C 
ATOM     22  N   UNL     1      -0.654  -3.011  -0.016  0.00  0.00    -0.145 NA
ATOM     23  N   UNL     1      -1.247  -4.282  -0.017  0.00  0.00    -0.219 N 
ATOM     24  C   UNL     1      -0.128  -5.239  -0.022  0.00  0.00    +0.339 C 
ATOM     25  O   UNL     1       1.048  -4.417  -0.029  0.00  0.00    -0.443 OA
ATOM     26  H   UNL     1      -2.195  -4.487  -0.014  0.00  0.00    +0.173 HD
BRANCH  21  33
ATOM     27  C   UNL     1      -0.076   1.356   0.006  0.00  0.00    +0.001 A 
ATOM     28  C   UNL     1       1.098   2.112   0.002  0.00  0.00    +0.002 A 
ATOM     29  C   UNL     1       2.323   1.530  -0.010  0.00  0.00    +0.026 A 
ATOM     30  C   UNL     1       2.432   0.116  -0.018  0.00  0.00    +0.043 A 
ATOM     31  N   UNL     1       3.485  -0.678  -0.029  0.00  0.00    -0.380 N 
ATOM     32  C   UNL     1       3.039  -2.074  -0.033  0.00  0.00    +0.154 C 
ATOM     33  C   UNL     1       1.527  -2.030  -0.021  0.00  0.00    +0.043 C 
ATOM     34  C   UNL     1       1.191  -0.676  -0.012  0.00  0.00    +0.008 A 
ATOM     35  C   UNL     1      -0.048  -0.002  -0.001  0.00  0.00    +0.010 A 
ATOM     36  H   UNL     1       4.410  -0.384  -0.035  0.00  0.00    +0.160 HD
ENDBRANCH  21  33
ENDBRANCH  20  24
ENDBRANCH   1  20
TORSDOF 5
