REMARK  Name = ZINC36073363
REMARK  16 active torsions:
REMARK  status: ('A' for Active; 'I' for Inactive)
REMARK    1  A    between atoms: C_1  and  C_2
REMARK    2  A    between atoms: C_2  and  O_3
REMARK    3  A    between atoms: O_3  and  C_4
REMARK    4  A    between atoms: C_4  and  C_6
REMARK    5  A    between atoms: C_13  and  C_15
REMARK    6  A    between atoms: C_18  and  C_20
REMARK    7  A    between atoms: C_20  and  N_21
REMARK    8  A    between atoms: N_21  and  C_22
REMARK    9  A    between atoms: N_21  and  C_33
REMARK   10  A    between atoms: C_22  and  C_23
REMARK   11  A    between atoms: C_25  and  O_31
REMARK   12  A    between atoms: C_28  and  O_29
REMARK   13  A    between atoms: O_29  and  C_30
REMARK   14  A    between atoms: O_31  and  C_32
REMARK   15  A    between atoms: C_33  and  C_35
REMARK   16  A    between atoms: C_33  and  C_36
REMARK                            x       y       z     vdW  Elec       q    Type
REMARK                         _______ _______ _______ _____ _____    ______ ____
ROOT
ATOM      1  N   UNL     1       2.673  -5.313  -8.819  0.00  0.00    +0.393 N 
ATOM      2  H   UNL     1       1.857  -5.261  -8.226  0.00  0.00    -0.080 HD
ENDROOT
BRANCH   1   3
ATOM      3  C   UNL     1       2.378  -4.683 -10.113  0.00  0.00    -0.040 C 
ATOM      4  C   UNL     1       1.083  -5.268 -10.681  0.00  0.00    -0.008 C 
BRANCH   3   5
ATOM      5  C   UNL     1       2.217  -3.196  -9.923  0.00  0.00    -0.061 A 
ATOM      6  C   UNL     1       1.147  -2.704  -9.199  0.00  0.00    +0.002 A 
ATOM      7  C   UNL     1       0.999  -1.341  -9.024  0.00  0.00    +0.000 A 
ATOM      8  C   UNL     1       1.921  -0.470  -9.574  0.00  0.00    +0.000 A 
ATOM      9  C   UNL     1       2.992  -0.962 -10.297  0.00  0.00    +0.000 A 
ATOM     10  C   UNL     1       3.142  -2.326 -10.468  0.00  0.00    +0.002 A 
ENDBRANCH   3   5
ENDBRANCH   1   3
BRANCH   1  11
ATOM     11  C   UNL     1       3.791  -4.610  -8.175  0.00  0.00    +0.020 C 
BRANCH  11  15
ATOM     12  C   UNL     1       2.081  -2.120  -6.175  0.00  0.00    +0.164 A 
ATOM     13  C   UNL     1       3.056  -1.355  -6.737  0.00  0.00    +0.230 A 
ATOM     14  O   UNL     1       3.785  -2.164  -7.522  0.00  0.00    -0.449 OA
ATOM     15  C   UNL     1       3.269  -3.399  -7.445  0.00  0.00    +0.179 A 
ATOM     16  N   UNL     1       2.251  -3.388  -6.638  0.00  0.00    -0.210 NA
BRANCH  12  23
ATOM     17  C   UNL     1      -0.578  -2.975  -2.388  0.00  0.00    +0.115 C 
ATOM     18  C   UNL     1      -0.664  -4.458  -2.757  0.00  0.00    +0.018 C 
ATOM     19  C   UNL     1       0.454  -4.806  -3.742  0.00  0.00    +0.020 C 
ATOM     20  C   UNL     1       0.279  -3.979  -5.019  0.00  0.00    +0.108 C 
ATOM     21  N   UNL     1       0.215  -2.556  -4.657  0.00  0.00    -0.295 N 
ATOM     22  C   UNL     1      -0.764  -2.127  -3.649  0.00  0.00    +0.122 C 
ATOM     23  C   UNL     1       1.040  -1.662  -5.237  0.00  0.00    +0.268 C 
ATOM     24  O   UNL     1       0.925  -0.478  -4.987  0.00  0.00    -0.268 OA
BRANCH  17  25
ATOM     25  C   UNL     1      -1.659  -2.641  -1.392  0.00  0.00    +0.312 C 
ATOM     26  O   UNL     1      -2.420  -3.500  -1.016  0.00  0.00    -0.250 OA
BRANCH  25  27
ATOM     27  O   UNL     1      -1.777  -1.388  -0.925  0.00  0.00    -0.465 OA
BRANCH  27  29
ATOM     28  C   UNL     1      -2.801   0.329   0.432  0.00  0.00    +0.048 C 
ATOM     29  C   UNL     1      -2.824  -1.143   0.016  0.00  0.00    +0.229 C 
ENDBRANCH  27  29
ENDBRANCH  25  27
ENDBRANCH  17  25
ENDBRANCH  12  23
ENDBRANCH  11  15
ENDBRANCH   1  11
BRANCH   1  30
ATOM     30  C   UNL     1       3.036  -6.720  -9.031  0.00  0.00    -0.038 C 
BRANCH  30  31
ATOM     31  C   UNL     1       1.785  -7.543  -9.197  0.00  0.00    -0.019 A 
ATOM     32  C   UNL     1       0.943  -7.746  -8.120  0.00  0.00    +0.051 A 
ATOM     33  C   UNL     1      -0.209  -8.502  -8.273  0.00  0.00    +0.121 A 
ATOM     34  C   UNL     1      -0.516  -9.055  -9.508  0.00  0.00    +0.049 A 
ATOM     35  C   UNL     1       0.325  -8.852 -10.585  0.00  0.00    +0.049 A 
ATOM     36  C   UNL     1       1.474  -8.091 -10.433  0.00  0.00    +0.122 A 
BRANCH  36  37
ATOM     37  O   UNL     1       2.299  -7.886 -11.494  0.00  0.00    -0.495 OA
ATOM     38  C   UNL     1       1.918  -8.480 -12.736  0.00  0.00    +0.277 C 
ENDBRANCH  36  37
BRANCH  33  39
ATOM     39  O   UNL     1      -1.036  -8.703  -7.213  0.00  0.00    -0.495 OA
ATOM     40  C   UNL     1      -2.205  -9.492  -7.443  0.00  0.00    +0.277 C 
ENDBRANCH  33  39
ENDBRANCH  30  31
ENDBRANCH   1  30
TORSDOF 12
