REMARK  Name = ZINC08645049
REMARK  9 active torsions:
REMARK  status: ('A' for Active; 'I' for Inactive)
REMARK    1  A    between atoms: C_1  and  C_2
REMARK    2  A    between atoms: C_2  and  C_4
REMARK    3  A    between atoms: C_2  and  N_11
REMARK    4  A    between atoms: C_12  and  C_14
REMARK    5  A    between atoms: C_14  and  C_16
REMARK    6  A    between atoms: C_14  and  S_17
REMARK    7  A    between atoms: S_17  and  C_18
REMARK    8  A    between atoms: C_21  and  C_24
REMARK    9  A    between atoms: N_22  and  N_23
REMARK                            x       y       z     vdW  Elec       q    Type
REMARK                         _______ _______ _______ _____ _____    ______ ____
ROOT
ATOM      1  S   UNL     1       4.656   0.726  -2.065  0.00  0.00    -0.072 S 
ENDROOT
BRANCH   1   2
ATOM      2  C   UNL     1       6.141   1.670  -1.974  0.00  0.00    +0.209 A 
ATOM      3  N   UNL     1       6.417   2.605  -1.093  0.00  0.00    -0.121 NA
ATOM      4  N   UNL     1       7.586   3.089  -1.315  0.00  0.00    -0.127 NA
ATOM      5  C   UNL     1       8.129   2.493  -2.352  0.00  0.00    +0.183 A 
ATOM      6  N   UNL     1       7.222   1.562  -2.802  0.00  0.00    -0.224 N 
BRANCH   5   7
ATOM      7  C   UNL     1       9.464   2.766  -2.923  0.00  0.00    +0.039 A 
ATOM      8  C   UNL     1       9.618   2.922  -4.301  0.00  0.00    +0.014 A 
ATOM      9  C   UNL     1      10.866   3.183  -4.828  0.00  0.00    +0.021 A 
ATOM     10  C   UNL     1      11.967   3.278  -3.994  0.00  0.00    +0.042 A 
ATOM     11  C   UNL     1      11.823   3.120  -2.626  0.00  0.00    +0.040 A 
ATOM     12  C   UNL     1      10.578   2.865  -2.086  0.00  0.00    +0.053 A 
ATOM     13 CL   UNL     1      10.399   2.665  -0.371  0.00  0.00    -0.083 Cl
ATOM     14 CL   UNL     1      13.536   3.599  -4.666  0.00  0.00    -0.083 Cl
ENDBRANCH   5   7
BRANCH   6  15
ATOM     15  N   UNL     1       7.370   0.709  -3.858  0.00  0.00    -0.295 N 
ATOM     16  H   UNL     1       7.114   1.158  -4.725  0.00  0.00    +0.163 HD
ATOM     17  H   UNL     1       8.312   0.348  -3.902  0.00  0.00    +0.163 HD
ENDBRANCH   6  15
ENDBRANCH   1   2
BRANCH   1  18
ATOM     18  C   UNL     1       3.749   1.431  -0.666  0.00  0.00    +0.137 C 
ATOM     19  C   UNL     1       4.484   1.103   0.635  0.00  0.00    +0.029 C 
BRANCH  18  21
ATOM     20  N   UNL     1       1.360   1.528  -0.033  0.00  0.00    -0.308 N 
ATOM     21  C   UNL     1       2.361   0.844  -0.620  0.00  0.00    +0.227 C 
ATOM     22  O   UNL     1       2.146  -0.244  -1.111  0.00  0.00    -0.275 OA
ATOM     23  H   UNL     1       1.532   2.399   0.360  0.00  0.00    +0.149 HD
BRANCH  20  25
ATOM     24  C   UNL     1      -0.725   1.286  -1.290  0.00  0.00    +0.033 C 
ATOM     25  C   UNL     1       0.011   0.959   0.012  0.00  0.00    +0.100 C 
BRANCH  25  26
ATOM     26  C   UNL     1      -0.744   1.545   1.177  0.00  0.00    -0.027 A 
ATOM     27  C   UNL     1      -0.608   2.886   1.483  0.00  0.00    +0.008 A 
ATOM     28  C   UNL     1      -1.304   3.426   2.548  0.00  0.00    +0.038 A 
ATOM     29  C   UNL     1      -2.129   2.621   3.315  0.00  0.00    +0.123 A 
ATOM     30  C   UNL     1      -2.261   1.277   3.010  0.00  0.00    +0.038 A 
ATOM     31  C   UNL     1      -1.568   0.740   1.941  0.00  0.00    +0.008 A 
ATOM     32  F   UNL     1      -2.805   3.147   4.359  0.00  0.00    -0.205 F 
ENDBRANCH  25  26
ENDBRANCH  20  25
ENDBRANCH  18  21
ENDBRANCH   1  18
TORSDOF 7
