REMARK  Name = ZINC49544575
REMARK  6 active torsions:
REMARK  status: ('A' for Active; 'I' for Inactive)
REMARK    1  A    between atoms: C_1  and  C_2
REMARK    2  A    between atoms: C_3  and  C_29
REMARK    3  A    between atoms: C_8  and  C_10
REMARK    4  A    between atoms: C_10  and  C_12
REMARK    5  A    between atoms: C_10  and  N_13
REMARK    6  A    between atoms: N_19  and  C_22
REMARK                            x       y       z     vdW  Elec       q    Type
REMARK                         _______ _______ _______ _____ _____    ______ ____
ROOT
ATOM      1  N   UNL     1       0.094  -2.601   5.866  0.00  0.00    -0.288 N 
ATOM      2  C   UNL     1       0.581  -3.151   6.996  0.00  0.00    +0.303 C 
ATOM      3  O   UNL     1       0.939  -4.313   7.001  0.00  0.00    -0.253 OA
ATOM      4  N   UNL     1       0.670  -2.414   8.121  0.00  0.00    -0.283 N 
ATOM      5  C   UNL     1       0.127  -1.050   8.166  0.00  0.00    +0.128 C 
ATOM      6  C   UNL     1      -0.862  -0.953   9.334  0.00  0.00    +0.124 C 
ATOM      7  N   UNL     1      -0.221  -1.500  10.538  0.00  0.00    -0.327 N 
ATOM      8  C   UNL     1       0.322  -2.865  10.493  0.00  0.00    +0.124 C 
ATOM      9  C   UNL     1       1.306  -2.963   9.327  0.00  0.00    +0.128 C 
ATOM     10  H   UNL     1      -0.258  -1.697   5.880  0.00  0.00    +0.151 HD
ENDROOT
BRANCH   7  11
ATOM     11  C   UNL     1      -0.129  -0.736  11.705  0.00  0.00    +0.030 A 
ATOM     12  C   UNL     1       0.586  -1.214  12.795  0.00  0.00    +0.026 A 
ATOM     13  C   UNL     1       0.676  -0.457  13.947  0.00  0.00    +0.040 A 
ATOM     14  C   UNL     1       0.054   0.778  14.015  0.00  0.00    +0.124 A 
ATOM     15  C   UNL     1      -0.659   1.257  12.929  0.00  0.00    +0.040 A 
ATOM     16  C   UNL     1      -0.748   0.506  11.774  0.00  0.00    +0.026 A 
ATOM     17  F   UNL     1       0.143   1.517  15.143  0.00  0.00    -0.205 F 
ENDBRANCH   7  11
BRANCH   1  18
ATOM     18  C   UNL     1       0.099  -3.367   4.617  0.00  0.00    +0.158 C 
ATOM     19  C   UNL     1      -1.153  -4.245   4.554  0.00  0.00    +0.038 C 
BRANCH  18  27
ATOM     20  C   UNL     1       0.133   1.490   0.005  0.00  0.00    +0.066 C 
ATOM     21  C   UNL     1       0.129  -0.017  -0.001  0.00  0.00    +0.050 A 
ATOM     22  C   UNL     1       0.133  -0.720  -1.160  0.00  0.00    +0.011 A 
ATOM     23  S   UNL     1       0.126  -2.392  -0.534  0.00  0.00    -0.057 S 
ATOM     24  C   UNL     1       0.119  -2.026   1.108  0.00  0.00    +0.165 A 
ATOM     25  N   UNL     1       0.127  -0.710   1.122  0.00  0.00    -0.230 NA
ATOM     26  N   UNL     1       0.112  -2.901   2.188  0.00  0.00    -0.263 N 
ATOM     27  C   UNL     1       0.107  -2.418   3.446  0.00  0.00    +0.239 C 
ATOM     28  O   UNL     1       0.109  -1.220   3.636  0.00  0.00    -0.273 OA
ATOM     29  C   UNL     1       0.141  -0.227  -2.584  0.00  0.00    +0.053 C 
ATOM     30  H   UNL     1       0.110  -3.859   2.036  0.00  0.00    +0.157 HD
ENDBRANCH  18  27
ENDBRANCH   1  18
TORSDOF 3
