REMARK  Name = ZINC33249943
REMARK  7 active torsions:
REMARK  status: ('A' for Active; 'I' for Inactive)
REMARK    1  A    between atoms: C_1  and  C_2
REMARK    2  A    between atoms: C_2  and  N_3
REMARK    3  A    between atoms: C_8  and  C_22
REMARK    4  A    between atoms: C_12  and  C_13
REMARK    5  A    between atoms: C_12  and  C_14
REMARK    6  A    between atoms: N_16  and  C_17
REMARK    7  A    between atoms: N_24  and  C_25
REMARK                            x       y       z     vdW  Elec       q    Type
REMARK                         _______ _______ _______ _____ _____    ______ ____
ROOT
ATOM      1  N   UNL     1       5.462   3.766   0.385  0.00  0.00    -0.281 N 
ATOM      2  C   UNL     1       4.968   2.521   0.187  0.00  0.00    +0.265 C 
ATOM      3  O   UNL     1       5.689   1.542   0.151  0.00  0.00    -0.268 OA
ATOM      4  C   UNL     1       3.509   2.416   0.017  0.00  0.00    +0.124 A 
ATOM      5  C   UNL     1       2.689   1.339  -0.005  0.00  0.00    +0.067 A 
ATOM      6  C   UNL     1       1.389   1.869  -0.173  0.00  0.00    +0.148 A 
ATOM      7  N   UNL     1       1.500   3.186  -0.234  0.00  0.00    -0.166 NA
ATOM      8  N   UNL     1       2.722   3.538  -0.137  0.00  0.00    -0.256 N 
ATOM      9  C   UNL     1       3.315   4.880  -0.184  0.00  0.00    +0.179 C 
ATOM     10  C   UNL     1       4.588   4.901   0.660  0.00  0.00    +0.130 C 
ATOM     11  C   UNL     1       4.197   4.876   2.139  0.00  0.00    +0.044 C 
ENDROOT
BRANCH  10  12
ATOM     12  C   UNL     1       5.340   6.175   0.377  0.00  0.00    +0.238 C 
ATOM     13  O   UNL     1       5.129   6.789  -0.648  0.00  0.00    -0.273 OA
ATOM     14  N   UNL     1       6.246   6.634   1.263  0.00  0.00    -0.311 N 
ATOM     15  H   UNL     1       6.499   6.036   2.151  0.00  0.00    +0.149 HD
BRANCH  14  16
ATOM     16  C   UNL     1       6.895   7.929   1.043  0.00  0.00    +0.073 C 
ATOM     17  C   UNL     1       8.158   7.746   0.175  0.00  0.00    +0.022 C 
ATOM     18  C   UNL     1       9.172   8.758   0.764  0.00  0.00    +0.002 C 
ATOM     19  C   UNL     1       8.897   8.672   2.286  0.00  0.00    +0.002 C 
ATOM     20  C   UNL     1       7.365   8.517   2.385  0.00  0.00    +0.022 C 
ENDBRANCH  14  16
ENDBRANCH  10  12
BRANCH   6  21
ATOM     21  C   UNL     1       0.134   1.093  -0.257  0.00  0.00    +0.264 C 
ATOM     22  O   UNL     1       0.164  -0.120  -0.186  0.00  0.00    -0.268 OA
ATOM     23  N   UNL     1      -1.042   1.730  -0.418  0.00  0.00    -0.307 N 
ATOM     24  H   UNL     1      -1.069   2.828  -0.483  0.00  0.00    +0.149 HD
BRANCH  23  25
ATOM     25  C   UNL     1      -2.286   0.961  -0.508  0.00  0.00    +0.073 C 
ATOM     26  C   UNL     1      -2.542   0.540  -1.970  0.00  0.00    +0.022 C 
ATOM     27  C   UNL     1      -4.080   0.653  -2.133  0.00  0.00    +0.002 C 
ATOM     28  C   UNL     1      -4.420   1.917  -1.305  0.00  0.00    +0.002 C 
ATOM     29  C   UNL     1      -3.479   1.835  -0.085  0.00  0.00    +0.022 C 
ENDBRANCH  23  25
ENDBRANCH   6  21
BRANCH   1  31
ATOM     30  C   UNL     1       7.331   4.188  -1.136  0.00  0.00    +0.024 C 
ATOM     31  C   UNL     1       6.910   3.979   0.320  0.00  0.00    +0.106 C 
ENDBRANCH   1  31
TORSDOF 5
