REMARK  Name = ZINC33604700
REMARK  9 active torsions:
REMARK  status: ('A' for Active; 'I' for Inactive)
REMARK    1  A    between atoms: C_1  and  C_2
REMARK    2  A    between atoms: C_7  and  N_8
REMARK    3  A    between atoms: C_13  and  C_31
REMARK    4  A    between atoms: C_16  and  C_21
REMARK    5  A    between atoms: C_16  and  C_28
REMARK    6  A    between atoms: C_21  and  C_22
REMARK    7  A    between atoms: C_34  and  O_37
REMARK    8  A    between atoms: O_37  and  C_38
REMARK    9  A    between atoms: C_38  and  C_40
REMARK                            x       y       z     vdW  Elec       q    Type
REMARK                         _______ _______ _______ _____ _____    ______ ____
ROOT
ATOM      1  N   UNL     1       1.126   0.754   2.401  0.00  0.00    -0.210 N 
ATOM      2  C   UNL     1      -0.196   0.758   2.774  0.00  0.00    +0.229 C 
ATOM      3  O   UNL     1      -1.135   0.280   2.175  0.00  0.00    -0.275 OA
ATOM      4  C   UNL     1      -0.220   1.458   4.034  0.00  0.00    +0.077 C 
ATOM      5  C   UNL     1      -1.063   1.614   5.232  0.00  0.00    -0.027 C 
ATOM      6  N   UNL     1      -0.153   2.368   6.162  0.00  0.00    +0.395 N 
ATOM      7  C   UNL     1       1.254   2.114   5.730  0.00  0.00    +0.048 C 
ATOM      8  C   UNL     1       1.148   0.999   4.678  0.00  0.00    +0.086 C 
ATOM      9  C   UNL     1       1.963   1.113   3.420  0.00  0.00    +0.229 C 
ATOM     10  O   UNL     1       3.122   1.455   3.328  0.00  0.00    -0.275 OA
ATOM     11  H   UNL     1      -0.354   3.356   6.110  0.00  0.00    -0.083 HD
ATOM     12  H   UNL     1      -0.284   2.042   7.107  0.00  0.00    -0.083 HD
ENDROOT
BRANCH   1  19
ATOM     13  C   UNL     1       1.374   2.827   0.467  0.00  0.00    +0.045 C 
ATOM     14  C   UNL     1       1.704   1.393   0.143  0.00  0.00    -0.029 A 
ATOM     15  C   UNL     1       2.146   1.054  -1.121  0.00  0.00    +0.005 A 
ATOM     16  C   UNL     1       2.450  -0.261  -1.419  0.00  0.00    +0.000 A 
ATOM     17  C   UNL     1       2.312  -1.242  -0.453  0.00  0.00    +0.002 A 
ATOM     18  C   UNL     1       1.870  -0.909   0.812  0.00  0.00    +0.024 A 
ATOM     19  C   UNL     1       1.569   0.412   1.116  0.00  0.00    +0.047 A 
ENDBRANCH   1  19
BRANCH   5  20
ATOM     20  C   UNL     1      -2.299   2.418   4.919  0.00  0.00    -0.060 A 
ATOM     21  C   UNL     1      -2.201   3.781   4.710  0.00  0.00    +0.005 A 
ATOM     22  C   UNL     1      -3.333   4.520   4.423  0.00  0.00    +0.046 A 
ATOM     23  C   UNL     1      -4.568   3.893   4.345  0.00  0.00    +0.132 A 
ATOM     24  C   UNL     1      -4.663   2.525   4.554  0.00  0.00    +0.046 A 
ATOM     25  C   UNL     1      -3.528   1.789   4.836  0.00  0.00    +0.005 A 
BRANCH  23  26
ATOM     26  O   UNL     1      -5.683   4.618   4.063  0.00  0.00    -0.426 OA
BRANCH  26  27
ATOM     27  C   UNL     1      -5.851   5.051   2.803  0.00  0.00    +0.309 C 
ATOM     28  O   UNL     1      -5.077   4.714   1.940  0.00  0.00    -0.251 OA
ATOM     29  C   UNL     1      -7.006   5.959   2.467  0.00  0.00    +0.136 C 
ENDBRANCH  26  27
ENDBRANCH  23  26
ENDBRANCH   5  20
BRANCH   7  30
ATOM     30  C   UNL     1       2.080   1.638   6.897  0.00  0.00    +0.346 C 
ATOM     31  O   UNL     1       1.574   1.540   8.002  0.00  0.00    -0.248 OA
ATOM     32  O   UNL     1       3.254   1.352   6.736  0.00  0.00    -0.248 OA
ENDBRANCH   7  30
BRANCH   7  33
ATOM     33  C   UNL     1       1.862   3.384   5.132  0.00  0.00    +0.003 C 
BRANCH  33  34
ATOM     34  C   UNL     1       2.114   4.402   6.246  0.00  0.00    -0.012 C 
ATOM     35  C   UNL     1       0.783   4.784   6.899  0.00  0.00    +0.003 C 
ATOM     36  C   UNL     1       1.035   5.802   8.013  0.00  0.00    +0.000 C 
ATOM     37  C   UNL     1       1.690   7.052   7.422  0.00  0.00    +0.000 C 
ATOM     38  C   UNL     1       3.021   6.671   6.769  0.00  0.00    +0.000 C 
ATOM     39  C   UNL     1       2.769   5.653   5.655  0.00  0.00    +0.003 C 
ENDBRANCH  33  34
ENDBRANCH   7  33
TORSDOF 7
