REMARK  Name = ZINC35729475
REMARK  7 active torsions:
REMARK  status: ('A' for Active; 'I' for Inactive)
REMARK    1  A    between atoms: C_1  and  O_2
REMARK    2  A    between atoms: O_2  and  C_3
REMARK    3  A    between atoms: C_6  and  N_11
REMARK    4  A    between atoms: C_7  and  O_9
REMARK    5  A    between atoms: O_9  and  C_10
REMARK    6  A    between atoms: C_18  and  C_20
REMARK    7  A    between atoms: C_26  and  C_28
REMARK                            x       y       z     vdW  Elec       q    Type
REMARK                         _______ _______ _______ _____ _____    ______ ____
ROOT
ATOM      1  N   UNL     1       2.461  -2.451  -4.311  0.00  0.00    -0.266 N 
ATOM      2  C   UNL     1       2.921  -1.706  -5.336  0.00  0.00    +0.307 C 
ATOM      3  O   UNL     1       2.878  -0.493  -5.272  0.00  0.00    -0.252 OA
ATOM      4  N   UNL     1       3.427  -2.306  -6.431  0.00  0.00    -0.274 N 
ATOM      5  C   UNL     1       3.533  -3.761  -6.643  0.00  0.00    +0.110 C 
ATOM      6  C   UNL     1       3.566  -3.937  -8.181  0.00  0.00    +0.021 C 
ATOM      7  C   UNL     1       4.403  -2.705  -8.617  0.00  0.00    +0.033 C 
ATOM      8  C   UNL     1       3.960  -1.617  -7.616  0.00  0.00    +0.164 C 
ATOM      9  H   UNL     1       2.554  -3.417  -4.333  0.00  0.00    +0.156 HD
ENDROOT
BRANCH   8  10
ATOM     10  C   UNL     1       2.890  -0.754  -8.232  0.00  0.00    +0.239 C 
ATOM     11  O   UNL     1       1.723  -0.952  -7.966  0.00  0.00    -0.273 OA
ATOM     12  N   UNL     1       3.229   0.238  -9.079  0.00  0.00    -0.262 N 
ATOM     13  C   UNL     1       2.241   1.034  -9.647  0.00  0.00    +0.188 A 
ATOM     14  N   UNL     1       0.924   0.998  -9.493  0.00  0.00    -0.125 NA
ATOM     15  N   UNL     1       0.161   1.805 -10.090  0.00  0.00    -0.140 NA
ATOM     16  C   UNL     1       0.630   2.739 -10.909  0.00  0.00    +0.134 A 
ATOM     17  S   UNL     1       2.385   2.406 -10.788  0.00  0.00    -0.030 S 
ATOM     18  H   UNL     1       4.162   0.397  -9.291  0.00  0.00    +0.157 HD
BRANCH  16  19
ATOM     19  C   UNL     1      -0.090   3.765 -11.692  0.00  0.00    +0.013 A 
ATOM     20  C   UNL     1       0.620   4.653 -12.502  0.00  0.00    +0.014 A 
ATOM     21  C   UNL     1      -0.054   5.609 -13.233  0.00  0.00    +0.050 A 
ATOM     22  C   UNL     1      -1.437   5.693 -13.165  0.00  0.00    +0.166 A 
ATOM     23  C   UNL     1      -2.152   4.810 -12.357  0.00  0.00    +0.167 A 
ATOM     24  C   UNL     1      -1.482   3.845 -11.627  0.00  0.00    +0.060 A 
ATOM     25  O   UNL     1      -3.482   5.098 -12.465  0.00  0.00    -0.453 OA
ATOM     26  C   UNL     1      -3.543   6.423 -13.025  0.00  0.00    +0.466 C 
ATOM     27  O   UNL     1      -2.321   6.534 -13.778  0.00  0.00    -0.453 OA
ENDBRANCH  16  19
ENDBRANCH   8  10
BRANCH   1  31
ATOM     28  C   UNL     1       0.637  -0.604  -1.041  0.00  0.00    +0.124 A 
ATOM     29  C   UNL     1       1.687   0.022  -1.697  0.00  0.00    +0.047 A 
ATOM     30  C   UNL     1       2.291  -0.590  -2.779  0.00  0.00    +0.030 A 
ATOM     31  C   UNL     1       1.848  -1.831  -3.211  0.00  0.00    +0.077 A 
ATOM     32  C   UNL     1       0.794  -2.461  -2.554  0.00  0.00    +0.145 A 
ATOM     33  C   UNL     1       0.195  -1.848  -1.466  0.00  0.00    +0.093 A 
BRANCH  28  35
ATOM     34  C   UNL     1       0.550   1.281   0.407  0.00  0.00    +0.277 C 
ATOM     35  O   UNL     1       0.044   0.000   0.023  0.00  0.00    -0.495 OA
ENDBRANCH  28  35
BRANCH  32  36
ATOM     36  O   UNL     1       0.358  -3.677  -2.976  0.00  0.00    -0.493 OA
ATOM     37  C   UNL     1      -0.727  -4.264  -2.254  0.00  0.00    +0.277 C 
ENDBRANCH  32  36
ENDBRANCH   1  31
TORSDOF 5
