REMARK  Name = ZINC49122876
REMARK  6 active torsions:
REMARK  status: ('A' for Active; 'I' for Inactive)
REMARK    1  A    between atoms: C_1  and  C_2
REMARK    2  A    between atoms: C_2  and  C_3
REMARK    3  A    between atoms: C_9  and  N_11
REMARK    4  A    between atoms: N_11  and  S_12
REMARK    5  A    between atoms: S_12  and  C_15
REMARK    6  A    between atoms: N_21  and  N_22
REMARK                            x       y       z     vdW  Elec       q    Type
REMARK                         _______ _______ _______ _____ _____    ______ ____
ROOT
ATOM      1  S   UNL     1      -0.723  -4.004  -0.250  0.00  0.00    +0.059 S 
ATOM      2  O   UNL     1      -2.105  -4.319  -0.354  0.00  0.00    -0.153 OA
ATOM      3  O   UNL     1       0.297  -4.914  -0.635  0.00  0.00    -0.153 OA
ENDROOT
BRANCH   1   4
ATOM      4  C   UNL     1      -0.425  -3.599   1.439  0.00  0.00    +0.110 A 
ATOM      5  C   UNL     1       0.847  -3.716   1.983  0.00  0.00    +0.048 A 
ATOM      6  C   UNL     1       1.048  -3.390   3.309  0.00  0.00    +0.115 A 
ATOM      7  N   UNL     1       0.048  -2.971   4.062  0.00  0.00    -0.239 NA
ATOM      8  C   UNL     1      -1.179  -2.847   3.580  0.00  0.00    +0.134 A 
ATOM      9  C   UNL     1      -1.452  -3.152   2.251  0.00  0.00    +0.073 A 
ATOM     10  N   UNL     1      -2.203  -2.402   4.409  0.00  0.00    -0.267 N 
ATOM     11  H   UNL     1      -3.103  -2.309   4.060  0.00  0.00    +0.167 HD
BRANCH  10  12
ATOM     12  N   UNL     1      -1.940  -2.095   5.714  0.00  0.00    -0.255 NA
ATOM     13  H   UNL     1      -1.210  -1.402   5.783  0.00  0.00    +0.140 HD
ATOM     14  H   UNL     1      -2.776  -1.788   6.188  0.00  0.00    +0.140 HD
ENDBRANCH  10  12
ENDBRANCH   1   4
BRANCH   1  15
ATOM     15  N   UNL     1      -0.484  -2.624  -1.134  0.00  0.00    -0.187 NA
ATOM     16  H   UNL     1      -1.227  -2.214  -1.604  0.00  0.00    +0.148 HD
BRANCH  15  22
ATOM     17  C   UNL     1       0.718  -0.497  -1.257  0.00  0.00    +0.007 C 
ATOM     18  C   UNL     1      -0.089  -0.097  -2.493  0.00  0.00    +0.005 C 
ATOM     19  C   UNL     1       0.627  -0.590  -3.752  0.00  0.00    +0.000 C 
ATOM     20  C   UNL     1       0.758  -2.114  -3.700  0.00  0.00    +0.002 C 
ATOM     21  C   UNL     1       1.565  -2.514  -2.464  0.00  0.00    +0.020 C 
ATOM     22  C   UNL     1       0.849  -2.021  -1.205  0.00  0.00    +0.080 C 
BRANCH  17  24
ATOM     23  C   UNL     1      -0.019   1.526   0.010  0.00  0.00    +0.004 C 
ATOM     24  C   UNL     1       0.002  -0.004   0.002  0.00  0.00    +0.002 C 
ENDBRANCH  17  24
ENDBRANCH  15  22
ENDBRANCH   1  15
TORSDOF 5
