REMARK  Name = ZINC13096565
REMARK  4 active torsions:
REMARK  status: ('A' for Active; 'I' for Inactive)
REMARK    1  A    between atoms: C_4  and  C_7
REMARK    2  A    between atoms: C_12  and  C_19
REMARK    3  A    between atoms: N_21  and  C_22
REMARK    4  A    between atoms: C_23  and  C_31
REMARK                            x       y       z     vdW  Elec       q    Type
REMARK                         _______ _______ _______ _____ _____    ______ ____
ROOT
ATOM      1  C   UNL     1      -6.500   0.937   3.046  0.00  0.00    +0.249 C 
ATOM      2  O   UNL     1      -5.656   1.232   3.869  0.00  0.00    -0.270 OA
ATOM      3  N   UNL     1      -6.151   0.760   1.756  0.00  0.00    -0.275 N 
ATOM      4  H   UNL     1      -6.825   0.525   1.099  0.00  0.00    +0.156 HD
ENDROOT
BRANCH   1   9
ATOM      5  C   UNL     1     -11.461   1.306   6.747  0.00  0.00    +0.211 C 
ATOM      6  C   UNL     1      -9.968   1.000   6.627  0.00  0.00    +0.085 C 
ATOM      7  C   UNL     1      -9.587   0.806   5.183  0.00  0.00    -0.029 A 
ATOM      8  C   UNL     1      -8.271   0.952   4.796  0.00  0.00    +0.017 A 
ATOM      9  C   UNL     1      -7.912   0.774   3.459  0.00  0.00    +0.037 A 
ATOM     10  C   UNL     1      -8.880   0.436   2.513  0.00  0.00    +0.014 A 
ATOM     11  C   UNL     1     -10.195   0.285   2.898  0.00  0.00    +0.016 A 
ATOM     12  C   UNL     1     -10.553   0.471   4.233  0.00  0.00    +0.062 A 
ATOM     13  C   UNL     1     -11.967   0.319   4.656  0.00  0.00    +0.340 C 
ATOM     14  O   UNL     1     -12.862   0.202   3.844  0.00  0.00    -0.245 OA
ATOM     15  O   UNL     1     -12.217   0.316   5.990  0.00  0.00    -0.453 OA
BRANCH   5  19
ATOM     16  C   UNL     1     -12.624   1.153  10.854  0.00  0.00    +0.000 A 
ATOM     17  C   UNL     1     -12.388   2.373  10.248  0.00  0.00    +0.000 A 
ATOM     18  C   UNL     1     -12.011   2.422   8.919  0.00  0.00    +0.007 A 
ATOM     19  C   UNL     1     -11.871   1.252   8.196  0.00  0.00    -0.007 A 
ATOM     20  C   UNL     1     -12.114   0.033   8.801  0.00  0.00    +0.007 A 
ATOM     21  C   UNL     1     -12.485  -0.017  10.131  0.00  0.00    +0.000 A 
ENDBRANCH   5  19
ENDBRANCH   1   9
BRANCH   3  22
ATOM     22  C   UNL     1      -4.830   0.913   1.369  0.00  0.00    +0.085 A 
ATOM     23  C   UNL     1      -4.281   0.773   0.102  0.00  0.00    +0.068 A 
ATOM     24  C   UNL     1      -2.851   0.990  -0.038  0.00  0.00    -0.023 A 
ATOM     25  C   UNL     1      -2.203   1.308   1.104  0.00  0.00    -0.004 A 
ATOM     26  S   UNL     1      -3.462   1.324   2.349  0.00  0.00    -0.077 S 
ATOM     27  C   UNL     1      -0.737   1.584   1.267  0.00  0.00    +0.043 C 
ATOM     28  C   UNL     1      -0.013   1.086   0.008  0.00  0.00    +0.005 C 
ATOM     29  C   UNL     1      -0.759   1.596  -1.228  0.00  0.00    +0.005 C 
ATOM     30  C   UNL     1      -2.102   0.875  -1.359  0.00  0.00    +0.037 C 
BRANCH  23  31
ATOM     31  C   UNL     1      -5.113   0.420  -1.053  0.00  0.00    +0.244 C 
ATOM     32  O   UNL     1      -5.285  -0.749  -1.344  0.00  0.00    -0.270 OA
ATOM     33  N   UNL     1      -5.687   1.391  -1.792  0.00  0.00    -0.325 N 
ATOM     34  H   UNL     1      -5.550   2.322  -1.559  0.00  0.00    +0.145 HD
ATOM     35  H   UNL     1      -6.238   1.157  -2.555  0.00  0.00    +0.145 HD
ENDBRANCH  23  31
ENDBRANCH   3  22
TORSDOF 4
