REMARK  Name = ZINC13347200
REMARK  9 active torsions:
REMARK  status: ('A' for Active; 'I' for Inactive)
REMARK    1  A    between atoms: C_1  and  C_2
REMARK    2  A    between atoms: C_5  and  C_28
REMARK    3  A    between atoms: C_7  and  N_8
REMARK    4  A    between atoms: C_9  and  C_11
REMARK    5  A    between atoms: C_11  and  S_12
REMARK    6  A    between atoms: S_12  and  C_13
REMARK    7  A    between atoms: C_16  and  C_21
REMARK    8  A    between atoms: N_17  and  C_18
REMARK    9  A    between atoms: C_18  and  C_19
REMARK                            x       y       z     vdW  Elec       q    Type
REMARK                         _______ _______ _______ _____ _____    ______ ____
ROOT
ATOM      1  S   UNL     1       3.619   7.626   0.195  0.00  0.00    -0.077 S 
ENDROOT
BRANCH   1   2
ATOM      2  C   UNL     1       5.140   8.400  -0.242  0.00  0.00    +0.193 A 
ATOM      3  N   UNL     1       6.335   7.856  -0.191  0.00  0.00    -0.122 NA
ATOM      4  N   UNL     1       7.221   8.699  -0.584  0.00  0.00    -0.128 NA
ATOM      5  C   UNL     1       6.648   9.836  -0.902  0.00  0.00    +0.165 A 
ATOM      6  N   UNL     1       5.297   9.680  -0.693  0.00  0.00    -0.298 N 
BRANCH   5   7
ATOM      7  C   UNL     1       7.326  11.055  -1.393  0.00  0.00    +0.019 A 
ATOM      8  C   UNL     1       6.679  12.290  -1.330  0.00  0.00    +0.012 A 
ATOM      9  C   UNL     1       7.318  13.424  -1.785  0.00  0.00    +0.016 A 
ATOM     10  C   UNL     1       8.595  13.338  -2.313  0.00  0.00    +0.018 A 
ATOM     11  C   UNL     1       9.240  12.114  -2.383  0.00  0.00    +0.016 A 
ATOM     12  C   UNL     1       8.613  10.974  -1.926  0.00  0.00    +0.012 A 
ATOM     13 BR   UNL     1       9.462  14.896  -2.942  0.00  0.00    -0.050 Br
ENDBRANCH   5   7
BRANCH   6  14
ATOM     14  C   UNL     1       4.247  10.678  -0.909  0.00  0.00    +0.152 C 
BRANCH  14  15
ATOM     15  C   UNL     1       3.938  11.372   0.392  0.00  0.00    -0.013 C 
ATOM     16  C   UNL     1       3.979  12.679   0.463  0.00  0.00    +0.005 C 
ENDBRANCH  14  15
ENDBRANCH   6  14
ENDBRANCH   1   2
BRANCH   1  17
ATOM     17  C   UNL     1       4.226   5.990   0.678  0.00  0.00    +0.173 C 
BRANCH  17  19
ATOM     18  N   UNL     1       3.279   3.861   1.508  0.00  0.00    -0.285 N 
ATOM     19  C   UNL     1       3.065   5.129   1.104  0.00  0.00    +0.227 C 
ATOM     20  O   UNL     1       1.938   5.577   1.083  0.00  0.00    -0.275 OA
ATOM     21  H   UNL     1       4.185   3.527   1.595  0.00  0.00    +0.155 HD
BRANCH  18  28
ATOM     22  C   UNL     1       3.730   1.622   3.199  0.00  0.00    +0.045 C 
ATOM     23  C   UNL     1       2.370   1.921   2.623  0.00  0.00    -0.029 A 
ATOM     24  C   UNL     1       1.301   1.094   2.916  0.00  0.00    +0.006 A 
ATOM     25  C   UNL     1       0.054   1.358   2.389  0.00  0.00    +0.015 A 
ATOM     26  C   UNL     1      -0.135   2.470   1.565  0.00  0.00    +0.065 A 
ATOM     27  C   UNL     1       0.944   3.305   1.270  0.00  0.00    +0.038 A 
ATOM     28  C   UNL     1       2.194   3.027   1.801  0.00  0.00    +0.037 A 
BRANCH  26  29
ATOM     29  C   UNL     1      -1.471   2.759   1.003  0.00  0.00    +0.387 C 
ATOM     30  O   UNL     1      -1.631   3.724   0.284  0.00  0.00    -0.241 OA
ATOM     31  O   UNL     1      -2.510   1.951   1.290  0.00  0.00    -0.241 OA
ENDBRANCH  26  29
ENDBRANCH  18  28
ENDBRANCH  17  19
ENDBRANCH   1  17
TORSDOF 8
