REMARK  Name = ZINC21327869
REMARK  6 active torsions:
REMARK  status: ('A' for Active; 'I' for Inactive)
REMARK    1  A    between atoms: C_3  and  N_9
REMARK    2  A    between atoms: C_10  and  C_12
REMARK    3  A    between atoms: C_12  and  S_13
REMARK    4  A    between atoms: S_13  and  C_14
REMARK    5  A    between atoms: N_18  and  N_19
REMARK    6  A    between atoms: N_20  and  N_21
REMARK                            x       y       z     vdW  Elec       q    Type
REMARK                         _______ _______ _______ _____ _____    ______ ____
ROOT
ATOM      1  C   UNL     1      -0.000  -0.003  -0.036  0.00  0.00    +0.210 A 
ATOM      2  N   UNL     1       1.252  -0.391  -0.054  0.00  0.00    -0.119 NA
ATOM      3  N   UNL     1       2.060   0.754  -0.067  0.00  0.00    -0.109 NA
ATOM      4  C   UNL     1       1.274   1.803  -0.056  0.00  0.00    +0.254 A 
ATOM      5  N   UNL     1      -0.019   1.363  -0.037  0.00  0.00    -0.211 N 
ATOM      6  N   UNL     1       1.685   3.130  -0.064  0.00  0.00    -0.204 N 
ATOM      7  H   UNL     1       0.937   3.937  -0.054  0.00  0.00    +0.177 HD
ENDROOT
BRANCH   6   8
ATOM      8  N   UNL     1       3.051   3.440  -0.084  0.00  0.00    -0.189 NA
ATOM      9  C   UNL     1       3.429   4.663  -0.091  0.00  0.00    +0.037 C 
ATOM     10  C   UNL     1       2.529   5.881  -0.086  0.00  0.00    +0.052 C 
ATOM     11  C   UNL     1       3.450   7.119  -0.104  0.00  0.00    +0.006 C 
ATOM     12  C   UNL     1       4.769   6.584  -0.718  0.00  0.00    +0.006 C 
ATOM     13  C   UNL     1       4.863   5.162  -0.112  0.00  0.00    +0.052 C 
ENDBRANCH   6   8
BRANCH   5  14
ATOM     14  N   UNL     1      -1.136   2.150  -0.026  0.00  0.00    -0.294 N 
ATOM     15  H   UNL     1      -1.036   3.245  -0.028  0.00  0.00    +0.163 HD
ATOM     16  H   UNL     1      -2.134   1.688  -0.016  0.00  0.00    +0.163 HD
ENDBRANCH   5  14
BRANCH   1  17
ATOM     17  S   UNL     1      -1.411  -1.059  -0.015  0.00  0.00    -0.075 S 
BRANCH  17  18
ATOM     18  C   UNL     1      -0.708  -2.731  -0.024  0.00  0.00    +0.173 C 
BRANCH  18  20
ATOM     19  N   UNL     1      -1.536  -5.062  -0.011  0.00  0.00    -0.284 N 
ATOM     20  C   UNL     1      -1.823  -3.745  -0.008  0.00  0.00    +0.228 C 
ATOM     21  O   UNL     1      -2.978  -3.376   0.009  0.00  0.00    -0.275 OA
ATOM     22  H   UNL     1      -0.493  -5.397  -0.100  0.00  0.00    +0.155 HD
BRANCH  19  25
ATOM     23  C   UNL     1      -4.819  -6.681  -0.370  0.00  0.00    +0.022 A 
ATOM     24  C   UNL     1      -3.804  -5.751  -0.479  0.00  0.00    +0.026 A 
ATOM     25  C   UNL     1      -2.567  -6.003   0.099  0.00  0.00    +0.052 A 
ATOM     26  C   UNL     1      -2.353  -7.194   0.783  0.00  0.00    +0.064 A 
ATOM     27  C   UNL     1      -3.374  -8.118   0.894  0.00  0.00    +0.041 A 
ATOM     28  C   UNL     1      -4.605  -7.864   0.316  0.00  0.00    +0.042 A 
ATOM     29 CL   UNL     1      -5.884  -9.030   0.451  0.00  0.00    -0.083 Cl
ATOM     30 CL   UNL     1      -0.806  -7.517   1.502  0.00  0.00    -0.082 Cl
ENDBRANCH  19  25
ENDBRANCH  18  20
ENDBRANCH  17  18
ENDBRANCH   1  17
TORSDOF 6
