REMARK  Name = ZINC09598267
REMARK  11 active torsions:
REMARK  status: ('A' for Active; 'I' for Inactive)
REMARK    1  A    between atoms: C_1  and  C_2
REMARK    2  A    between atoms: C_5  and  N_8
REMARK    3  A    between atoms: C_9  and  C_11
REMARK    4  A    between atoms: C_12  and  C_40
REMARK    5  A    between atoms: C_16  and  C_18
REMARK    6  A    between atoms: C_21  and  C_23
REMARK    7  A    between atoms: C_27  and  C_30
REMARK    8  A    between atoms: C_33  and  O_38
REMARK    9  A    between atoms: C_34  and  O_36
REMARK   10  A    between atoms: O_36  and  C_37
REMARK   11  A    between atoms: O_38  and  C_39
REMARK                            x       y       z     vdW  Elec       q    Type
REMARK                         _______ _______ _______ _____ _____    ______ ____
ROOT
ATOM      1  C   UNL     1      -2.308   4.918  -1.197  0.00  0.00    +0.044 C 
ATOM      2  C   UNL     1      -1.864   6.186  -1.167  0.00  0.00    +0.014 C 
ATOM      3  N   UNL     1      -1.436   6.742   0.007  0.00  0.00    -0.321 N 
ATOM      4  C   UNL     1      -1.805   6.202   1.209  0.00  0.00    +0.016 C 
ATOM      5  C   UNL     1      -2.246   4.928   1.282  0.00  0.00    +0.024 C 
ATOM      6  C   UNL     1      -2.339   4.074   0.043  0.00  0.00    +0.097 C 
ATOM      7  C   UNL     1      -2.627   4.362   2.510  0.00  0.00    +0.162 C 
ATOM      8  O   UNL     1      -3.034   3.217   2.539  0.00  0.00    -0.292 OA
ATOM      9  C   UNL     1      -2.541   5.147   3.791  0.00  0.00    +0.088 C 
ATOM     10  C   UNL     1      -1.422   6.186   3.663  0.00  0.00    +0.032 C 
ATOM     11  C   UNL     1      -1.711   7.064   2.444  0.00  0.00    +0.059 C 
ATOM     12  C   UNL     1      -1.839   7.000  -2.435  0.00  0.00    +0.061 C 
ATOM     13  H   UNL     1      -0.789   7.631  -0.010  0.00  0.00    +0.152 HD
ENDROOT
BRANCH   6  14
ATOM     14  C   UNL     1      -1.179   3.112   0.016  0.00  0.00    +0.002 A 
ATOM     15  C   UNL     1      -1.194   1.757  -0.001  0.00  0.00    +0.012 A 
ATOM     16  C   UNL     1       0.008   1.074  -0.020  0.00  0.00    +0.011 A 
ATOM     17  C   UNL     1       1.165   1.780  -0.034  0.00  0.00    -0.013 A 
ATOM     18  S   UNL     1       0.572   3.463  -0.010  0.00  0.00    -0.097 S 
ATOM     19  C   UNL     1       2.585   1.274  -0.062  0.00  0.00    +0.051 C 
ENDBRANCH   6  14
BRANCH  10  20
ATOM     20  C   UNL     1      -1.379   7.040   4.904  0.00  0.00    -0.040 A 
ATOM     21  C   UNL     1      -2.493   7.770   5.277  0.00  0.00    +0.008 A 
ATOM     22  C   UNL     1      -2.459   8.555   6.415  0.00  0.00    +0.049 A 
ATOM     23  C   UNL     1      -1.308   8.611   7.184  0.00  0.00    +0.161 A 
ATOM     24  C   UNL     1      -0.187   7.876   6.808  0.00  0.00    +0.162 A 
ATOM     25  C   UNL     1      -0.230   7.087   5.670  0.00  0.00    +0.053 A 
BRANCH  24  26
ATOM     26  O   UNL     1       0.945   7.928   7.560  0.00  0.00    -0.491 OA
ATOM     27  C   UNL     1       2.056   7.148   7.114  0.00  0.00    +0.277 C 
ENDBRANCH  24  26
BRANCH  23  28
ATOM     28  O   UNL     1      -1.273   9.383   8.303  0.00  0.00    -0.491 OA
ATOM     29  C   UNL     1      -2.460  10.110   8.627  0.00  0.00    +0.277 C 
ENDBRANCH  23  28
ENDBRANCH  10  20
BRANCH   1  31
ATOM     30  N   UNL     1      -3.200   3.096  -2.469  0.00  0.00    -0.282 N 
ATOM     31  C   UNL     1      -2.754   4.367  -2.424  0.00  0.00    +0.247 C 
ATOM     32  O   UNL     1      -2.733   5.042  -3.437  0.00  0.00    -0.270 OA
ATOM     33  H   UNL     1      -3.148   2.463  -1.571  0.00  0.00    +0.155 HD
BRANCH  30  38
ATOM     34  C   UNL     1      -5.351   1.017  -7.288  0.00  0.00    +0.044 C 
ATOM     35  C   UNL     1      -4.779   1.569  -6.008  0.00  0.00    -0.050 A 
ATOM     36  C   UNL     1      -3.729   2.467  -6.052  0.00  0.00    +0.005 A 
ATOM     37  C   UNL     1      -3.203   2.976  -4.881  0.00  0.00    +0.023 A 
ATOM     38  C   UNL     1      -3.731   2.583  -3.657  0.00  0.00    +0.034 A 
ATOM     39  C   UNL     1      -4.781   1.676  -3.616  0.00  0.00    +0.023 A 
ATOM     40  C   UNL     1      -5.306   1.176  -4.791  0.00  0.00    +0.005 A 
ENDBRANCH  30  38
ENDBRANCH   1  31
TORSDOF 6
