REMARK  Name = ZINC35316329
REMARK  10 active torsions:
REMARK  status: ('A' for Active; 'I' for Inactive)
REMARK    1  A    between atoms: C_1  and  C_2
REMARK    2  A    between atoms: C_5  and  C_8
REMARK    3  A    between atoms: C_8  and  O_9
REMARK    4  A    between atoms: O_9  and  C_10
REMARK    5  A    between atoms: C_11  and  O_32
REMARK    6  A    between atoms: C_13  and  C_17
REMARK    7  A    between atoms: C_20  and  C_31
REMARK    8  A    between atoms: C_26  and  N_30
REMARK    9  A    between atoms: C_27  and  C_28
REMARK   10  A    between atoms: O_32  and  C_33
REMARK                            x       y       z     vdW  Elec       q    Type
REMARK                         _______ _______ _______ _____ _____    ______ ____
ROOT
ATOM      1  C   UNL     1       1.608  -6.080  -0.040  0.00  0.00    +0.176 A 
ATOM      2  C   UNL     1       1.710  -6.778   1.160  0.00  0.00    +0.163 A 
ATOM      3  C   UNL     1       1.909  -8.149   1.146  0.00  0.00    +0.054 A 
ATOM      4  C   UNL     1       2.007  -8.821  -0.058  0.00  0.00    -0.030 A 
ATOM      5  C   UNL     1       1.907  -8.129  -1.250  0.00  0.00    +0.023 A 
ATOM      6  C   UNL     1       1.702  -6.761  -1.244  0.00  0.00    +0.063 A 
ATOM      7 BR   UNL     1       1.557  -5.819  -2.877  0.00  0.00    -0.046 Br
ENDROOT
BRANCH   4   8
ATOM      8  C   UNL     1       2.224 -10.313  -0.070  0.00  0.00    +0.101 C 
ATOM      9  C   UNL     1       3.504 -10.634  -0.797  0.00  0.00    +0.049 A 
ATOM     10  C   UNL     1       4.817 -10.437  -0.392  0.00  0.00    +0.068 A 
ATOM     11  N   UNL     1       5.607 -10.867  -1.348  0.00  0.00    -0.176 NA
ATOM     12  N   UNL     1       4.810 -11.354  -2.396  0.00  0.00    -0.246 N 
ATOM     13  H   UNL     1       5.131 -11.732  -3.230  0.00  0.00    +0.192 HD
ATOM     14  C   UNL     1       3.524 -11.204  -2.039  0.00  0.00    +0.222 A 
ATOM     15  O   UNL     1       2.394 -11.527  -2.715  0.00  0.00    -0.423 OA
ATOM     16  C   UNL     1       1.234 -11.529  -2.027  0.00  0.00    +0.200 C 
ATOM     17  C   UNL     1       1.087 -10.986  -0.797  0.00  0.00    +0.098 C 
ATOM     18  C   UNL     1       5.260  -9.834   0.916  0.00  0.00    +0.068 C 
BRANCH  16  19
ATOM     19  N   UNL     1       0.138 -12.116  -2.610  0.00  0.00    -0.328 N 
ATOM     20  H   UNL     1       0.212 -12.513  -3.491  0.00  0.00    +0.145 HD
ATOM     21  H   UNL     1      -0.710 -12.133  -2.140  0.00  0.00    +0.145 HD
ENDBRANCH  16  19
BRANCH  17  22
ATOM     22  C   UNL     1      -0.195 -11.053  -0.162  0.00  0.00    +0.101 C 
ATOM     23  N   UNL     1      -1.212 -11.107   0.342  0.00  0.00    -0.191 NA
ENDBRANCH  17  22
ENDBRANCH   4   8
BRANCH   2  24
ATOM     24  O   UNL     1       1.614  -6.115   2.344  0.00  0.00    -0.491 OA
ATOM     25  C   UNL     1       1.727  -6.895   3.535  0.00  0.00    +0.277 C 
ENDBRANCH   2  24
BRANCH   1  26
ATOM     26  O   UNL     1       1.413  -4.734  -0.032  0.00  0.00    -0.483 OA
BRANCH  26  27
ATOM     27  C   UNL     1       0.059  -4.275  -0.021  0.00  0.00    +0.264 C 
BRANCH  27  32
ATOM     28  C   UNL     1      -0.018   1.503   0.010  0.00  0.00    +0.044 C 
ATOM     29  C   UNL     1       0.002  -0.004   0.002  0.00  0.00    -0.050 A 
ATOM     30  C   UNL     1       0.006  -0.689  -1.199  0.00  0.00    +0.004 A 
ATOM     31  C   UNL     1       0.025  -2.071  -1.206  0.00  0.00    +0.007 A 
ATOM     32  C   UNL     1       0.040  -2.768  -0.013  0.00  0.00    -0.010 A 
ATOM     33  C   UNL     1       0.037  -2.084   1.188  0.00  0.00    +0.007 A 
ATOM     34  C   UNL     1       0.023  -0.702   1.195  0.00  0.00    +0.004 A 
ENDBRANCH  27  32
ENDBRANCH  26  27
ENDBRANCH   1  26
TORSDOF 7
