REMARK  Name = ZINC16396191
REMARK  12 active torsions:
REMARK  status: ('A' for Active; 'I' for Inactive)
REMARK    1  A    between atoms: C_1  and  C_2
REMARK    2  A    between atoms: C_2  and  N_3
REMARK    3  A    between atoms: N_3  and  C_4
REMARK    4  A    between atoms: N_3  and  C_29
REMARK    5  A    between atoms: C_7  and  N_10
REMARK    6  A    between atoms: C_11  and  C_13
REMARK    7  A    between atoms: C_13  and  N_68
REMARK    8  A    between atoms: C_16  and  C_19
REMARK    9  A    between atoms: N_21  and  C_22
REMARK   10  A    between atoms: C_22  and  C_23
REMARK   11  A    between atoms: C_29  and  C_30
REMARK   12  A    between atoms: C_29  and  C_31
REMARK                            x       y       z     vdW  Elec       q    Type
REMARK                         _______ _______ _______ _____ _____    ______ ____
ROOT
ATOM      1  C   UNL     1       6.499  -4.519  -4.691  0.00  0.00    -0.077 C 
ATOM      2  C   UNL     1       5.988  -3.893  -3.392  0.00  0.00    -0.006 C 
ATOM      3  C   UNL     1       7.055  -2.949  -2.831  0.00  0.00    +0.071 C 
ATOM      4  C   UNL     1       7.385  -1.883  -3.879  0.00  0.00    -0.006 C 
ATOM      5  C   UNL     1       7.856  -2.567  -5.165  0.00  0.00    -0.077 C 
ATOM      6  N   UNL     1       6.775  -3.442  -5.666  0.00  0.00    +0.385 N 
ATOM      7  H   UNL     1       5.924  -2.881  -5.792  0.00  0.00    -0.081 HD
ENDROOT
BRANCH   3   8
ATOM      8  C   UNL     1       6.534  -2.284  -1.583  0.00  0.00    +0.216 C 
ATOM      9  O   UNL     1       5.418  -2.539  -1.181  0.00  0.00    -0.276 OA
ATOM     10  N   UNL     1       7.307  -1.406  -0.914  0.00  0.00    -0.311 N 
ATOM     11  H   UNL     1       8.200  -1.202  -1.235  0.00  0.00    +0.149 HD
BRANCH  10  12
ATOM     12  C   UNL     1       6.801  -0.759   0.299  0.00  0.00    +0.139 C 
BRANCH  12  13
ATOM     13  C   UNL     1       7.852   0.169   0.850  0.00  0.00    -0.030 A 
ATOM     14  C   UNL     1       7.892   1.489   0.442  0.00  0.00    +0.005 A 
ATOM     15  C   UNL     1       8.856   2.340   0.947  0.00  0.00    +0.000 A 
ATOM     16  C   UNL     1       9.781   1.872   1.861  0.00  0.00    +0.000 A 
ATOM     17  C   UNL     1       9.742   0.552   2.270  0.00  0.00    +0.000 A 
ATOM     18  C   UNL     1       8.777  -0.300   1.764  0.00  0.00    +0.005 A 
ENDBRANCH  12  13
ENDBRANCH  10  12
ENDBRANCH   3   8
BRANCH   6  19
ATOM     19  C   UNL     1       7.161  -4.026  -6.967  0.00  0.00    +0.019 C 
BRANCH  19  21
ATOM     20  N   UNL     1       6.086  -5.415  -8.709  0.00  0.00    -0.287 N 
ATOM     21  C   UNL     1       5.959  -4.706  -7.570  0.00  0.00    +0.201 C 
ATOM     22  O   UNL     1       4.877  -4.615  -7.029  0.00  0.00    -0.278 OA
ATOM     23  H   UNL     1       6.961  -5.536  -9.110  0.00  0.00    +0.155 HD
BRANCH  20  27
ATOM     24  C   UNL     1       2.717  -7.086 -10.512  0.00  0.00    +0.030 A 
ATOM     25  C   UNL     1       3.752  -6.595 -11.296  0.00  0.00    +0.025 A 
ATOM     26  C   UNL     1       4.868  -6.042 -10.699  0.00  0.00    +0.025 A 
ATOM     27  C   UNL     1       4.954  -5.976  -9.315  0.00  0.00    +0.033 A 
ATOM     28  C   UNL     1       3.921  -6.472  -8.530  0.00  0.00    +0.025 A 
ATOM     29  C   UNL     1       2.803  -7.021  -9.127  0.00  0.00    +0.025 A 
BRANCH  24  30
ATOM     30  N   UNL     1       1.587  -7.647 -11.116  0.00  0.00    -0.328 N 
BRANCH  30  31
ATOM     31  C   UNL     1       1.484  -7.692 -12.577  0.00  0.00    +0.067 C 
ATOM     32  C   UNL     1       1.547  -6.269 -13.137  0.00  0.00    +0.027 C 
ATOM     33  C   UNL     1       2.642  -8.515 -13.145  0.00  0.00    +0.027 C 
ENDBRANCH  30  31
BRANCH  30  35
ATOM     34  C   UNL     1      -0.513  -7.086  -9.995  0.00  0.00    +0.024 C 
ATOM     35  C   UNL     1       0.506  -8.188 -10.289  0.00  0.00    +0.102 C 
ENDBRANCH  30  35
ENDBRANCH  24  30
ENDBRANCH  20  27
ENDBRANCH  19  21
ENDBRANCH   6  19
TORSDOF 9
