REMARK  Name = ZINC61671015
REMARK  5 active torsions:
REMARK  status: ('A' for Active; 'I' for Inactive)
REMARK    1  A    between atoms: C_1  and  C_2
REMARK    2  A    between atoms: C_5  and  N_18
REMARK    3  A    between atoms: C_6  and  N_9
REMARK    4  A    between atoms: C_7  and  C_8
REMARK    5  A    between atoms: C_10  and  C_12
REMARK                            x       y       z     vdW  Elec       q    Type
REMARK                         _______ _______ _______ _____ _____    ______ ____
ROOT
ATOM      1  C   UNL     1      -1.484  -1.830  -2.461  0.00  0.00    +0.044 C 
ATOM      2  C   UNL     1      -0.723  -1.597  -1.182  0.00  0.00    -0.046 A 
ATOM      3  C   UNL     1       0.360  -0.736  -1.172  0.00  0.00    +0.005 A 
ATOM      4  C   UNL     1       1.063  -0.518  -0.002  0.00  0.00    +0.025 A 
ATOM      5  C   UNL     1       0.683  -1.163   1.166  0.00  0.00    +0.046 A 
ATOM      6  C   UNL     1      -0.409  -2.030   1.155  0.00  0.00    +0.057 A 
ATOM      7  C   UNL     1      -1.111  -2.239  -0.021  0.00  0.00    -0.025 A 
ATOM      8  C   UNL     1      -2.296  -3.171  -0.037  0.00  0.00    +0.046 C 
ENDROOT
BRANCH   6   9
ATOM      9  N   UNL     1      -0.797  -2.686   2.332  0.00  0.00    -0.284 N 
ATOM     10  C   UNL     1      -0.666  -4.023   2.433  0.00  0.00    +0.220 C 
ATOM     11  O   UNL     1      -0.279  -4.668   1.482  0.00  0.00    -0.275 OA
ATOM     12  H   UNL     1      -1.161  -2.176   3.073  0.00  0.00    +0.155 HD
BRANCH  10  13
ATOM     13  C   UNL     1      -1.000  -4.717   3.729  0.00  0.00    +0.080 C 
ATOM     14  C   UNL     1      -0.098  -4.181   4.845  0.00  0.00    +0.041 C 
ATOM     15  C   UNL     1      -0.390  -4.946   6.138  0.00  0.00    +0.160 C 
ATOM     16  O   UNL     1      -0.183  -6.343   5.920  0.00  0.00    -0.380 OA
ATOM     17  C   UNL     1      -1.032  -6.910   4.921  0.00  0.00    +0.160 C 
ATOM     18  C   UNL     1      -0.767  -6.223   3.578  0.00  0.00    +0.041 C 
ENDBRANCH  10  13
ENDBRANCH   6   9
BRANCH   5  19
ATOM     19  N   UNL     1       1.393  -0.944   2.351  0.00  0.00    -0.357 N 
ATOM     20  H   UNL     1       2.093  -0.273   2.380  0.00  0.00    +0.142 HD
ATOM     21  H   UNL     1       1.186  -1.462   3.144  0.00  0.00    +0.142 HD
ENDBRANCH   5  19
TORSDOF 3
