REMARK  Name = ZINC24143723
REMARK  14 active torsions:
REMARK  status: ('A' for Active; 'I' for Inactive)
REMARK    1  A    between atoms: C_1  and  C_2
REMARK    2  A    between atoms: C_2  and  C_3
REMARK    3  A    between atoms: C_2  and  C_4
REMARK    4  A    between atoms: C_4  and  C_6
REMARK    5  A    between atoms: C_4  and  N_16
REMARK    6  A    between atoms: C_17  and  C_19
REMARK    7  A    between atoms: C_19  and  S_20
REMARK    8  A    between atoms: S_20  and  C_21
REMARK    9  A    between atoms: C_24  and  C_27
REMARK   10  A    between atoms: N_25  and  N_26
REMARK   11  A    between atoms: C_30  and  O_35
REMARK   12  A    between atoms: C_31  and  O_33
REMARK   13  A    between atoms: O_33  and  C_34
REMARK   14  A    between atoms: O_35  and  C_36
REMARK                            x       y       z     vdW  Elec       q    Type
REMARK                         _______ _______ _______ _____ _____    ______ ____
ROOT
ATOM      1  C   UNL     1      -6.626  -0.191   2.399  0.00  0.00    +0.173 C 
ENDROOT
BRANCH   1   3
ATOM      2  N   UNL     1      -4.647  -0.149   0.915  0.00  0.00    -0.308 N 
ATOM      3  C   UNL     1      -5.643  -0.864   1.476  0.00  0.00    +0.224 C 
ATOM      4  O   UNL     1      -5.749  -2.048   1.237  0.00  0.00    -0.275 OA
ATOM      5  H   UNL     1      -4.552   0.925   1.132  0.00  0.00    +0.149 HD
BRANCH   2   6
ATOM      6  C   UNL     1      -3.692  -0.803   0.018  0.00  0.00    +0.106 C 
BRANCH   6   7
ATOM      7  C   UNL     1      -2.397  -0.033   0.016  0.00  0.00    -0.023 A 
ATOM      8  C   UNL     1      -2.415   1.349   0.026  0.00  0.00    +0.009 A 
ATOM      9  C   UNL     1      -1.229   2.059   0.019  0.00  0.00    +0.050 A 
ATOM     10  C   UNL     1      -0.017   1.385   0.010  0.00  0.00    +0.162 A 
ATOM     11  C   UNL     1       0.002  -0.004   0.002  0.00  0.00    +0.162 A 
ATOM     12  C   UNL     1      -1.192  -0.710   0.004  0.00  0.00    +0.055 A 
ATOM     13  O   UNL     1       1.181  -0.685  -0.007  0.00  0.00    -0.485 OA
ATOM     14  C   UNL     1       2.347   0.053  -0.387  0.00  0.00    +0.270 C 
ATOM     15  C   UNL     1       2.334   1.392   0.364  0.00  0.00    +0.270 C 
ATOM     16  O   UNL     1       1.143   2.098   0.002  0.00  0.00    -0.485 OA
ENDBRANCH   6   7
BRANCH   6  18
ATOM     17  C   UNL     1      -3.269  -1.521  -2.338  0.00  0.00    +0.009 C 
ATOM     18  C   UNL     1      -4.266  -0.838  -1.400  0.00  0.00    +0.008 C 
ATOM     19  C   UNL     1      -5.582  -1.620  -1.398  0.00  0.00    +0.009 C 
ENDBRANCH   6  18
ENDBRANCH   2   6
ENDBRANCH   1   3
BRANCH   1  20
ATOM     20  S   UNL     1      -7.833  -1.406   2.984  0.00  0.00    -0.075 S 
BRANCH  20  21
ATOM     21  C   UNL     1      -8.828  -0.379   4.013  0.00  0.00    +0.209 A 
ATOM     22  N   UNL     1      -8.654   0.905   4.234  0.00  0.00    -0.121 NA
ATOM     23  N   UNL     1      -9.562   1.343   5.031  0.00  0.00    -0.127 NA
ATOM     24  C   UNL     1     -10.366   0.364   5.375  0.00  0.00    +0.182 A 
ATOM     25  N   UNL     1      -9.921  -0.769   4.734  0.00  0.00    -0.224 N 
BRANCH  24  26
ATOM     26  C   UNL     1     -11.530   0.461   6.281  0.00  0.00    +0.024 A 
ATOM     27  C   UNL     1     -12.107  -0.697   6.806  0.00  0.00    +0.015 A 
ATOM     28  C   UNL     1     -13.193  -0.605   7.651  0.00  0.00    +0.050 A 
ATOM     29  C   UNL     1     -13.715   0.636   7.982  0.00  0.00    +0.162 A 
ATOM     30  C   UNL     1     -13.145   1.796   7.462  0.00  0.00    +0.162 A 
ATOM     31  C   UNL     1     -12.052   1.711   6.619  0.00  0.00    +0.061 A 
BRANCH  30  32
ATOM     32  O   UNL     1     -13.659   3.012   7.788  0.00  0.00    -0.491 OA
ATOM     33  C   UNL     1     -13.024   4.159   7.218  0.00  0.00    +0.277 C 
ENDBRANCH  30  32
BRANCH  29  34
ATOM     34  O   UNL     1     -14.786   0.722   8.815  0.00  0.00    -0.491 OA
ATOM     35  C   UNL     1     -15.321  -0.507   9.312  0.00  0.00    +0.277 C 
ENDBRANCH  29  34
ENDBRANCH  24  26
BRANCH  25  36
ATOM     36  N   UNL     1     -10.459  -2.022   4.804  0.00  0.00    -0.295 N 
ATOM     37  H   UNL     1     -11.348  -2.205   5.426  0.00  0.00    +0.163 HD
ATOM     38  H   UNL     1     -10.004  -2.849   4.238  0.00  0.00    +0.163 HD
ENDBRANCH  25  36
ENDBRANCH  20  21
ENDBRANCH   1  20
TORSDOF 10
