REMARK  Name = ZINC17357306
REMARK  5 active torsions:
REMARK  status: ('A' for Active; 'I' for Inactive)
REMARK    1  A    between atoms: C_3  and  N_16
REMARK    2  A    between atoms: C_6  and  C_7
REMARK    3  A    between atoms: N_9  and  C_10
REMARK    4  A    between atoms: N_16  and  S_17
REMARK    5  A    between atoms: S_17  and  C_20
REMARK                            x       y       z     vdW  Elec       q    Type
REMARK                         _______ _______ _______ _____ _____    ______ ____
ROOT
ATOM      1  C   UNL     1       1.255  -2.245   2.253  0.00  0.00    +0.015 A 
ATOM      2  C   UNL     1       0.459  -1.654   1.298  0.00  0.00    +0.025 A 
ATOM      3  C   UNL     1       0.843  -0.447   0.721  0.00  0.00    +0.048 A 
ATOM      4  C   UNL     1       2.035   0.162   1.102  0.00  0.00    +0.025 A 
ATOM      5  C   UNL     1       2.833  -0.421   2.059  0.00  0.00    +0.015 A 
ATOM      6  C   UNL     1       2.450  -1.633   2.642  0.00  0.00    +0.037 A 
ENDROOT
BRANCH   6   7
ATOM      7  C   UNL     1       3.305  -2.265   3.664  0.00  0.00    +0.244 C 
ATOM      8  O   UNL     1       2.971  -3.319   4.170  0.00  0.00    -0.270 OA
ATOM      9  N   UNL     1       4.457  -1.673   4.038  0.00  0.00    -0.308 N 
ATOM     10  H   UNL     1       4.723  -0.832   3.635  0.00  0.00    +0.149 HD
BRANCH   9  11
ATOM     11  C   UNL     1       5.306  -2.301   5.054  0.00  0.00    +0.073 C 
ATOM     12  C   UNL     1       4.818  -1.898   6.447  0.00  0.00    +0.022 C 
ATOM     13  C   UNL     1       5.705  -2.553   7.507  0.00  0.00    +0.002 C 
ATOM     14  C   UNL     1       7.151  -2.089   7.320  0.00  0.00    +0.000 C 
ATOM     15  C   UNL     1       7.639  -2.492   5.927  0.00  0.00    +0.002 C 
ATOM     16  C   UNL     1       6.752  -1.837   4.867  0.00  0.00    +0.022 C 
ENDBRANCH   9  11
ENDBRANCH   6   7
BRANCH   3  17
ATOM     17  N   UNL     1       0.037   0.148  -0.243  0.00  0.00    -0.216 N 
ATOM     18  H   UNL     1       0.292   0.113  -1.178  0.00  0.00    +0.174 HD
BRANCH  17  19
ATOM     19  S   UNL     1      -1.359   0.918   0.205  0.00  0.00    +0.072 S 
ATOM     20  O   UNL     1      -1.922   1.462  -0.981  0.00  0.00    -0.150 OA
ATOM     21  O   UNL     1      -2.070   0.015   1.042  0.00  0.00    -0.150 OA
BRANCH  19  22
ATOM     22  C   UNL     1      -0.898   2.285   1.217  0.00  0.00    +0.112 A 
ATOM     23  C   UNL     1      -0.904   2.156   2.594  0.00  0.00    +0.032 A 
ATOM     24  C   UNL     1      -0.538   3.223   3.394  0.00  0.00    +0.051 A 
ATOM     25  C   UNL     1      -0.176   4.426   2.812  0.00  0.00    +0.162 A 
ATOM     26  C   UNL     1      -0.176   4.557   1.430  0.00  0.00    +0.164 A 
ATOM     27  C   UNL     1      -0.538   3.485   0.632  0.00  0.00    +0.078 A 
ATOM     28  O   UNL     1       0.183   5.747   0.866  0.00  0.00    -0.488 OA
ATOM     29  C   UNL     1      -0.720   6.835   1.074  0.00  0.00    +0.232 C 
ATOM     30  C   UNL     1      -0.448   7.513   2.408  0.00  0.00    +0.082 C 
ATOM     31  C   UNL     1      -0.721   6.596   3.590  0.00  0.00    +0.232 C 
ATOM     32  O   UNL     1       0.182   5.488   3.590  0.00  0.00    -0.488 OA
ENDBRANCH  19  22
ENDBRANCH  17  19
ENDBRANCH   3  17
TORSDOF 5
