REMARK  Name = ZINC39503894
REMARK  6 active torsions:
REMARK  status: ('A' for Active; 'I' for Inactive)
REMARK    1  A    between atoms: C_1  and  O_2
REMARK    2  A    between atoms: O_2  and  N_3
REMARK    3  A    between atoms: C_5  and  C_21
REMARK    4  A    between atoms: C_11  and  C_14
REMARK    5  A    between atoms: C_19  and  O_20
REMARK    6  A    between atoms: C_26  and  O_27
REMARK                            x       y       z     vdW  Elec       q    Type
REMARK                         _______ _______ _______ _____ _____    ______ ____
ROOT
ATOM      1  N   UNL     1      -1.326  -0.617   0.011  0.00  0.00    -0.182 NA
ATOM      2  C   UNL     1      -1.511  -1.463   1.212  0.00  0.00    +0.123 C 
ATOM      3  C   UNL     1      -2.410  -2.633   0.737  0.00  0.00    +0.041 C 
ATOM      4  C   UNL     1      -1.881  -2.873  -0.703  0.00  0.00    +0.034 C 
ATOM      5  C   UNL     1      -1.528  -1.454  -1.179  0.00  0.00    +0.048 C 
ATOM      6  C   UNL     1      -2.653  -0.891  -2.056  0.00  0.00    +0.025 C 
ATOM      7  C   UNL     1      -2.024  -0.599  -3.436  0.00  0.00    +0.010 C 
ATOM      8  C   UNL     1      -0.514  -0.422  -3.136  0.00  0.00    +0.024 C 
ATOM      9  C   UNL     1      -0.255  -1.486  -2.039  0.00  0.00    +0.033 C 
ENDROOT
BRANCH   8  10
ATOM     10  C   UNL     1       0.310  -0.706  -4.365  0.00  0.00    -0.003 A 
ATOM     11  C   UNL     1       0.225  -1.937  -4.987  0.00  0.00    +0.007 A 
ATOM     12  C   UNL     1       0.982  -2.197  -6.114  0.00  0.00    +0.001 A 
ATOM     13  C   UNL     1       1.825  -1.227  -6.623  0.00  0.00    +0.004 A 
ATOM     14  C   UNL     1       1.914   0.006  -6.006  0.00  0.00    +0.046 A 
ATOM     15  C   UNL     1       1.151   0.272  -4.877  0.00  0.00    +0.120 A 
BRANCH  15  16
ATOM     16  O   UNL     1       1.232   1.485  -4.272  0.00  0.00    -0.506 OA
ATOM     17  H   UNL     1       1.913   1.538  -3.586  0.00  0.00    +0.292 HD
ENDBRANCH  15  16
ENDBRANCH   8  10
BRANCH   3  18
ATOM     18  C   UNL     1      -2.207  -3.853   1.598  0.00  0.00    -0.002 A 
ATOM     19  C   UNL     1      -0.950  -4.415   1.714  0.00  0.00    +0.007 A 
ATOM     20  C   UNL     1      -0.763  -5.535   2.503  0.00  0.00    +0.001 A 
ATOM     21  C   UNL     1      -1.832  -6.095   3.178  0.00  0.00    +0.004 A 
ATOM     22  C   UNL     1      -3.091  -5.536   3.066  0.00  0.00    +0.046 A 
ATOM     23  C   UNL     1      -3.280  -4.409   2.279  0.00  0.00    +0.120 A 
BRANCH  23  24
ATOM     24  O   UNL     1      -4.516  -3.854   2.171  0.00  0.00    -0.506 OA
ATOM     25  H   UNL     1      -5.045  -4.212   1.445  0.00  0.00    +0.292 HD
ENDBRANCH  23  24
ENDBRANCH   3  18
BRANCH   1  27
ATOM     26  C   UNL     1      -0.017   1.425   0.010  0.00  0.00    +0.221 C 
ATOM     27  O   UNL     1       0.002  -0.004   0.002  0.00  0.00    -0.300 OA
ENDBRANCH   1  27
TORSDOF 5
