REMARK  Name = ZINC03764221
REMARK  9 active torsions:
REMARK  status: ('A' for Active; 'I' for Inactive)
REMARK    1  A    between atoms: C_2  and  C_3
REMARK    2  A    between atoms: C_3  and  N_4
REMARK    3  A    between atoms: C_5  and  C_22
REMARK    4  A    between atoms: C_8  and  S_9
REMARK    5  A    between atoms: S_9  and  C_10
REMARK    6  A    between atoms: C_10  and  C_11
REMARK    7  A    between atoms: N_13  and  C_14
REMARK    8  A    between atoms: C_25  and  N_28
REMARK    9  A    between atoms: C_29  and  C_31
REMARK                            x       y       z     vdW  Elec       q    Type
REMARK                         _______ _______ _______ _____ _____    ______ ____
ROOT
ATOM      1  N   UNL     1      -1.203   3.777  -0.547  0.00  0.00    -0.298 N 
ATOM      2  C   UNL     1      -0.157   3.089   0.022  0.00  0.00    +0.165 A 
ATOM      3  N   UNL     1       0.710   3.982   0.439  0.00  0.00    -0.128 NA
ATOM      4  N   UNL     1       0.281   5.165   0.178  0.00  0.00    -0.122 NA
ATOM      5  C   UNL     1      -0.887   5.100  -0.421  0.00  0.00    +0.193 A 
ENDROOT
BRANCH   2   6
ATOM      6  C   UNL     1      -0.029   1.621   0.137  0.00  0.00    +0.019 A 
ATOM      7  C   UNL     1      -1.163   0.811   0.048  0.00  0.00    +0.013 A 
ATOM      8  C   UNL     1      -1.040  -0.558   0.151  0.00  0.00    +0.024 A 
ATOM      9  C   UNL     1       0.210  -1.132   0.353  0.00  0.00    +0.034 A 
ATOM     10  C   UNL     1       1.341  -0.328   0.447  0.00  0.00    +0.024 A 
ATOM     11  C   UNL     1       1.225   1.041   0.340  0.00  0.00    +0.013 A 
BRANCH   9  12
ATOM     12  N   UNL     1       0.331  -2.520   0.462  0.00  0.00    -0.281 N 
ATOM     13  C   UNL     1       1.250  -3.053   1.290  0.00  0.00    +0.249 C 
ATOM     14  O   UNL     1       1.907  -2.331   2.016  0.00  0.00    -0.270 OA
ATOM     15  H   UNL     1      -0.247  -3.099  -0.059  0.00  0.00    +0.155 HD
BRANCH  13  16
ATOM     16  C   UNL     1       1.460  -4.510   1.317  0.00  0.00    +0.047 A 
ATOM     17  C   UNL     1       0.725  -5.349   0.509  0.00  0.00    +0.058 A 
ATOM     18  S   UNL     1       1.338  -6.920   0.907  0.00  0.00    -0.101 S 
ATOM     19  C   UNL     1       2.535  -6.456   2.126  0.00  0.00    -0.006 A 
ATOM     20  C   UNL     1       2.443  -5.109   2.200  0.00  0.00    -0.025 A 
ATOM     21  C   UNL     1       3.325  -4.314   3.155  0.00  0.00    +0.037 C 
ATOM     22  C   UNL     1       3.879  -5.264   4.218  0.00  0.00    +0.005 C 
ATOM     23  C   UNL     1       4.543  -6.469   3.546  0.00  0.00    +0.005 C 
ATOM     24  C   UNL     1       3.453  -7.343   2.909  0.00  0.00    +0.043 C 
ENDBRANCH  13  16
ENDBRANCH   9  12
ENDBRANCH   2   6
BRANCH   1  25
ATOM     25  C   UNL     1      -2.408   3.209  -1.158  0.00  0.00    +0.152 C 
BRANCH  25  27
ATOM     26  C   UNL     1      -4.666   3.735  -0.393  0.00  0.00    +0.005 C 
ATOM     27  C   UNL     1      -3.515   3.164  -0.137  0.00  0.00    -0.013 C 
ENDBRANCH  25  27
ENDBRANCH   1  25
BRANCH   5  28
ATOM     28  S   UNL     1      -1.859   6.464  -0.968  0.00  0.00    -0.077 S 
BRANCH  28  29
ATOM     29  C   UNL     1      -0.791   7.834  -0.462  0.00  0.00    +0.173 C 
BRANCH  29  30
ATOM     30  C   UNL     1      -1.438   9.142  -0.839  0.00  0.00    +0.228 C 
ATOM     31  O   UNL     1      -2.516   9.146  -1.395  0.00  0.00    -0.275 OA
ATOM     32  N   UNL     1      -0.819  10.306  -0.558  0.00  0.00    -0.284 N 
ATOM     33  H   UNL     1       0.010  10.305  -0.055  0.00  0.00    +0.155 HD
BRANCH  32  34
ATOM     34  C   UNL     1      -1.373  11.515  -0.993  0.00  0.00    +0.053 A 
ATOM     35  C   UNL     1      -2.752  11.672  -1.040  0.00  0.00    +0.044 A 
ATOM     36  C   UNL     1      -3.296  12.870  -1.465  0.00  0.00    +0.043 A 
ATOM     37  C   UNL     1      -2.468  13.908  -1.854  0.00  0.00    +0.021 A 
ATOM     38  C   UNL     1      -1.095  13.753  -1.814  0.00  0.00    +0.023 A 
ATOM     39  C   UNL     1      -0.544  12.560  -1.385  0.00  0.00    +0.062 A 
ATOM     40 CL   UNL     1       1.180  12.366  -1.334  0.00  0.00    -0.082 Cl
ATOM     41 CL   UNL     1      -5.020  13.069  -1.517  0.00  0.00    -0.083 Cl
ENDBRANCH  32  34
ENDBRANCH  29  30
ENDBRANCH  28  29
ENDBRANCH   5  28
TORSDOF 9
