REMARK  Name = ZINC12767545
REMARK  6 active torsions:
REMARK  status: ('A' for Active; 'I' for Inactive)
REMARK    1  A    between atoms: C_1  and  C_2
REMARK    2  A    between atoms: N_4  and  C_5
REMARK    3  A    between atoms: C_8  and  S_11
REMARK    4  A    between atoms: S_11  and  C_12
REMARK    5  A    between atoms: N_22  and  S_23
REMARK    6  A    between atoms: S_23  and  C_26
REMARK                            x       y       z     vdW  Elec       q    Type
REMARK                         _______ _______ _______ _____ _____    ______ ____
ROOT
ATOM      1  C   UNL     1       4.936  -0.214  -3.809  0.00  0.00    +0.143 A 
ATOM      2  C   UNL     1       4.581  -0.018  -2.453  0.00  0.00    +0.171 A 
ATOM      3  N   UNL     1       4.510   1.198  -1.951  0.00  0.00    -0.227 NA
ATOM      4  C   UNL     1       4.787   2.256  -2.728  0.00  0.00    +0.091 A 
ATOM      5  C   UNL     1       4.723   3.561  -2.214  0.00  0.00    +0.030 A 
ATOM      6  C   UNL     1       5.003   4.621  -3.024  0.00  0.00    +0.002 A 
ATOM      7  C   UNL     1       5.352   4.429  -4.358  0.00  0.00    +0.002 A 
ATOM      8  C   UNL     1       5.423   3.176  -4.889  0.00  0.00    +0.030 A 
ATOM      9  C   UNL     1       5.142   2.061  -4.084  0.00  0.00    +0.091 A 
ATOM     10  N   UNL     1       5.205   0.818  -4.584  0.00  0.00    -0.235 NA
ATOM     11  N   UNL     1       4.300  -1.112  -1.649  0.00  0.00    -0.197 N 
ATOM     12  H   UNL     1       4.347  -2.009  -2.016  0.00  0.00    +0.175 HD
ENDROOT
BRANCH  11  13
ATOM     13  S   UNL     1       3.883  -0.888  -0.062  0.00  0.00    +0.074 S 
ATOM     14  O   UNL     1       4.849  -0.005   0.491  0.00  0.00    -0.150 OA
ATOM     15  O   UNL     1       3.634  -2.179   0.478  0.00  0.00    -0.150 OA
BRANCH  13  16
ATOM     16  C   UNL     1       2.345  -0.029  -0.043  0.00  0.00    +0.112 A 
ATOM     17  C   UNL     1       1.159  -0.738  -0.041  0.00  0.00    +0.032 A 
ATOM     18  C   UNL     1      -0.050  -0.068  -0.026  0.00  0.00    +0.051 A 
ATOM     19  C   UNL     1      -0.075   1.319  -0.014  0.00  0.00    +0.162 A 
ATOM     20  C   UNL     1       1.118   2.032  -0.013  0.00  0.00    +0.164 A 
ATOM     21  C   UNL     1       2.328   1.353  -0.029  0.00  0.00    +0.078 A 
ATOM     22  O   UNL     1       1.117   3.393   0.007  0.00  0.00    -0.485 OA
ATOM     23  C   UNL     1      -0.108   4.040  -0.354  0.00  0.00    +0.270 C 
ATOM     24  C   UNL     1      -1.258   3.343   0.385  0.00  0.00    +0.270 C 
ATOM     25  O   UNL     1      -1.272   1.966  -0.009  0.00  0.00    -0.485 OA
ENDBRANCH  13  16
ENDBRANCH  11  13
BRANCH   1  26
ATOM     26  S   UNL     1       5.019  -1.847  -4.466  0.00  0.00    -0.066 S 
BRANCH  26  30
ATOM     27  C   UNL     1       5.846  -0.903  -8.820  0.00  0.00    +0.033 A 
ATOM     28  C   UNL     1       6.899  -1.178  -7.957  0.00  0.00    +0.024 A 
ATOM     29  C   UNL     1       6.647  -1.466  -6.630  0.00  0.00    +0.017 A 
ATOM     30  C   UNL     1       5.340  -1.480  -6.159  0.00  0.00    +0.014 A 
ATOM     31  C   UNL     1       4.287  -1.211  -7.024  0.00  0.00    +0.017 A 
ATOM     32  C   UNL     1       4.540  -0.917  -8.348  0.00  0.00    +0.024 A 
BRANCH  27  36
ATOM     33  C   UNL     1       5.673   0.678 -12.233  0.00  0.00    +0.109 C 
ATOM     34  C   UNL     1       5.335   0.286 -10.818  0.00  0.00    +0.214 C 
ATOM     35  O   UNL     1       4.373   0.777 -10.266  0.00  0.00    -0.276 OA
ATOM     36  N   UNL     1       6.102  -0.611 -10.166  0.00  0.00    -0.286 N 
ATOM     37  H   UNL     1       6.831  -1.053 -10.628  0.00  0.00    +0.155 HD
ENDBRANCH  27  36
ENDBRANCH  26  30
ENDBRANCH   1  26
TORSDOF 5
