REMARK  Name = ZINC12877626
REMARK  5 active torsions:
REMARK  status: ('A' for Active; 'I' for Inactive)
REMARK    1  A    between atoms: C_6  and  C_7
REMARK    2  A    between atoms: C_17  and  C_18
REMARK    3  A    between atoms: C_17  and  N_53
REMARK    4  A    between atoms: N_20  and  N_21
REMARK    5  A    between atoms: C_22  and  C_24
REMARK                            x       y       z     vdW  Elec       q    Type
REMARK                         _______ _______ _______ _____ _____    ______ ____
ROOT
ATOM      1  C   UNL     1      -1.026   4.999  -4.205  0.00  0.00    +0.080 A 
ATOM      2  C   UNL     1      -1.203   3.973  -5.089  0.00  0.00    +0.076 A 
ATOM      3  S   UNL     1      -0.824   2.568  -4.051  0.00  0.00    -0.060 S 
ATOM      4  C   UNL     1      -0.480   3.481  -2.553  0.00  0.00    +0.161 A 
ATOM      5  N   UNL     1      -0.667   4.725  -2.952  0.00  0.00    -0.225 NA
ATOM      6  N   UNL     1      -0.108   3.008  -1.305  0.00  0.00    -0.313 N 
ATOM      7  C   UNL     1      -0.016   1.541  -1.303  0.00  0.00    +0.088 C 
ATOM      8  C   UNL     1       0.473   1.065   0.067  0.00  0.00    -0.059 C 
ATOM      9  C   UNL     1      -0.550   2.999   1.103  0.00  0.00    -0.059 C 
ATOM     10  C   UNL     1      -1.038   3.475  -0.267  0.00  0.00    +0.088 C 
ATOM     11  N   UNL     1      -0.482   1.522   1.099  0.00  0.00    +0.387 N 
ATOM     12  H   UNL     1      -1.413   1.146   0.882  0.00  0.00    -0.081 HD
ENDROOT
BRANCH   1  18
ATOM     13  C   UNL     1      -0.955   7.451  -3.758  0.00  0.00    +0.013 A 
ATOM     14  C   UNL     1      -1.144   8.756  -4.165  0.00  0.00    +0.039 A 
ATOM     15  C   UNL     1      -1.617   9.025  -5.439  0.00  0.00    +0.123 A 
ATOM     16  C   UNL     1      -1.898   7.987  -6.312  0.00  0.00    +0.039 A 
ATOM     17  C   UNL     1      -1.708   6.679  -5.916  0.00  0.00    +0.013 A 
ATOM     18  C   UNL     1      -1.232   6.403  -4.635  0.00  0.00    +0.001 A 
ATOM     19  F   UNL     1      -1.805  10.305  -5.830  0.00  0.00    -0.205 F 
ENDBRANCH   1  18
BRANCH  11  20
ATOM     20  C   UNL     1      -0.062   1.031   2.429  0.00  0.00    +0.020 C 
BRANCH  20  21
ATOM     21  C   UNL     1      -0.219  -0.468   2.465  0.00  0.00    +0.213 C 
ATOM     22  O   UNL     1      -0.724  -1.048   1.527  0.00  0.00    -0.276 OA
ATOM     23  N   UNL     1       0.203  -1.163   3.540  0.00  0.00    -0.236 N 
ATOM     24  H   UNL     1       0.607  -0.699   4.290  0.00  0.00    +0.173 HD
BRANCH  23  25
ATOM     25  N   UNL     1       0.058  -2.556   3.574  0.00  0.00    -0.230 N 
ATOM     26  C   UNL     1       0.480  -3.252   4.648  0.00  0.00    +0.260 C 
ATOM     27  O   UNL     1       0.986  -2.670   5.588  0.00  0.00    -0.269 OA
ATOM     28  H   UNL     1      -0.346  -3.020   2.824  0.00  0.00    +0.173 HD
BRANCH  26  29
ATOM     29  C   UNL     1       0.327  -4.721   4.684  0.00  0.00    +0.038 A 
ATOM     30  C   UNL     1      -0.260  -5.391   3.609  0.00  0.00    +0.014 A 
ATOM     31  C   UNL     1      -0.395  -6.763   3.646  0.00  0.00    +0.016 A 
ATOM     32  C   UNL     1       0.039  -7.475   4.751  0.00  0.00    +0.018 A 
ATOM     33  C   UNL     1       0.616  -6.816   5.824  0.00  0.00    +0.016 A 
ATOM     34  C   UNL     1       0.762  -5.445   5.796  0.00  0.00    +0.014 A 
ATOM     35 BR   UNL     1      -0.156  -9.355   4.797  0.00  0.00    -0.050 Br
ENDBRANCH  26  29
ENDBRANCH  23  25
ENDBRANCH  20  21
ENDBRANCH  11  20
TORSDOF 5
