REMARK  Name = ZINC17026773
REMARK  12 active torsions:
REMARK  status: ('A' for Active; 'I' for Inactive)
REMARK    1  A    between atoms: C_1  and  C_2
REMARK    2  A    between atoms: C_5  and  O_35
REMARK    3  A    between atoms: N_11  and  C_12
REMARK    4  A    between atoms: C_12  and  C_13
REMARK    5  A    between atoms: C_13  and  N_70
REMARK    6  A    between atoms: C_14  and  N_70
REMARK    7  A    between atoms: C_15  and  N_70
REMARK    8  A    between atoms: C_16  and  C_18
REMARK    9  A    between atoms: C_21  and  S_24
REMARK   10  A    between atoms: S_24  and  N_27
REMARK   11  A    between atoms: C_31  and  C_34
REMARK   12  A    between atoms: O_35  and  C_36
REMARK                            x       y       z     vdW  Elec       q    Type
REMARK                         _______ _______ _______ _____ _____    ______ ____
ROOT
ATOM      1  C   UNL     1      -1.004   9.312  -0.115  0.00  0.00    +0.045 C 
ATOM      2  C   UNL     1       0.494   9.144  -0.103  0.00  0.00    -0.034 A 
ATOM      3  C   UNL     1       1.317  10.255  -0.136  0.00  0.00    +0.008 A 
ATOM      4  C   UNL     1       2.693  10.082  -0.125  0.00  0.00    +0.048 A 
ATOM      5  C   UNL     1       3.258   8.829  -0.083  0.00  0.00    +0.147 A 
ATOM      6  C   UNL     1       2.443   7.669  -0.049  0.00  0.00    +0.122 A 
ATOM      7  C   UNL     1       1.048   7.888  -0.061  0.00  0.00    +0.047 A 
ATOM      8  S   UNL     1       0.405   6.232  -0.011  0.00  0.00    -0.051 S 
ATOM      9  C   UNL     1       1.976   5.382   0.023  0.00  0.00    +0.168 A 
ATOM     10  N   UNL     1       2.833   6.376  -0.001  0.00  0.00    -0.221 NA
ATOM     11  N   UNL     1       2.227   4.021   0.068  0.00  0.00    -0.248 N 
ATOM     12  C   UNL     1       1.201   3.147   0.092  0.00  0.00    +0.252 C 
ATOM     13  O   UNL     1       0.060   3.546  -0.033  0.00  0.00    -0.270 OA
ENDROOT
BRANCH  12  14
ATOM     14  C   UNL     1       1.463   1.704   0.272  0.00  0.00    +0.037 A 
ATOM     15  C   UNL     1       2.481   1.081  -0.453  0.00  0.00    +0.015 A 
ATOM     16  C   UNL     1       2.721  -0.267  -0.281  0.00  0.00    +0.029 A 
ATOM     17  C   UNL     1       1.956  -1.001   0.608  0.00  0.00    +0.106 A 
ATOM     18  C   UNL     1       0.946  -0.390   1.330  0.00  0.00    +0.029 A 
ATOM     19  C   UNL     1       0.695   0.957   1.167  0.00  0.00    +0.015 A 
BRANCH  17  20
ATOM     20  S   UNL     1       2.269  -2.721   0.822  0.00  0.00    +0.061 S 
ATOM     21  O   UNL     1       1.063  -3.297   1.305  0.00  0.00    -0.153 OA
ATOM     22  O   UNL     1       2.905  -3.169  -0.367  0.00  0.00    -0.153 OA
BRANCH  20  23
ATOM     23  N   UNL     1       3.383  -2.869   2.039  0.00  0.00    -0.176 NA
ATOM     24  C   UNL     1       4.822  -2.877   1.739  0.00  0.00    +0.109 C 
ATOM     25  C   UNL     1       5.505  -1.799   2.595  0.00  0.00    +0.017 C 
ATOM     26  C   UNL     1       5.169  -2.037   4.069  0.00  0.00    +0.006 C 
ATOM     27  C   UNL     1       3.656  -1.926   4.273  0.00  0.00    +0.002 C 
ATOM     28  C   UNL     1       2.952  -3.000   3.437  0.00  0.00    +0.112 C 
ATOM     29  C   UNL     1       3.323  -2.131   5.752  0.00  0.00    +0.009 C 
ENDBRANCH  20  23
ENDBRANCH  17  20
ENDBRANCH  12  14
BRANCH   5  30
ATOM     30  O   UNL     1       4.612   8.700  -0.072  0.00  0.00    -0.493 OA
ATOM     31  C   UNL     1       5.378   9.906  -0.107  0.00  0.00    +0.277 C 
ENDBRANCH   5  30
BRANCH  11  32
ATOM     32  C   UNL     1       3.607   3.530   0.088  0.00  0.00    +0.097 C 
BRANCH  32  33
ATOM     33  C   UNL     1       4.161   3.506  -1.337  0.00  0.00    -0.060 C 
BRANCH  33  36
ATOM     34  C   UNL     1       5.961   2.635  -2.703  0.00  0.00    -0.097 C 
ATOM     35  C   UNL     1       6.457   3.727  -0.600  0.00  0.00    -0.097 C 
ATOM     36  N   UNL     1       5.494   2.867  -1.320  0.00  0.00    +0.377 N 
ATOM     37  H   UNL     1       5.426   1.964  -0.835  0.00  0.00    -0.083 HD
ENDBRANCH  33  36
ENDBRANCH  32  33
ENDBRANCH  11  32
TORSDOF 7
