REMARK  Name = ZINC14781014
REMARK  4 active torsions:
REMARK  status: ('A' for Active; 'I' for Inactive)
REMARK    1  A    between atoms: C_1  and  C_2
REMARK    2  A    between atoms: C_9  and  N_14
REMARK    3  A    between atoms: C_15  and  C_17
REMARK    4  A    between atoms: N_20  and  C_22
REMARK                            x       y       z     vdW  Elec       q    Type
REMARK                         _______ _______ _______ _____ _____    ______ ____
ROOT
ATOM      1  N   UNL     1      -2.418   4.171   0.185  0.00  0.00    -0.280 N 
ATOM      2  C   UNL     1      -2.420   5.518   0.231  0.00  0.00    +0.269 C 
ATOM      3  O   UNL     1      -1.369   6.129   0.203  0.00  0.00    -0.268 OA
ATOM      4  H   UNL     1      -3.257   3.687   0.131  0.00  0.00    +0.155 HD
ENDROOT
BRANCH   1  12
ATOM      5  C   UNL     1       4.744   1.298   0.754  0.00  0.00    +0.062 C 
ATOM      6  C   UNL     1       3.559   2.195   0.390  0.00  0.00    +0.256 C 
ATOM      7  C   UNL     1       3.386   3.253   1.450  0.00  0.00    +0.258 C 
ATOM      8  O   UNL     1       4.344   3.640   2.086  0.00  0.00    -0.271 OA
ATOM      9  N   UNL     1       2.161   3.768   1.689  0.00  0.00    -0.279 N 
ATOM     10  C   UNL     1       1.064   3.278   0.965  0.00  0.00    +0.077 A 
ATOM     11  C   UNL     1      -0.134   3.971   0.943  0.00  0.00    +0.050 A 
ATOM     12  C   UNL     1      -1.206   3.471   0.215  0.00  0.00    +0.036 A 
ATOM     13  C   UNL     1      -1.078   2.275  -0.478  0.00  0.00    +0.027 A 
ATOM     14  C   UNL     1       0.117   1.580  -0.452  0.00  0.00    +0.049 A 
ATOM     15  C   UNL     1       1.190   2.077   0.268  0.00  0.00    +0.143 A 
ATOM     16  O   UNL     1       2.372   1.404   0.302  0.00  0.00    -0.478 OA
ATOM     17  H   UNL     1       2.041   4.465   2.352  0.00  0.00    +0.155 HD
ENDBRANCH   1  12
BRANCH   2  18
ATOM     18  C   UNL     1      -3.698   6.252   0.315  0.00  0.00    +0.151 A 
ATOM     19  C   UNL     1      -3.861   7.647   0.376  0.00  0.00    +0.006 A 
ATOM     20  C   UNL     1      -5.198   7.864   0.443  0.00  0.00    +0.049 A 
ATOM     21  N   UNL     1      -5.799   6.654   0.428  0.00  0.00    -0.236 N 
ATOM     22  N   UNL     1      -4.910   5.724   0.354  0.00  0.00    -0.161 NA
ATOM     23  C   UNL     1      -5.824   9.232   0.525  0.00  0.00    +0.056 C 
ATOM     24  C   UNL     1      -4.737  10.237   0.927  0.00  0.00    +0.006 C 
ATOM     25  C   UNL     1      -3.513  10.060   0.024  0.00  0.00    +0.005 C 
ATOM     26  C   UNL     1      -2.820   8.732   0.355  0.00  0.00    +0.039 C 
BRANCH  21  27
ATOM     27  C   UNL     1      -7.183   6.442   0.485  0.00  0.00    +0.066 A 
ATOM     28  C   UNL     1      -7.699   5.427   1.279  0.00  0.00    +0.030 A 
ATOM     29  C   UNL     1      -9.063   5.223   1.338  0.00  0.00    +0.040 A 
ATOM     30  C   UNL     1      -9.916   6.023   0.596  0.00  0.00    +0.124 A 
ATOM     31  C   UNL     1      -9.404   7.033  -0.200  0.00  0.00    +0.040 A 
ATOM     32  C   UNL     1      -8.040   7.244  -0.258  0.00  0.00    +0.030 A 
ATOM     33  F   UNL     1     -11.251   5.818   0.650  0.00  0.00    -0.205 F 
ENDBRANCH  21  27
ENDBRANCH   2  18
TORSDOF 3
