REMARK  Name = ZINC09382675
REMARK  10 active torsions:
REMARK  status: ('A' for Active; 'I' for Inactive)
REMARK    1  A    between atoms: C_1  and  C_2
REMARK    2  A    between atoms: C_2  and  C_4
REMARK    3  A    between atoms: C_2  and  N_24
REMARK    4  A    between atoms: C_4  and  C_6
REMARK    5  A    between atoms: C_4  and  N_61
REMARK    6  A    between atoms: N_13  and  C_16
REMARK    7  A    between atoms: C_19  and  O_22
REMARK    8  A    between atoms: O_22  and  C_23
REMARK    9  A    between atoms: N_24  and  S_25
REMARK   10  A    between atoms: S_25  and  C_28
REMARK                            x       y       z     vdW  Elec       q    Type
REMARK                         _______ _______ _______ _____ _____    ______ ____
ROOT
ATOM      1  C   UNL     1       1.859  -2.329  -3.892  0.00  0.00    -0.012 C 
ENDROOT
BRANCH   1   7
ATOM      2  C   UNL     1       3.569  -0.924  -4.875  0.00  0.00    -0.059 C 
ATOM      3  C   UNL     1       4.646  -0.867  -5.961  0.00  0.00    +0.086 C 
ATOM      4  N   UNL     1       4.017  -1.022  -7.280  0.00  0.00    -0.333 N 
ATOM      5  C   UNL     1       3.301  -2.302  -7.372  0.00  0.00    +0.086 C 
ATOM      6  C   UNL     1       2.224  -2.359  -6.286  0.00  0.00    -0.059 C 
ATOM      7  N   UNL     1       2.872  -2.224  -4.964  0.00  0.00    +0.388 N 
ATOM      8  H   UNL     1       3.558  -2.979  -4.850  0.00  0.00    -0.081 HD
BRANCH   4   9
ATOM      9  C   UNL     1       4.963  -0.903  -8.304  0.00  0.00    +0.030 A 
ATOM     10  C   UNL     1       5.121  -1.929  -9.227  0.00  0.00    +0.027 A 
ATOM     11  C   UNL     1       6.052  -1.808 -10.241  0.00  0.00    +0.047 A 
ATOM     12  C   UNL     1       6.836  -0.667 -10.330  0.00  0.00    +0.120 A 
ATOM     13  C   UNL     1       6.683   0.355  -9.406  0.00  0.00    +0.047 A 
ATOM     14  C   UNL     1       5.749   0.239  -8.395  0.00  0.00    +0.027 A 
BRANCH  12  15
ATOM     15  O   UNL     1       7.756  -0.552 -11.325  0.00  0.00    -0.495 OA
ATOM     16  C   UNL     1       7.861  -1.643 -12.242  0.00  0.00    +0.277 C 
ENDBRANCH  12  15
ENDBRANCH   4   9
ENDBRANCH   1   7
BRANCH   1  17
ATOM     17  C   UNL     1       0.750  -1.333  -4.114  0.00  0.00    -0.022 A 
ATOM     18  C   UNL     1      -0.591  -1.529  -4.090  0.00  0.00    +0.009 A 
ATOM     19  C   UNL     1      -1.430  -0.456  -4.322  0.00  0.00    +0.008 A 
ATOM     20  C   UNL     1      -0.887   0.760  -4.577  0.00  0.00    +0.045 A 
ATOM     21  S   UNL     1       0.861   0.410  -4.486  0.00  0.00    -0.103 S 
ENDBRANCH   1  17
BRANCH   1  23
ATOM     22  C   UNL     1       3.655  -3.064  -2.318  0.00  0.00    +0.024 C 
ATOM     23  C   UNL     1       2.529  -2.053  -2.544  0.00  0.00    +0.065 C 
BRANCH  23  24
ATOM     24  N   UNL     1       1.538  -2.178  -1.472  0.00  0.00    -0.188 NA
ATOM     25  H   UNL     1       0.832  -2.839  -1.539  0.00  0.00    +0.148 HD
BRANCH  24  26
ATOM     26  S   UNL     1       1.624  -1.189  -0.146  0.00  0.00    +0.059 S 
ATOM     27  O   UNL     1       2.969  -1.236   0.309  0.00  0.00    -0.153 OA
ATOM     28  O   UNL     1       0.525  -1.532   0.688  0.00  0.00    -0.153 OA
BRANCH  26  29
ATOM     29  C   UNL     1       1.338   0.457  -0.704  0.00  0.00    +0.105 A 
ATOM     30  C   UNL     1       0.051   0.961  -0.741  0.00  0.00    +0.030 A 
ATOM     31  C   UNL     1      -0.173   2.253  -1.179  0.00  0.00    +0.022 A 
ATOM     32  C   UNL     1       0.890   3.041  -1.580  0.00  0.00    +0.041 A 
ATOM     33  C   UNL     1       2.178   2.537  -1.543  0.00  0.00    +0.022 A 
ATOM     34  C   UNL     1       2.401   1.245  -1.105  0.00  0.00    +0.030 A 
ATOM     35 CL   UNL     1       0.609   4.664  -2.130  0.00  0.00    -0.084 Cl
ENDBRANCH  26  29
ENDBRANCH  24  26
ENDBRANCH  23  24
ENDBRANCH   1  23
TORSDOF 8
