REMARK  Name = ZINC03770428
REMARK  10 active torsions:
REMARK  status: ('A' for Active; 'I' for Inactive)
REMARK    1  A    between atoms: C_1  and  C_2
REMARK    2  A    between atoms: C_6  and  N_8
REMARK    3  A    between atoms: C_9  and  C_11
REMARK    4  A    between atoms: C_16  and  C_19
REMARK    5  A    between atoms: C_19  and  C_20
REMARK    6  A    between atoms: C_20  and  O_22
REMARK    7  A    between atoms: O_22  and  C_23
REMARK    8  A    between atoms: C_24  and  N_37
REMARK    9  A    between atoms: C_25  and  C_35
REMARK   10  A    between atoms: C_26  and  C_28
REMARK                            x       y       z     vdW  Elec       q    Type
REMARK                         _______ _______ _______ _____ _____    ______ ____
ROOT
ATOM      1  C   UNL     1      -0.086   1.358  -0.007  0.00  0.00    +0.055 C 
ATOM      2  C   UNL     1       1.151   1.919  -0.025  0.00  0.00    +0.086 C 
ATOM      3  N   UNL     1       2.333   1.202  -0.052  0.00  0.00    -0.220 N 
ATOM      4  C   UNL     1       3.506   1.870  -0.067  0.00  0.00    +0.239 C 
ATOM      5  O   UNL     1       4.565   1.281  -0.092  0.00  0.00    -0.274 OA
ATOM      6  C   UNL     1       3.448   3.380  -0.054  0.00  0.00    +0.150 C 
ATOM      7  S   UNL     1       1.632   3.637  -0.018  0.00  0.00    -0.096 S 
ATOM      8  C   UNL     1       2.273  -0.200  -0.064  0.00  0.00    +0.110 C 
ATOM      9  C   UNL     1       1.122  -0.904  -0.050  0.00  0.00    +0.077 C 
ATOM     10  C   UNL     1      -0.193  -0.153  -0.019  0.00  0.00    +0.100 C 
ENDROOT
BRANCH  10  11
ATOM     11  C   UNL     1      -0.997  -0.559  -1.228  0.00  0.00    -0.032 A 
ATOM     12  C   UNL     1      -2.176  -1.263  -1.069  0.00  0.00    +0.005 A 
ATOM     13  C   UNL     1      -2.914  -1.636  -2.176  0.00  0.00    +0.003 A 
ATOM     14  C   UNL     1      -2.474  -1.306  -3.444  0.00  0.00    +0.038 A 
ATOM     15  C   UNL     1      -1.294  -0.601  -3.605  0.00  0.00    +0.124 A 
ATOM     16  C   UNL     1      -0.558  -0.223  -2.494  0.00  0.00    +0.043 A 
ATOM     17  F   UNL     1      -0.863  -0.277  -4.843  0.00  0.00    -0.205 F 
ENDBRANCH  10  11
BRANCH   1  19
ATOM     18  N   UNL     1      -2.458   1.588   0.026  0.00  0.00    -0.282 N 
ATOM     19  C   UNL     1      -1.238   2.161   0.015  0.00  0.00    +0.248 C 
ATOM     20  O   UNL     1      -1.135   3.375   0.024  0.00  0.00    -0.270 OA
ATOM     21  H   UNL     1      -2.541   0.624   0.099  0.00  0.00    +0.155 HD
BRANCH  18  27
ATOM     22  C   UNL     1      -7.141   2.422   1.266  0.00  0.00    +0.044 C 
ATOM     23  C   UNL     1      -5.889   2.811   0.523  0.00  0.00    -0.049 A 
ATOM     24  C   UNL     1      -5.873   3.956  -0.253  0.00  0.00    +0.003 A 
ATOM     25  C   UNL     1      -4.727   4.316  -0.937  0.00  0.00    +0.002 A 
ATOM     26  C   UNL     1      -3.592   3.533  -0.846  0.00  0.00    +0.023 A 
ATOM     27  C   UNL     1      -3.605   2.383  -0.068  0.00  0.00    +0.034 A 
ATOM     28  C   UNL     1      -4.760   2.020   0.612  0.00  0.00    +0.026 A 
ENDBRANCH  18  27
ENDBRANCH   1  19
BRANCH   8  29
ATOM     29  N   UNL     1       3.456  -0.897  -0.092  0.00  0.00    -0.345 N 
ATOM     30  H   UNL     1       3.482  -1.794  -0.460  0.00  0.00    +0.144 HD
ATOM     31  H   UNL     1       4.266  -0.491   0.255  0.00  0.00    +0.144 HD
ENDBRANCH   8  29
BRANCH   9  32
ATOM     32  C   UNL     1       1.143  -2.336  -0.064  0.00  0.00    +0.099 C 
ATOM     33  N   UNL     1       1.160  -3.472  -0.075  0.00  0.00    -0.191 NA
ENDBRANCH   9  32
BRANCH   6  34
ATOM     34  C   UNL     1       4.067   3.972  -1.321  0.00  0.00    +0.144 C 
BRANCH  34  35
ATOM     35  C   UNL     1       3.930   5.472  -1.294  0.00  0.00    +0.308 C 
ATOM     36  O   UNL     1       3.392   6.013  -0.357  0.00  0.00    -0.251 OA
BRANCH  35  37
ATOM     37  O   UNL     1       4.405   6.208  -2.311  0.00  0.00    -0.468 OA
ATOM     38  C   UNL     1       4.238   7.647  -2.218  0.00  0.00    +0.280 C 
ENDBRANCH  35  37
ENDBRANCH  34  35
ENDBRANCH   6  34
TORSDOF 8
