REMARK  Name = ZINC14021394
REMARK  5 active torsions:
REMARK  status: ('A' for Active; 'I' for Inactive)
REMARK    1  A    between atoms: C_1  and  C_2
REMARK    2  A    between atoms: C_5  and  S_8
REMARK    3  A    between atoms: S_8  and  N_11
REMARK    4  A    between atoms: C_15  and  C_18
REMARK    5  A    between atoms: C_23  and  C_26
REMARK                            x       y       z     vdW  Elec       q    Type
REMARK                         _______ _______ _______ _____ _____    ______ ____
ROOT
ATOM      1  C   UNL     1      -0.827  -2.225  -0.002  0.00  0.00    +0.223 C 
ATOM      2  O   UNL     1       0.313  -2.639  -0.015  0.00  0.00    -0.275 OA
ATOM      3  N   UNL     1      -1.062  -0.898   0.008  0.00  0.00    -0.264 N 
ATOM      4  C   UNL     1       0.002  -0.004   0.002  0.00  0.00    +0.165 A 
ATOM      5  N   UNL     1      -0.016   1.316   0.009  0.00  0.00    -0.225 NA
ATOM      6  C   UNL     1       1.107   2.019   0.002  0.00  0.00    +0.082 A 
ATOM      7  C   UNL     1       2.307   1.365  -0.013  0.00  0.00    +0.077 A 
ATOM      8  S   UNL     1       1.758  -0.336  -0.017  0.00  0.00    -0.060 S 
ATOM      9  H   UNL     1      -1.973  -0.567   0.019  0.00  0.00    +0.157 HD
ENDROOT
BRANCH   6  10
ATOM     10  C   UNL     1       1.061   3.501   0.010  0.00  0.00    +0.019 A 
ATOM     11  C   UNL     1       2.245   4.237   0.008  0.00  0.00    +0.013 A 
ATOM     12  C   UNL     1       2.198   5.616   0.010  0.00  0.00    +0.021 A 
ATOM     13  C   UNL     1       0.977   6.270   0.025  0.00  0.00    +0.042 A 
ATOM     14  C   UNL     1      -0.202   5.545   0.033  0.00  0.00    +0.040 A 
ATOM     15  C   UNL     1      -0.166   4.164   0.026  0.00  0.00    +0.052 A 
ATOM     16 CL   UNL     1      -1.645   3.255   0.035  0.00  0.00    -0.083 Cl
ATOM     17 CL   UNL     1       0.925   8.005   0.034  0.00  0.00    -0.083 Cl
ENDBRANCH   6  10
BRANCH   1  22
ATOM     18  N   UNL     1      -2.576  -5.556  -0.138  0.00  0.00    -0.176 NA
ATOM     19  C   UNL     1      -3.525  -5.369  -1.244  0.00  0.00    +0.109 C 
ATOM     20  C   UNL     1      -4.038  -3.926  -1.213  0.00  0.00    +0.018 C 
ATOM     21  C   UNL     1      -2.848  -2.964  -1.235  0.00  0.00    +0.015 C 
ATOM     22  C   UNL     1      -1.981  -3.194   0.004  0.00  0.00    +0.091 C 
ATOM     23  C   UNL     1      -1.444  -4.629  -0.013  0.00  0.00    +0.122 C 
BRANCH  18  24
ATOM     24  S   UNL     1      -2.779  -6.791   0.948  0.00  0.00    +0.061 S 
ATOM     25  O   UNL     1      -2.110  -6.399   2.138  0.00  0.00    -0.153 OA
ATOM     26  O   UNL     1      -4.160  -7.128   0.925  0.00  0.00    -0.153 OA
BRANCH  24  31
ATOM     27  C   UNL     1       0.200 -11.573  -1.212  0.00  0.00    +0.044 C 
ATOM     28  C   UNL     1      -0.545 -10.379  -0.672  0.00  0.00    -0.050 A 
ATOM     29  C   UNL     1       0.099  -9.480   0.158  0.00  0.00    +0.005 A 
ATOM     30  C   UNL     1      -0.583  -8.385   0.653  0.00  0.00    +0.029 A 
ATOM     31  C   UNL     1      -1.909  -8.187   0.317  0.00  0.00    +0.105 A 
ATOM     32  C   UNL     1      -2.555  -9.089  -0.509  0.00  0.00    +0.029 A 
ATOM     33  C   UNL     1      -1.871 -10.182  -1.007  0.00  0.00    +0.005 A 
ENDBRANCH  24  31
ENDBRANCH  18  24
ENDBRANCH   1  22
TORSDOF 4
