REMARK  Name = ZINC32961862
REMARK  8 active torsions:
REMARK  status: ('A' for Active; 'I' for Inactive)
REMARK    1  A    between atoms: C_1  and  C_2
REMARK    2  A    between atoms: C_6  and  N_9
REMARK    3  A    between atoms: C_7  and  C_8
REMARK    4  A    between atoms: N_12  and  C_15
REMARK    5  A    between atoms: C_18  and  C_31
REMARK    6  A    between atoms: C_20  and  N_21
REMARK    7  A    between atoms: N_21  and  S_22
REMARK    8  A    between atoms: S_22  and  C_25
REMARK                            x       y       z     vdW  Elec       q    Type
REMARK                         _______ _______ _______ _____ _____    ______ ____
ROOT
ATOM      1  C   UNL     1       0.373  -5.655   4.949  0.00  0.00    +0.052 A 
ATOM      2  C   UNL     1       0.571  -7.026   4.831  0.00  0.00    +0.026 A 
ATOM      3  C   UNL     1       0.661  -7.811   5.958  0.00  0.00    +0.017 A 
ATOM      4  C   UNL     1       0.554  -7.231   7.226  0.00  0.00    +0.065 A 
ATOM      5  C   UNL     1       0.355  -5.851   7.347  0.00  0.00    +0.041 A 
ATOM      6  C   UNL     1       0.271  -5.067   6.213  0.00  0.00    +0.070 A 
ENDROOT
BRANCH   1  10
ATOM      7  N   UNL     1      -0.026  -2.500   2.470  0.00  0.00    -0.327 N 
ATOM      8  C   UNL     1      -1.230  -3.099   3.064  0.00  0.00    +0.124 C 
ATOM      9  C   UNL     1      -1.021  -4.614   3.172  0.00  0.00    +0.124 C 
ATOM     10  N   UNL     1       0.281  -4.865   3.806  0.00  0.00    -0.325 N 
ATOM     11  C   UNL     1       1.485  -4.266   3.213  0.00  0.00    +0.124 C 
ATOM     12  C   UNL     1       1.277  -2.755   3.101  0.00  0.00    +0.124 C 
BRANCH   7  18
ATOM     13  C   UNL     1      -0.598   1.933   0.427  0.00  0.00    +0.044 C 
ATOM     14  C   UNL     1      -0.395   0.445   0.303  0.00  0.00    -0.046 A 
ATOM     15  C   UNL     1      -0.299  -0.138  -0.948  0.00  0.00    +0.004 A 
ATOM     16  C   UNL     1      -0.113  -1.503  -1.066  0.00  0.00    +0.002 A 
ATOM     17  C   UNL     1      -0.022  -2.290   0.066  0.00  0.00    +0.023 A 
ATOM     18  C   UNL     1      -0.117  -1.708   1.324  0.00  0.00    +0.033 A 
ATOM     19  C   UNL     1      -0.299  -0.335   1.439  0.00  0.00    -0.027 A 
ATOM     20  C   UNL     1      -0.397   0.301   2.801  0.00  0.00    +0.046 C 
ENDBRANCH   7  18
ENDBRANCH   1  10
BRANCH   4  21
ATOM     21  C   UNL     1       0.651  -8.070   8.431  0.00  0.00    +0.387 C 
ATOM     22  O   UNL     1       0.824  -9.277   8.324  0.00  0.00    -0.241 OA
ATOM     23  O   UNL     1       0.557  -7.562   9.540  0.00  0.00    -0.241 OA
ENDBRANCH   4  21
BRANCH   6  24
ATOM     24  N   UNL     1       0.077  -3.685   6.330  0.00  0.00    -0.214 N 
ATOM     25  H   UNL     1      -0.467  -3.215   5.679  0.00  0.00    +0.174 HD
BRANCH  24  26
ATOM     26  S   UNL     1       0.777  -2.853   7.580  0.00  0.00    +0.072 S 
ATOM     27  O   UNL     1       0.511  -1.476   7.350  0.00  0.00    -0.150 OA
ATOM     28  O   UNL     1       0.389  -3.515   8.776  0.00  0.00    -0.150 OA
BRANCH  26  29
ATOM     29  C   UNL     1       2.520  -3.060   7.432  0.00  0.00    +0.108 A 
ATOM     30  C   UNL     1       3.145  -4.125   8.054  0.00  0.00    +0.029 A 
ATOM     31  C   UNL     1       4.513  -4.288   7.938  0.00  0.00    +0.002 A 
ATOM     32  C   UNL     1       5.256  -3.386   7.199  0.00  0.00    +0.000 A 
ATOM     33  C   UNL     1       4.631  -2.322   6.576  0.00  0.00    +0.002 A 
ATOM     34  C   UNL     1       3.263  -2.162   6.689  0.00  0.00    +0.029 A 
ENDBRANCH  26  29
ENDBRANCH  24  26
ENDBRANCH   6  24
TORSDOF 6
