REMARK  Name = ZINC31170064
REMARK  12 active torsions:
REMARK  status: ('A' for Active; 'I' for Inactive)
REMARK    1  A    between atoms: C_1  and  C_2
REMARK    2  A    between atoms: C_2  and  C_33
REMARK    3  A    between atoms: C_9  and  O_12
REMARK    4  A    between atoms: C_15  and  C_18
REMARK    5  A    between atoms: C_20  and  C_28
REMARK    6  A    between atoms: C_21  and  O_26
REMARK    7  A    between atoms: C_22  and  O_25
REMARK    8  A    between atoms: C_23  and  O_24
REMARK    9  A    between atoms: O_26  and  C_27
REMARK   10  A    between atoms: C_28  and  C_29
REMARK   11  A    between atoms: C_28  and  C_30
REMARK   12  A    between atoms: C_28  and  C_31
REMARK                            x       y       z     vdW  Elec       q    Type
REMARK                         _______ _______ _______ _____ _____    ______ ____
ROOT
ATOM      1  C   UNL     1       5.528   2.618  -2.026  0.00  0.00    +0.060 C 
ATOM      2  C   UNL     1       4.300   1.815  -1.592  0.00  0.00    +0.124 C 
ATOM      3  C   UNL     1       4.139   0.624  -2.499  0.00  0.00    +0.020 C 
ATOM      4  C   UNL     1       2.930   0.113  -2.720  0.00  0.00    +0.011 C 
ATOM      5  C   UNL     1       1.772   0.756  -2.063  0.00  0.00    +0.021 A 
ATOM      6  C   UNL     1       0.544   0.113  -1.960  0.00  0.00    +0.019 A 
ATOM      7  C   UNL     1      -0.521   0.748  -1.345  0.00  0.00    -0.001 A 
ATOM      8  C   UNL     1      -0.363   2.020  -0.819  0.00  0.00    +0.169 A 
ATOM      9  C   UNL     1       0.868   2.671  -0.919  0.00  0.00    +0.202 A 
ATOM     10  C   UNL     1       1.934   2.046  -1.538  0.00  0.00    +0.174 A 
ATOM     11  O   UNL     1       3.144   2.652  -1.652  0.00  0.00    -0.478 OA
ATOM     12  O   UNL     1      -1.384   2.669  -0.198  0.00  0.00    -0.487 OA
ATOM     13  C   UNL     1      -2.711   2.188  -0.416  0.00  0.00    +0.237 C 
ATOM     14  C   UNL     1      -2.720   0.671  -0.188  0.00  0.00    +0.065 C 
ATOM     15  C   UNL     1      -1.839   0.020  -1.257  0.00  0.00    +0.050 C 
ATOM     16  C   UNL     1       4.497   1.330  -0.154  0.00  0.00    +0.060 C 
ENDROOT
BRANCH  14  17
ATOM     17  C   UNL     1      -4.128   0.148  -0.302  0.00  0.00    +0.005 A 
ATOM     18  C   UNL     1      -4.831   0.310  -1.482  0.00  0.00    +0.016 A 
ATOM     19  C   UNL     1      -6.123  -0.169  -1.592  0.00  0.00    +0.008 A 
ATOM     20  C   UNL     1      -6.720  -0.813  -0.518  0.00  0.00    +0.169 A 
ATOM     21  C   UNL     1      -6.017  -0.977   0.669  0.00  0.00    +0.201 A 
ATOM     22  C   UNL     1      -4.716  -0.499   0.774  0.00  0.00    +0.166 A 
BRANCH  19  23
ATOM     23  C   UNL     1      -6.884   0.009  -2.880  0.00  0.00    +0.011 C 
ATOM     24  C   UNL     1      -6.064  -0.561  -4.040  0.00  0.00    +0.020 C 
ATOM     25  C   UNL     1      -8.221  -0.730  -2.789  0.00  0.00    +0.020 C 
BRANCH  23  26
ATOM     26  C   UNL     1      -7.136   1.475  -3.117  0.00  0.00    -0.024 C 
ATOM     27  C   UNL     1      -6.797   2.353  -2.205  0.00  0.00    +0.005 C 
ENDBRANCH  23  26
ENDBRANCH  19  23
BRANCH  22  28
ATOM     28  O   UNL     1      -4.022  -0.662   1.933  0.00  0.00    -0.503 OA
ATOM     29  H   UNL     1      -4.489  -1.175   2.786  0.00  0.00    +0.292 HD
ENDBRANCH  22  28
BRANCH  21  30
ATOM     30  O   UNL     1      -6.599  -1.608   1.725  0.00  0.00    -0.501 OA
ATOM     31  H   UNL     1      -6.042  -1.737   2.664  0.00  0.00    +0.292 HD
ENDBRANCH  21  30
BRANCH  20  32
ATOM     32  O   UNL     1      -7.991  -1.284  -0.627  0.00  0.00    -0.491 OA
ATOM     33  C   UNL     1      -8.151  -2.699  -0.746  0.00  0.00    +0.277 C 
ENDBRANCH  20  32
ENDBRANCH  14  17
BRANCH   9  34
ATOM     34  O   UNL     1       1.018   3.924  -0.407  0.00  0.00    -0.501 OA
ATOM     35  H   UNL     1       1.987   4.437  -0.485  0.00  0.00    +0.292 HD
ENDBRANCH   9  34
TORSDOF 7
