REMARK  Name = ZINC00718366
REMARK  9 active torsions:
REMARK  status: ('A' for Active; 'I' for Inactive)
REMARK    1  A    between atoms: C_1  and  O_2
REMARK    2  A    between atoms: O_2  and  C_3
REMARK    3  A    between atoms: C_7  and  C_18
REMARK    4  A    between atoms: C_8  and  O_9
REMARK    5  A    between atoms: O_9  and  C_10
REMARK    6  A    between atoms: C_10  and  C_11
REMARK    7  A    between atoms: C_20  and  C_37
REMARK    8  A    between atoms: C_21  and  N_36
REMARK    9  A    between atoms: C_28  and  C_31
REMARK                            x       y       z     vdW  Elec       q    Type
REMARK                         _______ _______ _______ _____ _____    ______ ____
ROOT
ATOM      1  C   UNL     1       1.252   3.576  -0.104  0.00  0.00    +0.105 C 
ATOM      2  C   UNL     1       1.800   4.009  -1.435  0.00  0.00    +0.098 C 
ATOM      3  C   UNL     1       3.085   4.427  -1.543  0.00  0.00    +0.198 C 
ATOM      4  O   UNL     1       3.901   4.462  -0.478  0.00  0.00    -0.445 OA
ATOM      5  C   UNL     1       3.382   4.507   0.763  0.00  0.00    +0.115 C 
ATOM      6  C   UNL     1       2.123   4.100   1.011  0.00  0.00    +0.046 C 
ATOM      7  C   UNL     1       1.580   4.149   2.310  0.00  0.00    +0.164 C 
ATOM      8  O   UNL     1       0.447   3.754   2.498  0.00  0.00    -0.292 OA
ATOM      9  C   UNL     1       2.378   4.683   3.468  0.00  0.00    +0.091 C 
ATOM     10  C   UNL     1       3.391   5.705   2.941  0.00  0.00    +0.070 C 
ATOM     11  C   UNL     1       4.258   5.026   1.879  0.00  0.00    +0.086 C 
ENDROOT
BRANCH   1  16
ATOM     12  C   UNL     1      -0.032   0.016   0.005  0.00  0.00    +0.162 A 
ATOM     13  C   UNL     1       1.154  -0.698   0.065  0.00  0.00    +0.049 A 
ATOM     14  C   UNL     1       2.364  -0.029   0.069  0.00  0.00    +0.004 A 
ATOM     15  C   UNL     1       2.394   1.352   0.015  0.00  0.00    +0.008 A 
ATOM     16  C   UNL     1       1.215   2.071  -0.045  0.00  0.00    +0.011 A 
ATOM     17  C   UNL     1      -0.002   1.406  -0.050  0.00  0.00    +0.166 A 
BRANCH  12  19
ATOM     18  C   UNL     1      -1.178  -2.067   0.058  0.00  0.00    +0.277 C 
ATOM     19  O   UNL     1      -1.223  -0.640  -0.000  0.00  0.00    -0.491 OA
ENDBRANCH  12  19
BRANCH  17  20
ATOM     20  O   UNL     1      -1.163   2.111  -0.114  0.00  0.00    -0.483 OA
BRANCH  20  21
ATOM     21  C   UNL     1      -1.840   2.360   1.120  0.00  0.00    +0.264 C 
BRANCH  21  22
ATOM     22  C   UNL     1      -3.161   3.028   0.841  0.00  0.00    -0.010 A 
ATOM     23  C   UNL     1      -3.241   4.408   0.793  0.00  0.00    +0.010 A 
ATOM     24  C   UNL     1      -4.452   5.021   0.533  0.00  0.00    +0.039 A 
ATOM     25  C   UNL     1      -5.587   4.255   0.332  0.00  0.00    +0.123 A 
ATOM     26  C   UNL     1      -5.507   2.874   0.386  0.00  0.00    +0.039 A 
ATOM     27  C   UNL     1      -4.294   2.262   0.641  0.00  0.00    +0.010 A 
ATOM     28  F   UNL     1      -6.772   4.854   0.082  0.00  0.00    -0.205 F 
ENDBRANCH  21  22
ENDBRANCH  20  21
ENDBRANCH  17  20
ENDBRANCH   1  16
BRANCH  10  29
ATOM     29  C   UNL     1       4.262   6.186   4.074  0.00  0.00    +0.109 A 
ATOM     30  C   UNL     1       4.388   7.461   4.483  0.00  0.00    +0.045 A 
ATOM     31  C   UNL     1       5.298   7.456   5.564  0.00  0.00    +0.041 A 
ATOM     32  C   UNL     1       5.674   6.178   5.752  0.00  0.00    +0.195 A 
ATOM     33  O   UNL     1       5.038   5.412   4.850  0.00  0.00    -0.468 OA
ENDBRANCH  10  29
BRANCH   3  34
ATOM     34  N   UNL     1       3.562   4.822  -2.768  0.00  0.00    -0.328 N 
ATOM     35  H   UNL     1       4.480   5.123  -2.857  0.00  0.00    +0.145 HD
ATOM     36  H   UNL     1       2.982   4.800  -3.545  0.00  0.00    +0.145 HD
ENDBRANCH   3  34
BRANCH   2  37
ATOM     37  C   UNL     1       0.962   3.979  -2.595  0.00  0.00    +0.101 C 
ATOM     38  N   UNL     1       0.296   3.955  -3.515  0.00  0.00    -0.191 NA
ENDBRANCH   2  37
TORSDOF 8
