REMARK  Name = ZINC00672931
REMARK  5 active torsions:
REMARK  status: ('A' for Active; 'I' for Inactive)
REMARK    1  A    between atoms: C_1  and  C_2
REMARK    2  A    between atoms: C_5  and  C_7
REMARK    3  A    between atoms: C_9  and  C_17
REMARK    4  A    between atoms: N_19  and  C_20
REMARK    5  A    between atoms: C_21  and  C_30
REMARK                            x       y       z     vdW  Elec       q    Type
REMARK                         _______ _______ _______ _____ _____    ______ ____
ROOT
ATOM      1  C   UNL     1       1.634   4.438   0.009  0.00  0.00    +0.249 C 
ATOM      2  O   UNL     1       0.419   4.402   0.034  0.00  0.00    -0.270 OA
ATOM      3  N   UNL     1       2.341   3.290  -0.017  0.00  0.00    -0.275 N 
ATOM      4  H   UNL     1       3.310   3.318  -0.037  0.00  0.00    +0.156 HD
ENDROOT
BRANCH   1   7
ATOM      5  C   UNL     1       4.343   7.071   0.090  0.00  0.00    +0.079 A 
ATOM      6  C   UNL     1       3.717   5.812   0.099  0.00  0.00    +0.042 A 
ATOM      7  C   UNL     1       2.336   5.739   0.009  0.00  0.00    +0.048 A 
ATOM      8  C   UNL     1       1.599   7.001  -0.081  0.00  0.00    +0.013 A 
ATOM      9  C   UNL     1       0.203   7.027  -0.169  0.00  0.00    +0.011 A 
ATOM     10  C   UNL     1      -0.445   8.224  -0.251  0.00  0.00    +0.001 A 
ATOM     11  C   UNL     1       0.267   9.422  -0.247  0.00  0.00    +0.002 A 
ATOM     12  C   UNL     1       1.625   9.432  -0.163  0.00  0.00    +0.028 A 
ATOM     13  C   UNL     1       2.328   8.216  -0.077  0.00  0.00    +0.072 A 
ATOM     14  N   UNL     1       3.659   8.196   0.008  0.00  0.00    -0.246 NA
BRANCH   5  19
ATOM     15  C   UNL     1       9.915   6.330   0.466  0.00  0.00    +0.051 C 
ATOM     16  C   UNL     1       8.483   6.785   0.361  0.00  0.00    -0.013 A 
ATOM     17  C   UNL     1       7.991   8.050   0.287  0.00  0.00    +0.011 A 
ATOM     18  C   UNL     1       6.632   8.237   0.188  0.00  0.00    +0.018 A 
ATOM     19  C   UNL     1       5.814   7.136   0.180  0.00  0.00    +0.038 A 
ATOM     20  S   UNL     1       6.994   5.801   0.300  0.00  0.00    -0.092 S 
ENDBRANCH   5  19
ENDBRANCH   1   7
BRANCH   3  21
ATOM     21  C   UNL     1       1.683   2.071  -0.017  0.00  0.00    +0.085 A 
ATOM     22  C   UNL     1       2.229   0.797  -0.042  0.00  0.00    +0.068 A 
ATOM     23  C   UNL     1       1.311  -0.334  -0.032  0.00  0.00    -0.023 A 
ATOM     24  C   UNL     1       0.002  -0.004  -0.006  0.00  0.00    -0.004 A 
ATOM     25  S   UNL     1      -0.022   1.768   0.014  0.00  0.00    -0.077 S 
ATOM     26  C   UNL     1      -1.175  -0.929  -0.010  0.00  0.00    +0.043 C 
ATOM     27  C   UNL     1      -0.968  -2.017   1.053  0.00  0.00    +0.005 C 
ATOM     28  C   UNL     1      -0.232  -3.187   0.408  0.00  0.00    +0.001 C 
ATOM     29  C   UNL     1       0.729  -2.677  -0.664  0.00  0.00    +0.005 C 
ATOM     30  C   UNL     1       1.793  -1.779  -0.043  0.00  0.00    +0.037 C 
BRANCH  22  31
ATOM     31  C   UNL     1       3.681   0.595  -0.077  0.00  0.00    +0.244 C 
ATOM     32  O   UNL     1       4.259   0.522  -1.145  0.00  0.00    -0.270 OA
ATOM     33  N   UNL     1       4.375   0.491   1.074  0.00  0.00    -0.325 N 
ATOM     34  H   UNL     1       3.914   0.550   1.925  0.00  0.00    +0.145 HD
ATOM     35  H   UNL     1       5.335   0.357   1.050  0.00  0.00    +0.145 HD
ENDBRANCH  22  31
ENDBRANCH   3  21
TORSDOF 4
