REMARK  Name = ZINC59813206
REMARK  9 active torsions:
REMARK  status: ('A' for Active; 'I' for Inactive)
REMARK    1  A    between atoms: C_1  and  C_2
REMARK    2  A    between atoms: C_4  and  C_13
REMARK    3  A    between atoms: C_6  and  C_12
REMARK    4  A    between atoms: N_8  and  C_11
REMARK    5  A    between atoms: N_15  and  C_16
REMARK    6  A    between atoms: C_16  and  C_18
REMARK    7  A    between atoms: C_16  and  C_19
REMARK    8  A    between atoms: C_22  and  N_25
REMARK    9  A    between atoms: C_26  and  C_28
REMARK                            x       y       z     vdW  Elec       q    Type
REMARK                         _______ _______ _______ _____ _____    ______ ____
ROOT
ATOM      1  C   UNL     1       0.597  -3.331  -3.761  0.00  0.00    +0.100 C 
ATOM      2  C   UNL     1       2.073  -3.688  -3.950  0.00  0.00    +0.033 C 
ENDROOT
BRANCH   1   3
ATOM      3  C   UNL     1       0.156  -2.411  -4.870  0.00  0.00    -0.027 A 
ATOM      4  C   UNL     1       0.460  -1.064  -4.811  0.00  0.00    +0.007 A 
ATOM      5  C   UNL     1       0.058  -0.218  -5.826  0.00  0.00    +0.023 A 
ATOM      6  C   UNL     1      -0.653  -0.723  -6.907  0.00  0.00    +0.034 A 
ATOM      7  C   UNL     1      -0.957  -2.077  -6.963  0.00  0.00    +0.023 A 
ATOM      8  C   UNL     1      -0.547  -2.918  -5.948  0.00  0.00    +0.007 A 
BRANCH   6   9
ATOM      9  N   UNL     1      -1.063   0.131  -7.936  0.00  0.00    -0.282 N 
ATOM     10  C   UNL     1      -0.274   1.156  -8.315  0.00  0.00    +0.248 C 
ATOM     11  O   UNL     1       0.752   1.390  -7.708  0.00  0.00    -0.270 OA
ATOM     12  H   UNL     1      -1.914  -0.015  -8.377  0.00  0.00    +0.155 HD
BRANCH  10  13
ATOM     13  C   UNL     1      -0.658   1.996  -9.468  0.00  0.00    +0.037 A 
ATOM     14  C   UNL     1      -1.840   1.733 -10.164  0.00  0.00    +0.016 A 
ATOM     15  C   UNL     1      -2.193   2.520 -11.239  0.00  0.00    +0.039 A 
ATOM     16  C   UNL     1      -1.378   3.571 -11.630  0.00  0.00    +0.123 A 
ATOM     17  C   UNL     1      -0.203   3.836 -10.942  0.00  0.00    +0.039 A 
ATOM     18  C   UNL     1       0.157   3.059  -9.863  0.00  0.00    +0.016 A 
ATOM     19  F   UNL     1      -1.729   4.339 -12.684  0.00  0.00    -0.205 F 
ENDBRANCH  10  13
ENDBRANCH   6   9
ENDBRANCH   1   3
BRANCH   1  22
ATOM     20  C   UNL     1       0.253  -3.390  -1.349  0.00  0.00    +0.245 C 
ATOM     21  O   UNL     1       0.251  -4.604  -1.408  0.00  0.00    -0.270 OA
ATOM     22  N   UNL     1       0.419  -2.660  -2.470  0.00  0.00    -0.305 N 
ATOM     23  H   UNL     1       0.420  -1.692  -2.423  0.00  0.00    +0.150 HD
BRANCH  20  27
ATOM     24  C   UNL     1       1.361   0.298   1.836  0.00  0.00    +0.065 C 
ATOM     25  C   UNL     1       0.588  -0.952   1.500  0.00  0.00    +0.041 A 
ATOM     26  C   UNL     1       0.785  -1.558   0.268  0.00  0.00    +0.037 A 
ATOM     27  C   UNL     1       0.073  -2.713  -0.047  0.00  0.00    +0.051 A 
ATOM     28  C   UNL     1      -0.827  -3.216   0.919  0.00  0.00    +0.054 A 
ATOM     29  C   UNL     1      -1.697  -4.327   0.961  0.00  0.00    +0.070 A 
ATOM     30  N   UNL     1      -2.312  -4.328   2.109  0.00  0.00    -0.174 NA
ATOM     31  N   UNL     1      -1.889  -3.236   2.874  0.00  0.00    -0.249 N 
ATOM     32  C   UNL     1      -0.964  -2.535   2.145  0.00  0.00    +0.159 A 
ATOM     33  N   UNL     1      -0.252  -1.443   2.384  0.00  0.00    -0.233 NA
ATOM     34  C   UNL     1      -2.354  -2.898   4.222  0.00  0.00    +0.174 C 
ATOM     35  C   UNL     1      -1.883  -5.340  -0.138  0.00  0.00    +0.068 C 
ENDBRANCH  20  27
ENDBRANCH   1  22
TORSDOF 5
