REMARK  Name = ZINC40127576
REMARK  14 active torsions:
REMARK  status: ('A' for Active; 'I' for Inactive)
REMARK    1  A    between atoms: C_1  and  C_2
REMARK    2  A    between atoms: C_5  and  C_8
REMARK    3  A    between atoms: C_8  and  O_9
REMARK    4  A    between atoms: O_9  and  C_10
REMARK    5  A    between atoms: C_13  and  C_16
REMARK    6  A    between atoms: C_16  and  C_18
REMARK    7  A    between atoms: C_23  and  C_25
REMARK    8  A    between atoms: C_28  and  O_33
REMARK    9  A    between atoms: C_29  and  O_31
REMARK   10  A    between atoms: O_31  and  C_32
REMARK   11  A    between atoms: O_33  and  C_34
REMARK   12  A    between atoms: C_34  and  C_35
REMARK   13  A    between atoms: C_35  and  C_36
REMARK   14  A    between atoms: C_35  and  C_37
REMARK                            x       y       z     vdW  Elec       q    Type
REMARK                         _______ _______ _______ _____ _____    ______ ____
ROOT
ATOM      1  C   UNL     1       3.681 -10.740  -0.106  0.00  0.00    +0.076 C 
ATOM      2  C   UNL     1       4.130 -12.014  -0.198  0.00  0.00    +0.249 C 
ATOM      3  C   UNL     1       5.607 -12.005  -0.241  0.00  0.00    +0.285 C 
ATOM      4  O   UNL     1       6.308 -12.995  -0.322  0.00  0.00    -0.267 OA
ATOM      5  N   UNL     1       6.062 -10.741  -0.177  0.00  0.00    -0.298 N 
ATOM      6  C   UNL     1       4.900  -9.848  -0.094  0.00  0.00    +0.142 C 
ATOM      7  O   UNL     1       3.350 -13.119  -0.242  0.00  0.00    -0.282 OA
ATOM      8  H   UNL     1       6.992 -10.467  -0.187  0.00  0.00    +0.150 HD
ENDROOT
BRANCH   6   9
ATOM      9  C   UNL     1       4.872  -8.917  -1.280  0.00  0.00    -0.019 A 
ATOM     10  C   UNL     1       5.150  -9.402  -2.544  0.00  0.00    +0.009 A 
ATOM     11  C   UNL     1       5.127  -8.553  -3.634  0.00  0.00    +0.050 A 
ATOM     12  C   UNL     1       4.823  -7.212  -3.461  0.00  0.00    +0.162 A 
ATOM     13  C   UNL     1       4.543  -6.724  -2.189  0.00  0.00    +0.162 A 
ATOM     14  C   UNL     1       4.564  -7.582  -1.101  0.00  0.00    +0.055 A 
BRANCH  13  15
ATOM     15  O   UNL     1       4.244  -5.409  -2.014  0.00  0.00    -0.491 OA
ATOM     16  C   UNL     1       3.845  -5.003  -0.703  0.00  0.00    +0.277 C 
ENDBRANCH  13  15
BRANCH  12  17
ATOM     17  O   UNL     1       4.800  -6.375  -4.533  0.00  0.00    -0.488 OA
BRANCH  17  18
ATOM     18  C   UNL     1       5.098  -6.945  -5.809  0.00  0.00    +0.232 C 
BRANCH  18  19
ATOM     19  C   UNL     1       5.023  -5.859  -6.883  0.00  0.00    +0.020 C 
ATOM     20  C   UNL     1       6.120  -4.822  -6.637  0.00  0.00    +0.010 C 
ATOM     21  C   UNL     1       5.219  -6.492  -8.262  0.00  0.00    +0.010 C 
ENDBRANCH  18  19
ENDBRANCH  17  18
ENDBRANCH  12  17
ENDBRANCH   6   9
BRANCH   1  22
ATOM     22  C   UNL     1       2.281 -10.310  -0.039  0.00  0.00    +0.195 C 
ATOM     23  O   UNL     1       1.545 -10.479  -0.994  0.00  0.00    -0.287 OA
BRANCH  22  27
ATOM     24  C   UNL     1       0.792  -8.474   3.490  0.00  0.00    +0.121 A 
ATOM     25  C   UNL     1      -0.029  -8.599   2.374  0.00  0.00    +0.046 A 
ATOM     26  C   UNL     1       0.450  -9.193   1.228  0.00  0.00    +0.015 A 
ATOM     27  C   UNL     1       1.763  -9.671   1.187  0.00  0.00    +0.022 A 
ATOM     28  C   UNL     1       2.585  -9.543   2.311  0.00  0.00    +0.015 A 
ATOM     29  C   UNL     1       2.100  -8.943   3.451  0.00  0.00    +0.046 A 
BRANCH  24  30
ATOM     30  O   UNL     1       0.316  -7.887   4.617  0.00  0.00    -0.487 OA
BRANCH  30  31
ATOM     31  C   UNL     1      -1.037  -7.428   4.588  0.00  0.00    +0.264 C 
BRANCH  31  36
ATOM     32  C   UNL     1      -2.379  -5.057   9.684  0.00  0.00    +0.044 C 
ATOM     33  C   UNL     1      -2.029  -5.675   8.355  0.00  0.00    -0.050 A 
ATOM     34  C   UNL     1      -1.497  -4.893   7.347  0.00  0.00    +0.004 A 
ATOM     35  C   UNL     1      -1.175  -5.460   6.128  0.00  0.00    +0.007 A 
ATOM     36  C   UNL     1      -1.386  -6.810   5.917  0.00  0.00    -0.010 A 
ATOM     37  C   UNL     1      -1.917  -7.592   6.925  0.00  0.00    +0.007 A 
ATOM     38  C   UNL     1      -2.234  -7.026   8.146  0.00  0.00    +0.004 A 
ENDBRANCH  31  36
ENDBRANCH  30  31
ENDBRANCH  24  30
ENDBRANCH  22  27
ENDBRANCH   1  22
TORSDOF 10
