REMARK  Name = ZINC35100391
REMARK  10 active torsions:
REMARK  status: ('A' for Active; 'I' for Inactive)
REMARK    1  A    between atoms: C_1  and  C_2
REMARK    2  A    between atoms: C_2  and  C_3
REMARK    3  A    between atoms: C_3  and  C_5
REMARK    4  A    between atoms: C_3  and  C_6
REMARK    5  A    between atoms: C_6  and  C_8
REMARK    6  A    between atoms: C_6  and  N_31
REMARK    7  A    between atoms: C_14  and  C_17
REMARK    8  A    between atoms: N_20  and  C_21
REMARK    9  A    between atoms: C_25  and  C_27
REMARK   10  A    between atoms: C_32  and  C_34
REMARK                            x       y       z     vdW  Elec       q    Type
REMARK                         _______ _______ _______ _____ _____    ______ ____
ROOT
ATOM      1  C   UNL     1      -0.351  -2.576  -1.747  0.00  0.00    +0.236 C 
ATOM      2  O   UNL     1      -0.616  -3.590  -1.136  0.00  0.00    -0.274 OA
ATOM      3  N   UNL     1      -1.055  -2.251  -2.849  0.00  0.00    -0.297 N 
ATOM      4  C   UNL     1      -0.679  -1.083  -3.659  0.00  0.00    +0.127 C 
ATOM      5  C   UNL     1      -1.898  -0.162  -3.786  0.00  0.00    +0.128 C 
ATOM      6  N   UNL     1      -3.055  -0.968  -4.200  0.00  0.00    -0.280 N 
ATOM      7  C   UNL     1      -3.431  -2.135  -3.390  0.00  0.00    +0.092 C 
ATOM      8  C   UNL     1      -2.208  -3.060  -3.266  0.00  0.00    +0.130 C 
ATOM      9  C   UNL     1      -3.878  -1.674  -2.001  0.00  0.00    +0.030 C 
ATOM     10  C   UNL     1      -3.759  -0.642  -5.302  0.00  0.00    +0.307 C 
ATOM     11  O   UNL     1      -4.654  -1.369  -5.689  0.00  0.00    -0.252 OA
ATOM     12  N   UNL     1      -3.470   0.489  -5.976  0.00  0.00    -0.269 N 
ATOM     13  H   UNL     1      -2.694   1.016  -5.730  0.00  0.00    +0.156 HD
ENDROOT
BRANCH  12  14
ATOM     14  C   UNL     1      -4.291   0.903  -7.031  0.00  0.00    +0.035 A 
ATOM     15  C   UNL     1      -5.660   0.671  -6.981  0.00  0.00    +0.023 A 
ATOM     16  C   UNL     1      -6.467   1.082  -8.023  0.00  0.00    +0.002 A 
ATOM     17  C   UNL     1      -5.914   1.724  -9.116  0.00  0.00    +0.012 A 
ATOM     18  C   UNL     1      -4.552   1.956  -9.169  0.00  0.00    +0.057 A 
ATOM     19  C   UNL     1      -3.740   1.553  -8.127  0.00  0.00    +0.035 A 
BRANCH  18  20
ATOM     20  C   UNL     1      -3.954   2.655 -10.363  0.00  0.00    +0.417 C 
ATOM     21  F   UNL     1      -4.967   2.968 -11.276  0.00  0.00    -0.166 F 
ATOM     22  F   UNL     1      -3.322   3.832  -9.946  0.00  0.00    -0.166 F 
ATOM     23  F   UNL     1      -3.018   1.815 -10.975  0.00  0.00    -0.166 F 
ENDBRANCH  18  20
ENDBRANCH  12  14
BRANCH   1  24
ATOM     24  C   UNL     1       0.765  -1.681  -1.274  0.00  0.00    +0.162 C 
BRANCH  24  25
ATOM     25  N   UNL     1       1.688  -2.452  -0.437  0.00  0.00    -0.304 N 
ATOM     26  C   UNL     1       2.972  -2.061  -0.313  0.00  0.00    +0.217 C 
ATOM     27  O   UNL     1       3.364  -1.071  -0.894  0.00  0.00    -0.275 OA
ATOM     28  H   UNL     1       1.375  -3.244   0.028  0.00  0.00    +0.149 HD
BRANCH  26  29
ATOM     29  C   UNL     1       3.922  -2.854   0.547  0.00  0.00    +0.075 C 
ATOM     30  C   UNL     1       3.449  -2.831   2.015  0.00  0.00    +0.013 C 
ATOM     31  C   UNL     1       4.761  -2.756   2.836  0.00  0.00    +0.001 C 
ATOM     32  C   UNL     1       5.645  -1.815   1.980  0.00  0.00    +0.001 C 
ATOM     33  C   UNL     1       5.318  -2.208   0.525  0.00  0.00    +0.013 C 
ENDBRANCH  26  29
ENDBRANCH  24  25
BRANCH  24  34
ATOM     34  C   UNL     1       0.182  -0.526  -0.458  0.00  0.00    +0.015 C 
ATOM     35  C   UNL     1       1.301   0.444  -0.074  0.00  0.00    +0.010 C 
BRANCH  34  37
ATOM     36  C   UNL     1      -1.165   0.062   1.563  0.00  0.00    +0.004 C 
ATOM     37  C   UNL     1      -0.473  -1.077   0.810  0.00  0.00    +0.002 C 
ENDBRANCH  34  37
ENDBRANCH  24  34
ENDBRANCH   1  24
TORSDOF 7
