REMARK  Name = ZINC39596277
REMARK  9 active torsions:
REMARK  status: ('A' for Active; 'I' for Inactive)
REMARK    1  A    between atoms: C_1  and  C_2
REMARK    2  A    between atoms: C_5  and  C_9
REMARK    3  A    between atoms: C_7  and  C_8
REMARK    4  A    between atoms: C_13  and  C_22
REMARK    5  A    between atoms: N_24  and  C_25
REMARK    6  A    between atoms: C_25  and  C_26
REMARK    7  A    between atoms: C_26  and  C_28
REMARK    8  A    between atoms: C_26  and  O_29
REMARK    9  A    between atoms: O_29  and  C_30
REMARK                            x       y       z     vdW  Elec       q    Type
REMARK                         _______ _______ _______ _____ _____    ______ ____
ROOT
ATOM      1  C   UNL     1       0.082  -4.156   0.003  0.00  0.00    +0.247 C 
ATOM      2  O   UNL     1       0.023  -2.942   0.011  0.00  0.00    -0.270 OA
ATOM      3  N   UNL     1       0.170  -4.820  -1.167  0.00  0.00    -0.296 N 
ATOM      4  C   UNL     1       0.283  -4.247  -2.529  0.00  0.00    +0.121 C 
ATOM      5  C   UNL     1       1.284  -5.171  -3.258  0.00  0.00    +0.100 C 
ATOM      6  C   UNL     1       1.207  -6.508  -2.502  0.00  0.00    -0.004 C 
ATOM      7  C   UNL     1       0.181  -6.287  -1.381  0.00  0.00    +0.115 C 
ATOM      8  C   UNL     1       0.738  -7.618  -3.437  0.00  0.00    -0.010 C 
ATOM      9  C   UNL     1       0.725  -8.948  -2.678  0.00  0.00    -0.082 C 
ATOM     10  N   UNL     1       2.074  -9.240  -2.176  0.00  0.00    +0.379 N 
ATOM     11  C   UNL     1       2.480  -8.216  -1.206  0.00  0.00    -0.082 C 
ATOM     12  C   UNL     1       2.567  -6.856  -1.904  0.00  0.00    -0.010 C 
ATOM     13  H   UNL     1       2.076 -10.145  -1.730  0.00  0.00    -0.086 HD
ATOM     14  H   UNL     1       2.724  -9.248  -2.948  0.00  0.00    -0.086 HD
ENDROOT
BRANCH   1  19
ATOM     15  C   UNL     1      -0.015  -7.072   4.964  0.00  0.00    +0.044 C 
ATOM     16  C   UNL     1       0.011  -6.309   3.664  0.00  0.00    -0.047 A 
ATOM     17  C   UNL     1      -0.582  -6.848   2.537  0.00  0.00    +0.004 A 
ATOM     18  C   UNL     1      -0.563  -6.154   1.345  0.00  0.00    +0.013 A 
ATOM     19  C   UNL     1       0.057  -4.905   1.278  0.00  0.00    +0.037 A 
ATOM     20  C   UNL     1       0.653  -4.367   2.419  0.00  0.00    +0.016 A 
ATOM     21  C   UNL     1       0.622  -5.069   3.606  0.00  0.00    -0.047 A 
ATOM     22  C   UNL     1       1.261  -4.487   4.841  0.00  0.00    +0.044 C 
ENDBRANCH   1  19
BRANCH   5  23
ATOM     23  C   UNL     1       2.677  -4.601  -3.180  0.00  0.00    +0.218 C 
ATOM     24  O   UNL     1       3.031  -3.999  -2.189  0.00  0.00    -0.275 OA
ATOM     25  N   UNL     1       3.529  -4.760  -4.212  0.00  0.00    -0.312 N 
ATOM     26  H   UNL     1       3.246  -5.242  -5.005  0.00  0.00    +0.149 HD
BRANCH  25  27
ATOM     27  C   UNL     1       4.883  -4.206  -4.137  0.00  0.00    +0.148 C 
BRANCH  27  28
ATOM     28  C   UNL     1       5.638  -4.524  -5.429  0.00  0.00    +0.187 C 
ATOM     29  C   UNL     1       7.088  -4.056  -5.301  0.00  0.00    +0.053 C 
BRANCH  28  30
ATOM     30  O   UNL     1       5.014  -3.850  -6.523  0.00  0.00    -0.488 OA
BRANCH  30  31
ATOM     31  C   UNL     1       5.198  -4.381  -7.761  0.00  0.00    +0.121 A 
ATOM     32  C   UNL     1       5.877  -5.582  -7.907  0.00  0.00    +0.048 A 
ATOM     33  C   UNL     1       6.064  -6.120  -9.166  0.00  0.00    +0.042 A 
ATOM     34  C   UNL     1       5.573  -5.462 -10.281  0.00  0.00    +0.124 A 
ATOM     35  C   UNL     1       4.894  -4.264 -10.136  0.00  0.00    +0.042 A 
ATOM     36  C   UNL     1       4.701  -3.726  -8.879  0.00  0.00    +0.048 A 
ATOM     37  F   UNL     1       5.756  -5.990 -11.511  0.00  0.00    -0.205 F 
ENDBRANCH  30  31
ENDBRANCH  28  30
ENDBRANCH  27  28
ENDBRANCH  25  27
ENDBRANCH   5  23
TORSDOF 6
