REMARK  Name = ZINC09791231
REMARK  10 active torsions:
REMARK  status: ('A' for Active; 'I' for Inactive)
REMARK    1  A    between atoms: C_1  and  C_2
REMARK    2  A    between atoms: C_2  and  C_3
REMARK    3  A    between atoms: C_2  and  C_4
REMARK    4  A    between atoms: C_4  and  C_6
REMARK    5  A    between atoms: C_4  and  N_28
REMARK    6  A    between atoms: N_8  and  C_9
REMARK    7  A    between atoms: C_13  and  C_15
REMARK    8  A    between atoms: N_17  and  C_18
REMARK    9  A    between atoms: C_22  and  C_24
REMARK   10  A    between atoms: C_29  and  C_31
REMARK                            x       y       z     vdW  Elec       q    Type
REMARK                         _______ _______ _______ _____ _____    ______ ____
ROOT
ATOM      1  C   UNL     1       2.325   9.316  -0.345  0.00  0.00    +0.034 A 
ATOM      2  C   UNL     1       2.264   8.066   0.260  0.00  0.00    +0.023 A 
ATOM      3  C   UNL     1       1.058   7.397   0.351  0.00  0.00    +0.003 A 
ATOM      4  C   UNL     1      -0.093   7.965  -0.157  0.00  0.00    +0.013 A 
ATOM      5  C   UNL     1      -0.041   9.220  -0.766  0.00  0.00    +0.039 A 
ATOM      6  C   UNL     1       1.177   9.893  -0.863  0.00  0.00    +0.036 A 
ENDROOT
BRANCH   1   9
ATOM      7  C   UNL     1       3.589  11.333  -0.322  0.00  0.00    +0.238 C 
ATOM      8  O   UNL     1       2.558  11.964  -0.226  0.00  0.00    -0.273 OA
ATOM      9  N   UNL     1       3.549   9.990  -0.435  0.00  0.00    -0.284 N 
ATOM     10  H   UNL     1       4.368   9.491  -0.579  0.00  0.00    +0.155 HD
BRANCH   7  11
ATOM     11  C   UNL     1       4.915  12.049  -0.315  0.00  0.00    +0.162 C 
BRANCH  11  12
ATOM     12  N   UNL     1       4.690  13.491  -0.182  0.00  0.00    -0.297 N 
ATOM     13  C   UNL     1       5.611  14.361  -0.640  0.00  0.00    +0.280 C 
ATOM     14  O   UNL     1       6.629  13.950  -1.165  0.00  0.00    -0.267 OA
ATOM     15  H   UNL     1       3.878  13.819   0.236  0.00  0.00    +0.150 HD
BRANCH  13  16
ATOM     16  C   UNL     1       5.386  15.804  -0.508  0.00  0.00    +0.189 A 
ATOM     17  C   UNL     1       6.233  16.790  -0.927  0.00  0.00    +0.054 A 
ATOM     18  C   UNL     1       5.622  18.012  -0.602  0.00  0.00    +0.042 A 
ATOM     19  C   UNL     1       4.445  17.721  -0.006  0.00  0.00    +0.196 A 
ATOM     20  O   UNL     1       4.304  16.390   0.044  0.00  0.00    -0.458 OA
ENDBRANCH  13  16
ENDBRANCH  11  12
BRANCH  11  22
ATOM     21  C   UNL     1       7.102  12.281   0.871  0.00  0.00    +0.009 C 
ATOM     22  C   UNL     1       5.756  11.553   0.864  0.00  0.00    +0.012 C 
ATOM     23  C   UNL     1       5.016  11.836   2.173  0.00  0.00    +0.009 C 
ENDBRANCH  11  22
ENDBRANCH   7  11
ENDBRANCH   1   9
BRANCH   5  24
ATOM     24  C   UNL     1      -1.272   9.830  -1.313  0.00  0.00    +0.248 C 
ATOM     25  O   UNL     1      -1.224  10.923  -1.843  0.00  0.00    -0.270 OA
ATOM     26  N   UNL     1      -2.446   9.175  -1.223  0.00  0.00    -0.281 N 
ATOM     27  H   UNL     1      -2.498   8.338  -0.736  0.00  0.00    +0.155 HD
BRANCH  26  28
ATOM     28  C   UNL     1      -3.589   9.702  -1.832  0.00  0.00    +0.034 A 
ATOM     29  C   UNL     1      -4.837   9.514  -1.251  0.00  0.00    +0.023 A 
ATOM     30  C   UNL     1      -5.964  10.036  -1.856  0.00  0.00    +0.002 A 
ATOM     31  C   UNL     1      -5.851  10.743  -3.038  0.00  0.00    +0.012 A 
ATOM     32  C   UNL     1      -4.611  10.927  -3.622  0.00  0.00    +0.057 A 
ATOM     33  C   UNL     1      -3.479  10.413  -3.020  0.00  0.00    +0.035 A 
BRANCH  32  34
ATOM     34  C   UNL     1      -4.494  11.694  -4.914  0.00  0.00    +0.417 C 
ATOM     35  F   UNL     1      -5.763  12.116  -5.323  0.00  0.00    -0.166 F 
ATOM     36  F   UNL     1      -3.671  12.809  -4.721  0.00  0.00    -0.166 F 
ATOM     37  F   UNL     1      -3.937  10.869  -5.898  0.00  0.00    -0.166 F 
ENDBRANCH  32  34
ENDBRANCH  26  28
ENDBRANCH   5  24
TORSDOF 8
