REMARK  Name = ZINC09135454
REMARK  11 active torsions:
REMARK  status: ('A' for Active; 'I' for Inactive)
REMARK    1  A    between atoms: C_1  and  C_2
REMARK    2  A    between atoms: C_5  and  C_30
REMARK    3  A    between atoms: C_6  and  N_8
REMARK    4  A    between atoms: C_9  and  C_11
REMARK    5  A    between atoms: N_13  and  C_14
REMARK    6  A    between atoms: C_14  and  C_15
REMARK    7  A    between atoms: C_15  and  C_17
REMARK    8  A    between atoms: C_15  and  N_62
REMARK    9  A    between atoms: N_26  and  C_27
REMARK   10  A    between atoms: C_28  and  N_62
REMARK   11  A    between atoms: C_29  and  N_62
REMARK                            x       y       z     vdW  Elec       q    Type
REMARK                         _______ _______ _______ _____ _____    ______ ____
ROOT
ATOM      1  C   UNL     1      -5.532   0.900   1.254  0.00  0.00    +0.094 C 
ENDROOT
BRANCH   1   4
ATOM      2  C   UNL     1      -3.295   0.263   1.980  0.00  0.00    +0.299 C 
ATOM      3  O   UNL     1      -2.897   1.347   1.608  0.00  0.00    -0.265 OA
ATOM      4  N   UNL     1      -4.597  -0.059   1.847  0.00  0.00    -0.309 N 
ATOM      5  H   UNL     1      -4.915  -0.926   2.145  0.00  0.00    +0.149 HD
BRANCH   2   7
ATOM      6  N   UNL     1      -1.039  -0.395   2.713  0.00  0.00    -0.278 N 
ATOM      7  C   UNL     1      -2.342  -0.715   2.585  0.00  0.00    +0.303 C 
ATOM      8  O   UNL     1      -2.740  -1.799   2.957  0.00  0.00    -0.265 OA
ATOM      9  H   UNL     1      -0.709   0.446   2.359  0.00  0.00    +0.155 HD
BRANCH   6  15
ATOM     10  C   UNL     1      -0.332  -4.195   5.750  0.00  0.00    +0.044 C 
ATOM     11  C   UNL     1       0.206  -3.126   4.833  0.00  0.00    -0.049 A 
ATOM     12  C   UNL     1       1.570  -3.015   4.628  0.00  0.00    +0.004 A 
ATOM     13  C   UNL     1       2.068  -2.036   3.789  0.00  0.00    +0.005 A 
ATOM     14  C   UNL     1       1.206  -1.165   3.152  0.00  0.00    -0.029 A 
ATOM     15  C   UNL     1      -0.164  -1.274   3.356  0.00  0.00    +0.037 A 
ATOM     16  C   UNL     1      -0.661  -2.256   4.204  0.00  0.00    +0.027 A 
ATOM     17  C   UNL     1       1.750  -0.099   2.237  0.00  0.00    +0.045 C 
ENDBRANCH   6  15
ENDBRANCH   2   7
ENDBRANCH   1   4
BRANCH   1  18
ATOM     18  C   UNL     1      -6.895   0.232   1.062  0.00  0.00    -0.021 C 
BRANCH  18  19
ATOM     19  C   UNL     1      -7.904   1.264   0.629  0.00  0.00    -0.059 A 
ATOM     20  C   UNL     1      -8.128   1.492  -0.716  0.00  0.00    +0.004 A 
ATOM     21  C   UNL     1      -9.053   2.435  -1.110  0.00  0.00    +0.023 A 
ATOM     22  C   UNL     1      -9.760   3.172  -0.158  0.00  0.00    +0.033 A 
ATOM     23  C   UNL     1      -9.531   2.941   1.187  0.00  0.00    -0.026 A 
ATOM     24  C   UNL     1      -8.603   1.988   1.575  0.00  0.00    +0.007 A 
ATOM     25  C   UNL     1     -10.269   3.695   2.264  0.00  0.00    +0.038 C 
ATOM     26  C   UNL     1     -10.939   4.932   1.661  0.00  0.00    +0.024 C 
ATOM     27  C   UNL     1     -11.669   4.497   0.383  0.00  0.00    +0.105 C 
ATOM     28  N   UNL     1     -10.671   4.120  -0.621  0.00  0.00    -0.333 N 
ATOM     29  C   UNL     1     -11.317   3.670  -1.861  0.00  0.00    +0.129 C 
ENDBRANCH  18  19
BRANCH  18  32
ATOM     30  C   UNL     1      -5.835  -0.422  -1.013  0.00  0.00    -0.096 C 
ATOM     31  C   UNL     1      -6.421  -2.102   0.629  0.00  0.00    -0.096 C 
ATOM     32  N   UNL     1      -6.815  -0.814   0.021  0.00  0.00    +0.382 N 
ATOM     33  H   UNL     1      -7.738  -0.920  -0.417  0.00  0.00    -0.082 HD
ENDBRANCH  18  32
ENDBRANCH   1  18
TORSDOF 6
