REMARK  Name = ZINC03840753
REMARK  15 active torsions:
REMARK  status: ('A' for Active; 'I' for Inactive)
REMARK    1  A    between atoms: C_1  and  C_2
REMARK    2  A    between atoms: C_10  and  C_12
REMARK    3  A    between atoms: C_12  and  C_13
REMARK    4  A    between atoms: C_13  and  C_14
REMARK    5  A    between atoms: C_13  and  C_15
REMARK    6  A    between atoms: C_13  and  C_16
REMARK    7  A    between atoms: C_18  and  C_39
REMARK    8  A    between atoms: C_21  and  O_38
REMARK    9  A    between atoms: C_23  and  C_27
REMARK   10  A    between atoms: C_27  and  C_29
REMARK   11  A    between atoms: C_27  and  C_30
REMARK   12  A    between atoms: N_32  and  C_33
REMARK   13  A    between atoms: N_32  and  C_34
REMARK   14  A    between atoms: C_34  and  C_35
REMARK   15  A    between atoms: C_35  and  C_36
REMARK                            x       y       z     vdW  Elec       q    Type
REMARK                         _______ _______ _______ _____ _____    ______ ____
ROOT
ATOM      1  C   UNL     1      -1.921  -2.263   7.144  0.00  0.00    +0.014 C 
ATOM      2  C   UNL     1      -1.631  -3.384   6.143  0.00  0.00    +0.042 C 
ATOM      3  C   UNL     1      -2.225  -4.688   6.656  0.00  0.00    +0.057 A 
ATOM      4  C   UNL     1      -1.535  -5.851   6.530  0.00  0.00    +0.015 A 
ATOM      5  S   UNL     1      -2.636  -7.037   7.254  0.00  0.00    -0.057 S 
ATOM      6  C   UNL     1      -3.907  -5.925   7.665  0.00  0.00    +0.165 A 
ATOM      7  N   UNL     1      -3.419  -4.779   7.237  0.00  0.00    -0.229 NA
ATOM      8  N   UNL     1      -5.124  -6.179   8.285  0.00  0.00    -0.265 N 
ATOM      9  C   UNL     1      -5.444  -7.436   8.651  0.00  0.00    +0.219 C 
ATOM     10  O   UNL     1      -4.669  -8.345   8.440  0.00  0.00    -0.275 OA
ATOM     11  C   UNL     1      -0.187  -6.050   5.928  0.00  0.00    +0.051 C 
ATOM     12  C   UNL     1       0.194  -4.791   5.145  0.00  0.00    -0.022 C 
ATOM     13  C   UNL     1      -0.115  -3.543   5.979  0.00  0.00    +0.033 C 
ATOM     14  C   UNL     1       0.407  -2.324   5.200  0.00  0.00    +0.123 C 
ATOM     15  C   UNL     1      -0.354  -2.226   3.876  0.00  0.00    +0.029 C 
ATOM     16  C   UNL     1      -0.121  -3.488   3.046  0.00  0.00    +0.007 C 
ATOM     17  C   UNL     1      -0.583  -4.720   3.831  0.00  0.00    +0.008 C 
ATOM     18  C   UNL     1       1.694  -4.819   4.844  0.00  0.00    +0.012 C 
ATOM     19  H   UNL     1      -5.744  -5.452   8.454  0.00  0.00    +0.157 HD
ENDROOT
BRANCH  15  20
ATOM     20  C   UNL     1       0.140  -1.006   3.095  0.00  0.00    +0.078 C 
ATOM     21  C   UNL     1      -0.098   0.259   3.922  0.00  0.00    +0.017 C 
BRANCH  20  22
ATOM     22  C   UNL     1      -0.613  -0.905   1.794  0.00  0.00    +0.219 C 
ATOM     23  O   UNL     1      -1.460  -1.727   1.518  0.00  0.00    -0.275 OA
ATOM     24  N   UNL     1      -0.343   0.100   0.936  0.00  0.00    -0.303 N 
ATOM     25  C   UNL     1       0.681   1.093   1.270  0.00  0.00    +0.132 C 
BRANCH  24  26
ATOM     26  C   UNL     1      -1.075   0.198  -0.329  0.00  0.00    +0.122 C 
BRANCH  26  27
ATOM     27  C   UNL     1      -0.329  -0.584  -1.412  0.00  0.00    +0.137 C 
BRANCH  27  28
ATOM     28  C   UNL     1      -1.064  -0.485  -2.684  0.00  0.00    +0.064 C 
ATOM     29  N   UNL     1      -1.631  -0.408  -3.665  0.00  0.00    -0.197 NA
ENDBRANCH  27  28
ENDBRANCH  26  27
ENDBRANCH  24  26
ENDBRANCH  20  22
ENDBRANCH  15  20
BRANCH  14  30
ATOM     30  O   UNL     1       1.804  -2.481   4.940  0.00  0.00    -0.391 OA
ATOM     31  H   UNL     1       2.195  -1.752   4.440  0.00  0.00    +0.210 HD
ENDBRANCH  14  30
BRANCH   9  32
ATOM     32  C   UNL     1      -6.764  -7.712   9.324  0.00  0.00    +0.102 C 
BRANCH  32  33
ATOM     33  C   UNL     1      -6.877  -9.206   9.633  0.00  0.00    -0.029 C 
ATOM     34  C   UNL     1      -5.734  -9.622  10.562  0.00  0.00    +0.011 C 
ATOM     35  C   UNL     1      -8.217  -9.487  10.315  0.00  0.00    +0.011 C 
ATOM     36  C   UNL     1      -6.791 -10.005   8.330  0.00  0.00    +0.011 C 
ENDBRANCH  32  33
ENDBRANCH   9  32
TORSDOF 8
