REMARK  Name = ZINC04211923
REMARK  10 active torsions:
REMARK  status: ('A' for Active; 'I' for Inactive)
REMARK    1  A    between atoms: C_1  and  C_2
REMARK    2  A    between atoms: C_2  and  C_4
REMARK    3  A    between atoms: C_2  and  N_10
REMARK    4  A    between atoms: C_11  and  C_13
REMARK    5  A    between atoms: C_15  and  N_22
REMARK    6  A    between atoms: C_18  and  N_19
REMARK    7  A    between atoms: N_19  and  C_20
REMARK    8  A    between atoms: N_19  and  C_21
REMARK    9  A    between atoms: N_25  and  C_26
REMARK   10  A    between atoms: C_29  and  C_32
REMARK                            x       y       z     vdW  Elec       q    Type
REMARK                         _______ _______ _______ _____ _____    ______ ____
ROOT
ATOM      1  C   UNL     1       4.924  -6.745  -0.269  0.00  0.00    +0.059 A 
ATOM      2  C   UNL     1       3.706  -6.060  -0.249  0.00  0.00    +0.038 A 
ATOM      3  C   UNL     1       3.695  -4.677  -0.239  0.00  0.00    +0.036 A 
ATOM      4  C   UNL     1       4.891  -3.966  -0.256  0.00  0.00    +0.025 A 
ATOM      5  C   UNL     1       6.098  -4.634  -0.270  0.00  0.00    +0.025 A 
ATOM      6  C   UNL     1       6.127  -6.023  -0.280  0.00  0.00    +0.042 A 
ENDROOT
BRANCH   3   7
ATOM      7  N   UNL     1       2.473  -3.989  -0.219  0.00  0.00    -0.269 N 
ATOM      8  C   UNL     1       2.364  -2.830   0.461  0.00  0.00    +0.308 C 
ATOM      9  O   UNL     1       3.344  -2.339   0.986  0.00  0.00    -0.252 OA
ATOM     10  N   UNL     1       1.168  -2.216   0.558  0.00  0.00    -0.269 N 
ATOM     11  H   UNL     1       1.707  -4.346  -0.695  0.00  0.00    +0.156 HD
ATOM     12  H   UNL     1       0.374  -2.641   0.197  0.00  0.00    +0.156 HD
BRANCH  10  13
ATOM     13  C   UNL     1       1.071  -0.967   1.180  0.00  0.00    +0.035 A 
ATOM     14  C   UNL     1       0.165  -0.024   0.712  0.00  0.00    +0.024 A 
ATOM     15  C   UNL     1       0.072   1.208   1.328  0.00  0.00    +0.014 A 
ATOM     16  C   UNL     1       0.880   1.504   2.410  0.00  0.00    +0.055 A 
ATOM     17  C   UNL     1       1.784   0.568   2.879  0.00  0.00    +0.014 A 
ATOM     18  C   UNL     1       1.882  -0.666   2.267  0.00  0.00    +0.024 A 
BRANCH  16  19
ATOM     19  C   UNL     1       0.776   2.850   3.081  0.00  0.00    +0.417 C 
ATOM     20  F   UNL     1      -0.175   2.788   4.105  0.00  0.00    -0.166 F 
ATOM     21  F   UNL     1       2.019   3.200   3.619  0.00  0.00    -0.166 F 
ATOM     22  F   UNL     1       0.387   3.810   2.141  0.00  0.00    -0.166 F 
ENDBRANCH  16  19
ENDBRANCH  10  13
ENDBRANCH   3   7
BRANCH   1  24
ATOM     23  N   UNL     1       3.788  -8.910  -0.267  0.00  0.00    -0.305 N 
ATOM     24  C   UNL     1       4.945  -8.219  -0.278  0.00  0.00    +0.246 C 
ATOM     25  O   UNL     1       6.006  -8.812  -0.296  0.00  0.00    -0.270 OA
ATOM     26  H   UNL     1       2.941  -8.437  -0.253  0.00  0.00    +0.150 HD
BRANCH  23  28
ATOM     27  C   UNL     1       3.922 -10.874  -1.718  0.00  0.00    +0.033 C 
ATOM     28  C   UNL     1       3.808 -10.375  -0.277  0.00  0.00    +0.100 C 
BRANCH  28  29
ATOM     29  C   UNL     1       2.536 -10.899   0.337  0.00  0.00    -0.027 A 
ATOM     30  C   UNL     1       1.331 -10.277   0.069  0.00  0.00    +0.005 A 
ATOM     31  C   UNL     1       0.163 -10.760   0.628  0.00  0.00    +0.000 A 
ATOM     32  C   UNL     1       0.201 -11.861   1.464  0.00  0.00    +0.000 A 
ATOM     33  C   UNL     1       1.407 -12.480   1.737  0.00  0.00    +0.000 A 
ATOM     34  C   UNL     1       2.574 -11.999   1.174  0.00  0.00    +0.005 A 
ENDBRANCH  28  29
ENDBRANCH  23  28
ENDBRANCH   1  24
BRANCH   6  35
ATOM     35  N   UNL     1       7.344  -6.695  -0.300  0.00  0.00    -0.335 N 
ATOM     36  C   UNL     1       8.121  -6.341  -1.496  0.00  0.00    +0.129 C 
ATOM     37  C   UNL     1       8.112  -6.431   0.924  0.00  0.00    +0.129 C 
ENDBRANCH   6  35
TORSDOF 7
