REMARK  Name = ZINC39665390
REMARK  8 active torsions:
REMARK  status: ('A' for Active; 'I' for Inactive)
REMARK    1  A    between atoms: C_1  and  C_2
REMARK    2  A    between atoms: C_2  and  C_4
REMARK    3  A    between atoms: C_2  and  O_33
REMARK    4  A    between atoms: C_4  and  N_5
REMARK    5  A    between atoms: C_6  and  C_8
REMARK    6  A    between atoms: C_19  and  C_21
REMARK    7  A    between atoms: C_24  and  C_26
REMARK    8  A    between atoms: O_33  and  C_34
REMARK                            x       y       z     vdW  Elec       q    Type
REMARK                         _______ _______ _______ _____ _____    ______ ____
ROOT
ATOM      1  C   UNL     1       0.685  -4.277  -1.905  0.00  0.00    +0.100 C 
ATOM      2  C   UNL     1       1.226  -4.816  -0.562  0.00  0.00    +0.121 C 
ATOM      3  N   UNL     1       1.780  -6.151  -0.890  0.00  0.00    -0.294 N 
ATOM      4  C   UNL     1       2.431  -5.966  -2.208  0.00  0.00    +0.115 C 
ATOM      5  C   UNL     1       1.479  -5.034  -2.983  0.00  0.00    -0.004 C 
ATOM      6  C   UNL     1       0.534  -5.854  -3.857  0.00  0.00    -0.010 C 
ATOM      7  C   UNL     1       1.340  -6.552  -4.956  0.00  0.00    -0.082 C 
ATOM      8  N   UNL     1       2.040  -5.548  -5.765  0.00  0.00    +0.379 N 
ATOM      9  C   UNL     1       3.014  -4.827  -4.937  0.00  0.00    -0.082 C 
ATOM     10  C   UNL     1       2.279  -4.055  -3.837  0.00  0.00    -0.010 C 
ATOM     11  C   UNL     1       1.706  -7.278  -0.155  0.00  0.00    +0.282 C 
ATOM     12  O   UNL     1       2.216  -8.305  -0.564  0.00  0.00    -0.267 OA
ATOM     13  H   UNL     1       2.521  -6.006  -6.525  0.00  0.00    -0.086 HD
ATOM     14  H   UNL     1       1.370  -4.893  -6.141  0.00  0.00    -0.086 HD
ENDROOT
BRANCH  11  15
ATOM     15  C   UNL     1       1.014  -7.268   1.136  0.00  0.00    +0.190 A 
ATOM     16  C   UNL     1       0.871  -8.342   1.986  0.00  0.00    +0.055 A 
ATOM     17  C   UNL     1       0.147  -7.888   3.093  0.00  0.00    +0.050 A 
ATOM     18  C   UNL     1      -0.122  -6.566   2.881  0.00  0.00    +0.136 A 
ATOM     19  O   UNL     1       0.409  -6.202   1.702  0.00  0.00    -0.450 OA
BRANCH  18  20
ATOM     20  C   UNL     1      -0.869  -5.682   3.799  0.00  0.00    +0.017 A 
ATOM     21  C   UNL     1      -1.363  -6.181   5.006  0.00  0.00    +0.014 A 
ATOM     22  C   UNL     1      -2.059  -5.351   5.859  0.00  0.00    +0.039 A 
ATOM     23  C   UNL     1      -2.269  -4.023   5.520  0.00  0.00    +0.123 A 
ATOM     24  C   UNL     1      -1.781  -3.522   4.323  0.00  0.00    +0.039 A 
ATOM     25  C   UNL     1      -1.078  -4.342   3.465  0.00  0.00    +0.014 A 
ATOM     26  F   UNL     1      -2.951  -3.214   6.359  0.00  0.00    -0.205 F 
ENDBRANCH  18  20
ENDBRANCH  11  15
BRANCH   1  28
ATOM     27  N   UNL     1       0.118  -2.028  -2.765  0.00  0.00    -0.312 N 
ATOM     28  C   UNL     1       0.934  -2.795  -2.015  0.00  0.00    +0.218 C 
ATOM     29  O   UNL     1       1.869  -2.292  -1.428  0.00  0.00    -0.275 OA
ATOM     30  H   UNL     1      -0.629  -2.430  -3.235  0.00  0.00    +0.149 HD
BRANCH  27  31
ATOM     31  C   UNL     1       0.360  -0.587  -2.872  0.00  0.00    +0.148 C 
BRANCH  31  33
ATOM     32  C   UNL     1      -0.378   1.523  -3.987  0.00  0.00    +0.053 C 
ATOM     33  C   UNL     1      -0.702   0.043  -3.775  0.00  0.00    +0.187 C 
BRANCH  33  34
ATOM     34  O   UNL     1      -1.985  -0.080  -3.160  0.00  0.00    -0.488 OA
BRANCH  34  35
ATOM     35  C   UNL     1      -3.068  -0.056  -3.981  0.00  0.00    +0.121 A 
ATOM     36  C   UNL     1      -4.336  -0.282  -3.465  0.00  0.00    +0.045 A 
ATOM     37  C   UNL     1      -5.435  -0.257  -4.301  0.00  0.00    +0.004 A 
ATOM     38  C   UNL     1      -5.272  -0.006  -5.652  0.00  0.00    +0.000 A 
ATOM     39  C   UNL     1      -4.010   0.219  -6.168  0.00  0.00    +0.004 A 
ATOM     40  C   UNL     1      -2.908   0.201  -5.335  0.00  0.00    +0.045 A 
ENDBRANCH  34  35
ENDBRANCH  33  34
ENDBRANCH  31  33
ENDBRANCH  27  31
ENDBRANCH   1  28
TORSDOF 7
