REMARK  Name = ZINC57340685
REMARK  1 active torsions:
REMARK  status: ('A' for Active; 'I' for Inactive)
REMARK    1  A    between atoms: C_1  and  C_2
REMARK                            x       y       z     vdW  Elec       q    Type
REMARK                         _______ _______ _______ _____ _____    ______ ____
ROOT
ATOM      1  C   UNL     1      -0.019   1.526   0.010  0.00  0.00    +0.008 C 
ATOM      2  C   UNL     1       0.002  -0.004   0.002  0.00  0.00    -0.009 C 
ATOM      3  C   UNL     1      -1.434  -0.537   0.019  0.00  0.00    +0.008 C 
ATOM      4  C   UNL     1      -1.432  -2.046  -0.236  0.00  0.00    +0.037 C 
ATOM      5  C   UNL     1      -0.464  -2.704   0.737  0.00  0.00    -0.023 A 
ATOM      6  C   UNL     1       0.483  -1.986   1.375  0.00  0.00    -0.004 A 
ATOM      7  S   UNL     1       1.345  -3.165   2.377  0.00  0.00    -0.077 S 
ATOM      8  C   UNL     1       0.502  -4.540   1.971  0.00  0.00    +0.091 A 
ATOM      9  C   UNL     1      -0.474  -4.127   1.058  0.00  0.00    +0.070 A 
ATOM     10  C   UNL     1      -1.427  -5.110   0.500  0.00  0.00    +0.259 C 
ATOM     11  O   UNL     1      -2.411  -4.726  -0.104  0.00  0.00    -0.269 OA
ATOM     12  N   UNL     1      -1.209  -6.426   0.657  0.00  0.00    -0.215 N 
ATOM     13  S   UNL     1       0.176  -7.030   1.329  0.00  0.00    +0.207 S 
ATOM     14  O   UNL     1       1.126  -6.965   0.274  0.00  0.00    -0.216 OA
ATOM     15  N   UNL     1       0.666  -5.841   2.386  0.00  0.00    -0.242 N 
ATOM     16  C   UNL     1       0.739  -0.515   1.249  0.00  0.00    +0.046 C 
ATOM     17  H   UNL     1      -1.893  -7.048   0.364  0.00  0.00    +0.167 HD
ATOM     18  H   UNL     1       1.048  -6.055   3.252  0.00  0.00    +0.164 HD
ENDROOT
TORSDOF 0
