REMARK  Name = ZINC02528649
REMARK  5 active torsions:
REMARK  status: ('A' for Active; 'I' for Inactive)
REMARK    1  A    between atoms: C_1  and  O_2
REMARK    2  A    between atoms: O_2  and  C_3
REMARK    3  A    between atoms: C_3  and  C_5
REMARK    4  A    between atoms: C_6  and  N_17
REMARK    5  A    between atoms: C_8  and  C_10
REMARK                            x       y       z     vdW  Elec       q    Type
REMARK                         _______ _______ _______ _____ _____    ______ ____
ROOT
ATOM      1  C   UNL     1       1.204   2.048   0.002  0.00  0.00    +0.117 A 
ATOM      2  C   UNL     1      -0.017   1.369   0.010  0.00  0.00    +0.047 A 
ATOM      3  C   UNL     1       0.002  -0.004   0.002  0.00  0.00    +0.039 A 
ATOM      4  C   UNL     1       1.223  -0.653  -0.013  0.00  0.00    +0.022 A 
ATOM      5  S   UNL     1       2.380   0.705  -0.017  0.00  0.00    -0.080 S 
ENDROOT
BRANCH   4   6
ATOM      6  C   UNL     1       1.499  -2.105  -0.024  0.00  0.00    -0.011 A 
ATOM      7  C   UNL     1       0.444  -3.020  -0.013  0.00  0.00    +0.010 A 
ATOM      8  C   UNL     1       0.709  -4.373  -0.029  0.00  0.00    +0.016 A 
ATOM      9  C   UNL     1       2.017  -4.826  -0.043  0.00  0.00    +0.018 A 
ATOM     10  C   UNL     1       3.068  -3.924  -0.049  0.00  0.00    +0.016 A 
ATOM     11  C   UNL     1       2.816  -2.568  -0.039  0.00  0.00    +0.010 A 
ATOM     12 BR   UNL     1       2.371  -6.683  -0.057  0.00  0.00    -0.050 Br
ENDBRANCH   4   6
BRANCH   2  13
ATOM     13  N   UNL     1      -1.221   2.067   0.019  0.00  0.00    -0.357 N 
ATOM     14  H   UNL     1      -2.062   1.583   0.021  0.00  0.00    +0.142 HD
ATOM     15  H   UNL     1      -1.220   3.037   0.024  0.00  0.00    +0.142 HD
ENDBRANCH   2  13
BRANCH   1  16
ATOM     16  C   UNL     1       1.446   3.439   0.007  0.00  0.00    +0.347 C 
ATOM     17  O   UNL     1       0.511   4.219   0.021  0.00  0.00    -0.244 OA
BRANCH  16  19
ATOM     18  C   UNL     1       2.884   5.323   0.004  0.00  0.00    +0.280 C 
ATOM     19  O   UNL     1       2.713   3.904  -0.003  0.00  0.00    -0.464 OA
ENDBRANCH  16  19
ENDBRANCH   1  16
TORSDOF 4
