REMARK  Name = ZINC39656844
REMARK  9 active torsions:
REMARK  status: ('A' for Active; 'I' for Inactive)
REMARK    1  A    between atoms: C_1  and  C_2
REMARK    2  A    between atoms: C_2  and  C_4
REMARK    3  A    between atoms: C_2  and  N_11
REMARK    4  A    between atoms: C_12  and  C_14
REMARK    5  A    between atoms: C_25  and  C_27
REMARK    6  A    between atoms: C_30  and  O_35
REMARK    7  A    between atoms: C_31  and  O_33
REMARK    8  A    between atoms: O_33  and  C_34
REMARK    9  A    between atoms: O_35  and  C_36
REMARK                            x       y       z     vdW  Elec       q    Type
REMARK                         _______ _______ _______ _____ _____    ______ ____
ROOT
ATOM      1  C   UNL     1      -4.041  -1.422  -0.876  0.00  0.00    +0.100 C 
ATOM      2  C   UNL     1      -4.678  -0.290  -0.040  0.00  0.00    +0.121 C 
ATOM      3  N   UNL     1      -5.229   0.652  -1.042  0.00  0.00    -0.296 N 
ATOM      4  C   UNL     1      -5.790  -0.223  -2.100  0.00  0.00    +0.115 C 
ATOM      5  C   UNL     1      -4.776  -1.377  -2.226  0.00  0.00    -0.004 C 
ATOM      6  C   UNL     1      -5.504  -2.695  -2.475  0.00  0.00    -0.010 C 
ATOM      7  C   UNL     1      -6.179  -2.648  -3.849  0.00  0.00    -0.082 C 
ATOM      8  N   UNL     1      -5.166  -2.421  -4.887  0.00  0.00    +0.379 N 
ATOM      9  C   UNL     1      -4.536  -1.110  -4.693  0.00  0.00    -0.082 C 
ATOM     10  C   UNL     1      -3.791  -1.092  -3.356  0.00  0.00    -0.010 C 
ATOM     11  C   UNL     1      -5.223   1.999  -1.002  0.00  0.00    +0.247 C 
ATOM     12  O   UNL     1      -4.612   2.578  -0.125  0.00  0.00    -0.270 OA
ATOM     13  H   UNL     1      -4.463  -3.143  -4.832  0.00  0.00    -0.086 HD
ATOM     14  H   UNL     1      -5.605  -2.452  -5.795  0.00  0.00    -0.086 HD
ENDROOT
BRANCH  11  15
ATOM     15  C   UNL     1      -5.959   2.771  -2.022  0.00  0.00    +0.041 A 
ATOM     16  C   UNL     1      -6.994   2.171  -2.743  0.00  0.00    +0.017 A 
ATOM     17  C   UNL     1      -7.680   2.893  -3.695  0.00  0.00    +0.050 A 
ATOM     18  C   UNL     1      -7.345   4.218  -3.940  0.00  0.00    +0.162 A 
ATOM     19  C   UNL     1      -6.314   4.824  -3.224  0.00  0.00    +0.162 A 
ATOM     20  C   UNL     1      -5.626   4.107  -2.264  0.00  0.00    +0.062 A 
BRANCH  19  21
ATOM     21  O   UNL     1      -5.988   6.122  -3.466  0.00  0.00    -0.491 OA
ATOM     22  C   UNL     1      -4.920   6.677  -2.696  0.00  0.00    +0.277 C 
ENDBRANCH  19  21
BRANCH  18  23
ATOM     23  O   UNL     1      -8.024   4.926  -4.879  0.00  0.00    -0.491 OA
ATOM     24  C   UNL     1      -9.069   4.244  -5.576  0.00  0.00    +0.277 C 
ENDBRANCH  18  23
ENDBRANCH  11  15
BRANCH   1  26
ATOM     25  N   UNL     1      -1.734  -2.192  -1.331  0.00  0.00    -0.308 N 
ATOM     26  C   UNL     1      -2.569  -1.165  -1.072  0.00  0.00    +0.219 C 
ATOM     27  O   UNL     1      -2.135  -0.035  -0.997  0.00  0.00    -0.275 OA
ATOM     28  H   UNL     1      -2.081  -3.095  -1.391  0.00  0.00    +0.149 HD
BRANCH  25  30
ATOM     29  C   UNL     1       0.394  -1.910  -0.160  0.00  0.00    +0.033 C 
ATOM     30  C   UNL     1      -0.303  -1.942  -1.522  0.00  0.00    +0.100 C 
BRANCH  30  31
ATOM     31  C   UNL     1       0.290  -3.041  -2.365  0.00  0.00    -0.027 A 
ATOM     32  C   UNL     1      -0.109  -4.351  -2.174  0.00  0.00    +0.006 A 
ATOM     33  C   UNL     1       0.435  -5.359  -2.947  0.00  0.00    +0.015 A 
ATOM     34  C   UNL     1       1.379  -5.057  -3.912  0.00  0.00    +0.018 A 
ATOM     35  C   UNL     1       1.778  -3.747  -4.103  0.00  0.00    +0.015 A 
ATOM     36  C   UNL     1       1.230  -2.738  -3.332  0.00  0.00    +0.006 A 
ATOM     37 BR   UNL     1       2.124  -6.436  -4.970  0.00  0.00    -0.050 Br
ENDBRANCH  30  31
ENDBRANCH  25  30
ENDBRANCH   1  26
TORSDOF 6
