REMARK  Name = ZINC02649451
REMARK  9 active torsions:
REMARK  status: ('A' for Active; 'I' for Inactive)
REMARK    1  A    between atoms: C_1  and  O_2
REMARK    2  A    between atoms: O_2  and  C_3
REMARK    3  A    between atoms: C_8  and  N_9
REMARK    4  A    between atoms: C_10  and  C_12
REMARK    5  A    between atoms: C_15  and  N_18
REMARK    6  A    between atoms: C_19  and  C_21
REMARK    7  A    between atoms: C_21  and  S_22
REMARK    8  A    between atoms: S_22  and  C_23
REMARK    9  A    between atoms: N_25  and  C_29
REMARK                            x       y       z     vdW  Elec       q    Type
REMARK                         _______ _______ _______ _____ _____    ______ ____
ROOT
ATOM      1  C   UNL     1       2.852  -9.167  -0.334  0.00  0.00    +0.037 A 
ATOM      2  C   UNL     1       1.461  -9.033  -0.324  0.00  0.00    +0.015 A 
ATOM      3  C   UNL     1       0.892  -7.784  -0.214  0.00  0.00    +0.024 A 
ATOM      4  C   UNL     1       1.700  -6.656  -0.114  0.00  0.00    +0.033 A 
ATOM      5  C   UNL     1       3.086  -6.785  -0.130  0.00  0.00    +0.024 A 
ATOM      6  C   UNL     1       3.661  -8.031  -0.234  0.00  0.00    +0.015 A 
ENDROOT
BRANCH   1   8
ATOM      7  N   UNL     1       4.807 -10.631  -0.462  0.00  0.00    -0.279 N 
ATOM      8  C   UNL     1       3.465 -10.504  -0.451  0.00  0.00    +0.248 C 
ATOM      9  O   UNL     1       2.760 -11.491  -0.539  0.00  0.00    -0.270 OA
ATOM     10  H   UNL     1       5.369  -9.853  -0.324  0.00  0.00    +0.155 HD
BRANCH   7  16
ATOM     11  C   UNL     1       6.589 -11.994  -1.371  0.00  0.00    +0.141 A 
ATOM     12  C   UNL     1       7.161 -13.239  -1.574  0.00  0.00    +0.047 A 
ATOM     13  C   UNL     1       6.541 -14.373  -1.082  0.00  0.00    +0.004 A 
ATOM     14  C   UNL     1       5.350 -14.269  -0.387  0.00  0.00    +0.002 A 
ATOM     15  C   UNL     1       4.776 -13.030  -0.176  0.00  0.00    +0.027 A 
ATOM     16  C   UNL     1       5.389 -11.888  -0.670  0.00  0.00    +0.076 A 
BRANCH  11  18
ATOM     17  C   UNL     1       8.425 -11.062  -2.561  0.00  0.00    +0.277 C 
ATOM     18  O   UNL     1       7.198 -10.877  -1.853  0.00  0.00    -0.493 OA
ENDBRANCH  11  18
ENDBRANCH   7  16
ENDBRANCH   1   8
BRANCH   4  19
ATOM     19  N   UNL     1       1.121  -5.392  -0.003  0.00  0.00    -0.285 N 
ATOM     20  C   UNL     1       1.794  -4.393   0.601  0.00  0.00    +0.227 C 
ATOM     21  O   UNL     1       2.857  -4.617   1.140  0.00  0.00    -0.275 OA
ATOM     22  H   UNL     1       0.233  -5.233  -0.360  0.00  0.00    +0.155 HD
BRANCH  20  23
ATOM     23  C   UNL     1       1.226  -2.997   0.605  0.00  0.00    +0.172 C 
BRANCH  23  24
ATOM     24  S   UNL     1       2.355  -1.889   1.486  0.00  0.00    -0.088 S 
BRANCH  24  25
ATOM     25  C   UNL     1       1.470  -0.373   1.341  0.00  0.00    +0.158 A 
ATOM     26  N   UNL     1       1.789   0.814   1.792  0.00  0.00    -0.151 NA
ATOM     27  N   UNL     1       0.958   1.889   1.576  0.00  0.00    -0.217 N 
ATOM     28  C   UNL     1      -0.195   1.693   0.890  0.00  0.00    +0.150 A 
ATOM     29  S   UNL     1      -1.413   2.819   0.465  0.00  0.00    -0.023 S 
ATOM     30  S   UNL     1      -0.096  -0.057   0.543  0.00  0.00    -0.034 S 
BRANCH  27  31
ATOM     31  C   UNL     1       1.296   3.160   2.055  0.00  0.00    +0.067 A 
ATOM     32  C   UNL     1       0.965   4.291   1.320  0.00  0.00    +0.028 A 
ATOM     33  C   UNL     1       1.296   5.544   1.798  0.00  0.00    +0.002 A 
ATOM     34  C   UNL     1       1.965   5.672   3.002  0.00  0.00    +0.000 A 
ATOM     35  C   UNL     1       2.301   4.547   3.733  0.00  0.00    +0.002 A 
ATOM     36  C   UNL     1       1.968   3.292   3.264  0.00  0.00    +0.028 A 
ENDBRANCH  27  31
ENDBRANCH  24  25
ENDBRANCH  23  24
ENDBRANCH  20  23
ENDBRANCH   4  19
TORSDOF 8
