REMARK  Name = ZINC59331666
REMARK  11 active torsions:
REMARK  status: ('A' for Active; 'I' for Inactive)
REMARK    1  A    between atoms: C_1  and  C_2
REMARK    2  A    between atoms: C_2  and  C_3
REMARK    3  A    between atoms: C_2  and  C_4
REMARK    4  A    between atoms: C_2  and  C_5
REMARK    5  A    between atoms: C_12  and  N_16
REMARK    6  A    between atoms: C_13  and  C_14
REMARK    7  A    between atoms: N_16  and  C_17
REMARK    8  A    between atoms: C_17  and  N_19
REMARK    9  A    between atoms: C_20  and  C_22
REMARK   10  A    between atoms: C_25  and  N_31
REMARK   11  A    between atoms: C_26  and  N_28
REMARK                            x       y       z     vdW  Elec       q    Type
REMARK                         _______ _______ _______ _____ _____    ______ ____
ROOT
ATOM      1  C   UNL     1       6.741  -0.956  -5.061  0.00  0.00    +0.141 C 
ATOM      2  S   UNL     1       6.785   0.411  -4.032  0.00  0.00    -0.018 S 
ENDROOT
BRANCH   1   3
ATOM      3  N   UNL     1       7.756  -1.190  -5.916  0.00  0.00    -0.264 N 
ATOM      4  C   UNL     1       8.806  -0.347  -5.961  0.00  0.00    +0.250 C 
ATOM      5  O   UNL     1       8.838   0.624  -5.231  0.00  0.00    -0.270 OA
ATOM      6  H   UNL     1       7.730  -1.965  -6.498  0.00  0.00    +0.157 HD
BRANCH   4   7
ATOM      7  C   UNL     1       9.917  -0.603  -6.896  0.00  0.00    +0.039 A 
ATOM      8  C   UNL     1       9.879  -1.716  -7.741  0.00  0.00    +0.015 A 
ATOM      9  C   UNL     1      10.908  -1.952  -8.608  0.00  0.00    +0.026 A 
ATOM     10  C   UNL     1      11.998  -1.087  -8.654  0.00  0.00    +0.060 A 
ATOM     11  C   UNL     1      12.044   0.025  -7.817  0.00  0.00    +0.148 A 
ATOM     12  C   UNL     1      11.008   0.271  -6.945  0.00  0.00    +0.047 A 
BRANCH  10  13
ATOM     13  N   UNL     1      13.042  -1.333  -9.538  0.00  0.00    -0.324 N 
ATOM     14  C   UNL     1      14.192  -2.160  -9.140  0.00  0.00    +0.133 C 
ATOM     15  C   UNL     1      14.415  -3.229 -10.216  0.00  0.00    +0.178 C 
ATOM     16  O   UNL     1      14.501  -2.597 -11.496  0.00  0.00    -0.377 OA
ATOM     17  C   UNL     1      13.310  -1.911 -11.890  0.00  0.00    +0.178 C 
ATOM     18  C   UNL     1      13.028  -0.779 -10.901  0.00  0.00    +0.133 C 
ENDBRANCH  10  13
BRANCH  11  19
ATOM     19  N   UNL     1      13.204   0.943  -7.868  0.00  0.00    +0.058 N 
ATOM     20  O   UNL     1      13.243   1.908  -7.141  0.00  0.00    -0.126 OA
ATOM     21  O   UNL     1      14.111   0.728  -8.637  0.00  0.00    -0.126 OA
ENDBRANCH  11  19
ENDBRANCH   4   7
ENDBRANCH   1   3
BRANCH   1  22
ATOM     22  N   UNL     1       5.690  -1.799  -5.015  0.00  0.00    -0.290 N 
ATOM     23  H   UNL     1       5.665  -2.574  -5.598  0.00  0.00    +0.154 HD
BRANCH  22  30
ATOM     24  C   UNL     1       0.718  -0.497  -1.257  0.00  0.00    -0.000 C 
ATOM     25  C   UNL     1       0.745  -2.029  -1.264  0.00  0.00    +0.009 C 
ATOM     26  C   UNL     1       1.234  -2.534  -2.624  0.00  0.00    +0.037 C 
ATOM     27  C   UNL     1       2.546  -1.840  -2.959  0.00  0.00    -0.018 A 
ATOM     28  C   UNL     1       2.920  -0.705  -2.331  0.00  0.00    -0.004 A 
ATOM     29  S   UNL     1       4.484  -0.290  -3.047  0.00  0.00    -0.077 S 
ATOM     30  C   UNL     1       4.645  -1.559  -4.135  0.00  0.00    +0.089 A 
ATOM     31  C   UNL     1       3.495  -2.310  -3.953  0.00  0.00    +0.084 A 
ATOM     32  C   UNL     1       2.161   0.028  -1.267  0.00  0.00    +0.047 C 
BRANCH  24  34
ATOM     33  C   UNL     1      -0.019   1.526   0.010  0.00  0.00    +0.011 C 
ATOM     34  C   UNL     1       0.002  -0.004   0.002  0.00  0.00    -0.035 C 
ATOM     35  C   UNL     1       0.742  -0.511   1.242  0.00  0.00    +0.011 C 
ATOM     36  C   UNL     1      -1.433  -0.534   0.013  0.00  0.00    +0.011 C 
ENDBRANCH  24  34
BRANCH  31  37
ATOM     37  C   UNL     1       3.254  -3.500  -4.712  0.00  0.00    +0.102 C 
ATOM     38  N   UNL     1       3.062  -4.444  -5.314  0.00  0.00    -0.191 NA
ENDBRANCH  31  37
ENDBRANCH  22  30
ENDBRANCH   1  22
TORSDOF 8
