REMARK  Name = ZINC32522632
REMARK  11 active torsions:
REMARK  status: ('A' for Active; 'I' for Inactive)
REMARK    1  A    between atoms: C_1  and  C_2
REMARK    2  A    between atoms: C_2  and  O_3
REMARK    3  A    between atoms: O_3  and  C_4
REMARK    4  A    between atoms: C_4  and  C_6
REMARK    5  A    between atoms: C_10  and  N_11
REMARK    6  A    between atoms: C_12  and  C_14
REMARK    7  A    between atoms: C_14  and  S_15
REMARK    8  A    between atoms: S_15  and  C_16
REMARK    9  A    between atoms: C_20  and  C_24
REMARK   10  A    between atoms: C_21  and  C_23
REMARK   11  A    between atoms: C_24  and  C_25
REMARK                            x       y       z     vdW  Elec       q    Type
REMARK                         _______ _______ _______ _____ _____    ______ ____
ROOT
ATOM      1  N   UNL     1      -2.734   7.103  -5.844  0.00  0.00    -0.279 N 
ATOM      2  C   UNL     1      -3.121   5.832  -5.618  0.00  0.00    +0.228 C 
ATOM      3  O   UNL     1      -4.045   5.358  -6.244  0.00  0.00    -0.275 OA
ATOM      4  H   UNL     1      -1.896   7.532  -5.277  0.00  0.00    +0.155 HD
ENDROOT
BRANCH   1   9
ATOM      5  C   UNL     1      -3.149   9.185  -7.161  0.00  0.00    +0.091 A 
ATOM      6  C   UNL     1      -3.990   9.760  -8.197  0.00  0.00    -0.021 A 
ATOM      7  C   UNL     1      -4.942   8.937  -8.687  0.00  0.00    -0.004 A 
ATOM      8  S   UNL     1      -4.728   7.419  -7.802  0.00  0.00    -0.077 S 
ATOM      9  C   UNL     1      -3.394   7.869  -6.793  0.00  0.00    +0.086 A 
ATOM     10  C   UNL     1      -5.951   9.254  -9.748  0.00  0.00    +0.043 C 
ATOM     11  C   UNL     1      -5.992  10.777  -9.938  0.00  0.00    +0.005 C 
ATOM     12  C   UNL     1      -4.557  11.297 -10.063  0.00  0.00    +0.005 C 
ATOM     13  C   UNL     1      -3.844  11.186  -8.713  0.00  0.00    +0.037 C 
BRANCH   5  14
ATOM     14  C   UNL     1      -2.080   9.964  -6.532  0.00  0.00    +0.342 C 
ATOM     15  O   UNL     1      -0.961   9.956  -7.007  0.00  0.00    -0.245 OA
BRANCH  14  16
ATOM     16  O   UNL     1      -2.337  10.690  -5.424  0.00  0.00    -0.461 OA
BRANCH  16  18
ATOM     17  C   UNL     1      -1.710  12.192  -3.613  0.00  0.00    +0.048 C 
ATOM     18  C   UNL     1      -1.230  11.437  -4.854  0.00  0.00    +0.229 C 
ENDBRANCH  16  18
ENDBRANCH  14  16
ENDBRANCH   5  14
ENDBRANCH   1   9
BRANCH   2  19
ATOM     19  C   UNL     1      -2.404   4.999  -4.587  0.00  0.00    +0.173 C 
BRANCH  19  20
ATOM     20  S   UNL     1      -3.150   3.351  -4.516  0.00  0.00    -0.077 S 
BRANCH  20  21
ATOM     21  C   UNL     1      -2.148   2.614  -3.269  0.00  0.00    +0.192 A 
ATOM     22  N   UNL     1      -2.383   1.325  -2.896  0.00  0.00    -0.183 NA
ATOM     23  C   UNL     1      -1.619   0.754  -1.941  0.00  0.00    +0.278 A 
ATOM     24  O   UNL     1      -1.815  -0.399  -1.595  0.00  0.00    -0.265 OA
ATOM     25  C   UNL     1      -0.593   1.514  -1.353  0.00  0.00    +0.044 A 
ATOM     26  C   UNL     1      -0.407   2.802  -1.762  0.00  0.00    +0.050 A 
ATOM     27  N   UNL     1      -1.183   3.320  -2.712  0.00  0.00    -0.227 NA
ATOM     28  C   UNL     1       0.678   3.641  -1.138  0.00  0.00    +0.066 C 
BRANCH  25  29
ATOM     29  C   UNL     1       0.289   0.914  -0.287  0.00  0.00    +0.077 C 
BRANCH  29  30
ATOM     30  C   UNL     1       1.436   0.183  -0.936  0.00  0.00    -0.043 A 
ATOM     31  C   UNL     1       1.280  -1.130  -1.337  0.00  0.00    +0.004 A 
ATOM     32  C   UNL     1       2.330  -1.799  -1.937  0.00  0.00    +0.000 A 
ATOM     33  C   UNL     1       3.540  -1.158  -2.126  0.00  0.00    +0.000 A 
ATOM     34  C   UNL     1       3.698   0.154  -1.719  0.00  0.00    +0.000 A 
ATOM     35  C   UNL     1       2.646   0.825  -1.124  0.00  0.00    +0.004 A 
ENDBRANCH  29  30
ENDBRANCH  25  29
ENDBRANCH  20  21
ENDBRANCH  19  20
ENDBRANCH   2  19
TORSDOF 9
