REMARK  Name = ZINC39835139
REMARK  7 active torsions:
REMARK  status: ('A' for Active; 'I' for Inactive)
REMARK    1  A    between atoms: C_1  and  C_2
REMARK    2  A    between atoms: C_5  and  C_8
REMARK    3  A    between atoms: C_8  and  C_10
REMARK    4  A    between atoms: C_15  and  C_17
REMARK    5  A    between atoms: C_26  and  S_28
REMARK    6  A    between atoms: S_28  and  C_29
REMARK    7  A    between atoms: C_29  and  C_30
REMARK                            x       y       z     vdW  Elec       q    Type
REMARK                         _______ _______ _______ _____ _____    ______ ____
ROOT
ATOM      1  C   UNL     1       0.022  -5.296   1.293  0.00  0.00    +0.077 C 
ATOM      2  C   UNL     1       0.183  -6.616   1.556  0.00  0.00    +0.250 C 
ATOM      3  C   UNL     1       0.371  -6.802   3.009  0.00  0.00    +0.293 C 
ATOM      4  O   UNL     1       0.541  -7.872   3.558  0.00  0.00    -0.266 OA
ATOM      5  N   UNL     1       0.326  -5.611   3.634  0.00  0.00    -0.230 N 
ATOM      6  C   UNL     1       0.111  -4.575   2.617  0.00  0.00    +0.152 C 
ATOM      7  C   UNL     1       0.463  -5.400   5.001  0.00  0.00    +0.192 A 
ATOM      8  N   UNL     1       0.426  -4.274   5.695  0.00  0.00    -0.125 NA
ATOM      9  N   UNL     1       0.571  -4.257   6.948  0.00  0.00    -0.133 NA
ATOM     10  C   UNL     1       0.769  -5.366   7.646  0.00  0.00    +0.160 A 
ATOM     11  S   UNL     1       0.733  -6.575   6.325  0.00  0.00    -0.024 S 
ATOM     12  O   UNL     1       0.174  -7.606   0.633  0.00  0.00    -0.282 OA
ENDROOT
BRANCH   6  13
ATOM     13  C   UNL     1      -1.175  -3.840   2.894  0.00  0.00    -0.022 A 
ATOM     14  C   UNL     1      -2.303  -4.541   3.278  0.00  0.00    +0.006 A 
ATOM     15  C   UNL     1      -3.482  -3.867   3.533  0.00  0.00    +0.000 A 
ATOM     16  C   UNL     1      -3.534  -2.491   3.403  0.00  0.00    +0.000 A 
ATOM     17  C   UNL     1      -2.406  -1.790   3.020  0.00  0.00    +0.000 A 
ATOM     18  C   UNL     1      -1.225  -2.464   2.770  0.00  0.00    +0.006 A 
ENDBRANCH   6  13
BRANCH   1  19
ATOM     19  C   UNL     1      -0.191  -4.687  -0.022  0.00  0.00    +0.195 C 
ATOM     20  O   UNL     1      -1.200  -4.938  -0.653  0.00  0.00    -0.287 OA
BRANCH  19  25
ATOM     21  C   UNL     1       3.748  -1.102  -2.203  0.00  0.00    +0.044 C 
ATOM     22  C   UNL     1       2.717  -2.041  -1.632  0.00  0.00    -0.050 A 
ATOM     23  C   UNL     1       1.519  -2.235  -2.297  0.00  0.00    +0.004 A 
ATOM     24  C   UNL     1       0.571  -3.093  -1.780  0.00  0.00    +0.012 A 
ATOM     25  C   UNL     1       0.822  -3.766  -0.583  0.00  0.00    +0.022 A 
ATOM     26  C   UNL     1       2.033  -3.566   0.083  0.00  0.00    +0.012 A 
ATOM     27  C   UNL     1       2.974  -2.709  -0.448  0.00  0.00    +0.004 A 
ENDBRANCH  19  25
ENDBRANCH   1  19
BRANCH  10  28
ATOM     28  S   UNL     1       0.995  -5.589   9.379  0.00  0.00    -0.092 S 
BRANCH  28  29
ATOM     29  C   UNL     1       0.898  -3.908  10.054  0.00  0.00    +0.111 C 
BRANCH  29  30
ATOM     30  C   UNL     1       1.078  -3.956  11.550  0.00  0.00    -0.037 A 
ATOM     31  C   UNL     1      -0.021  -4.108  12.374  0.00  0.00    +0.004 A 
ATOM     32  C   UNL     1       0.144  -4.152  13.746  0.00  0.00    +0.000 A 
ATOM     33  C   UNL     1       1.409  -4.045  14.293  0.00  0.00    +0.000 A 
ATOM     34  C   UNL     1       2.509  -3.894  13.469  0.00  0.00    +0.000 A 
ATOM     35  C   UNL     1       2.344  -3.854  12.097  0.00  0.00    +0.004 A 
ENDBRANCH  29  30
ENDBRANCH  28  29
ENDBRANCH  10  28
TORSDOF 6
