REMARK  Name = ZINC02845130
REMARK  9 active torsions:
REMARK  status: ('A' for Active; 'I' for Inactive)
REMARK    1  A    between atoms: C_1  and  C_2
REMARK    2  A    between atoms: C_5  and  S_8
REMARK    3  A    between atoms: S_8  and  N_11
REMARK    4  A    between atoms: N_11  and  C_12
REMARK    5  A    between atoms: N_11  and  C_26
REMARK    6  A    between atoms: C_12  and  C_13
REMARK    7  A    between atoms: N_15  and  C_16
REMARK    8  A    between atoms: C_20  and  C_22
REMARK    9  A    between atoms: C_30  and  N_32
REMARK                            x       y       z     vdW  Elec       q    Type
REMARK                         _______ _______ _______ _____ _____    ______ ____
ROOT
ATOM      1  N   UNL     1       2.367   7.972   0.305  0.00  0.00    -0.194 N 
ENDROOT
BRANCH   1   2
ATOM      2  C   UNL     1       3.088   8.106   1.494  0.00  0.00    +0.054 A 
ATOM      3  C   UNL     1       4.186   8.955   1.550  0.00  0.00    +0.025 A 
ATOM      4  C   UNL     1       4.894   9.089   2.728  0.00  0.00    +0.004 A 
ATOM      5  C   UNL     1       4.516   8.372   3.849  0.00  0.00    +0.033 A 
ATOM      6  C   UNL     1       3.426   7.522   3.795  0.00  0.00    +0.128 A 
ATOM      7  C   UNL     1       2.711   7.388   2.621  0.00  0.00    +0.057 A 
BRANCH   6   8
ATOM      8  N   UNL     1       3.026   6.757   4.997  0.00  0.00    +0.056 N 
ATOM      9  O   UNL     1       2.066   6.008   4.950  0.00  0.00    -0.126 OA
ATOM     10  O   UNL     1       3.656   6.875   6.032  0.00  0.00    -0.126 OA
ENDBRANCH   6   8
ENDBRANCH   1   2
BRANCH   1  11
ATOM     11  S   UNL     1       3.107   8.259  -1.149  0.00  0.00    +0.075 S 
ATOM     12  O   UNL     1       4.490   7.994  -0.960  0.00  0.00    -0.150 OA
ATOM     13  O   UNL     1       2.332   7.594  -2.137  0.00  0.00    -0.150 OA
BRANCH  11  18
ATOM     14  C   UNL     1       2.619  14.168  -2.263  0.00  0.00    +0.044 C 
ATOM     15  C   UNL     1       2.741  12.692  -1.985  0.00  0.00    -0.050 A 
ATOM     16  C   UNL     1       3.899  12.188  -1.423  0.00  0.00    +0.005 A 
ATOM     17  C   UNL     1       4.011  10.834  -1.168  0.00  0.00    +0.029 A 
ATOM     18  C   UNL     1       2.964   9.985  -1.474  0.00  0.00    +0.109 A 
ATOM     19  C   UNL     1       1.808  10.488  -2.040  0.00  0.00    +0.029 A 
ATOM     20  C   UNL     1       1.694  11.843  -2.291  0.00  0.00    +0.005 A 
ENDBRANCH  11  18
ENDBRANCH   1  11
BRANCH   1  21
ATOM     21  C   UNL     1       0.957   7.577   0.344  0.00  0.00    +0.227 C 
BRANCH  21  22
ATOM     22  C   UNL     1       0.858   6.074   0.405  0.00  0.00    +0.236 C 
ATOM     23  O   UNL     1       1.865   5.400   0.415  0.00  0.00    -0.274 OA
ATOM     24  N   UNL     1      -0.351   5.480   0.449  0.00  0.00    -0.284 N 
ATOM     25  H   UNL     1      -1.157   6.014   0.369  0.00  0.00    +0.155 HD
BRANCH  24  26
ATOM     26  C   UNL     1      -0.444   4.093   0.608  0.00  0.00    +0.034 A 
ATOM     27  C   UNL     1       0.504   3.261   0.027  0.00  0.00    +0.023 A 
ATOM     28  C   UNL     1       0.410   1.892   0.187  0.00  0.00    +0.002 A 
ATOM     29  C   UNL     1      -0.627   1.350   0.924  0.00  0.00    +0.012 A 
ATOM     30  C   UNL     1      -1.575   2.176   1.500  0.00  0.00    +0.057 A 
ATOM     31  C   UNL     1      -1.483   3.546   1.349  0.00  0.00    +0.035 A 
BRANCH  30  32
ATOM     32  C   UNL     1      -2.706   1.581   2.298  0.00  0.00    +0.417 C 
ATOM     33  F   UNL     1      -2.583   0.187   2.314  0.00  0.00    -0.166 F 
ATOM     34  F   UNL     1      -2.659   2.068   3.609  0.00  0.00    -0.166 F 
ATOM     35  F   UNL     1      -3.926   1.934   1.713  0.00  0.00    -0.166 F 
ENDBRANCH  30  32
ENDBRANCH  24  26
ENDBRANCH  21  22
ENDBRANCH   1  21
TORSDOF 8
