REMARK  Name = ZINC59337003
REMARK  11 active torsions:
REMARK  status: ('A' for Active; 'I' for Inactive)
REMARK    1  A    between atoms: C_1  and  C_2
REMARK    2  A    between atoms: C_2  and  C_3
REMARK    3  A    between atoms: C_3  and  C_4
REMARK    4  A    between atoms: C_4  and  C_5
REMARK    5  A    between atoms: C_5  and  C_28
REMARK    6  A    between atoms: C_10  and  C_11
REMARK    7  A    between atoms: C_13  and  O_23
REMARK    8  A    between atoms: C_14  and  O_18
REMARK    9  A    between atoms: O_18  and  C_19
REMARK   10  A    between atoms: C_19  and  C_20
REMARK   11  A    between atoms: O_23  and  C_24
REMARK                            x       y       z     vdW  Elec       q    Type
REMARK                         _______ _______ _______ _____ _____    ______ ____
ROOT
ATOM      1  C   UNL     1      -2.815  -2.395   0.117  0.00  0.00    +0.257 C 
ATOM      2  O   UNL     1      -3.466  -1.749  -0.984  0.00  0.00    -0.419 OA
ATOM      3  C   UNL     1      -4.765  -2.105  -1.186  0.00  0.00    +0.349 C 
ATOM      4  O   UNL     1      -5.206  -2.372  -2.287  0.00  0.00    -0.245 OA
ATOM      5  C   UNL     1      -5.604  -2.141   0.043  0.00  0.00    +0.143 C 
ATOM      6  C   UNL     1      -6.943  -1.804   0.048  0.00  0.00    +0.030 C 
ATOM      7  C   UNL     1      -4.873  -2.575   1.264  0.00  0.00    +0.349 C 
ATOM      8  O   UNL     1      -5.401  -3.223   2.147  0.00  0.00    -0.245 OA
ATOM      9  O   UNL     1      -3.567  -2.191   1.319  0.00  0.00    -0.419 OA
ATOM     10  C   UNL     1      -2.710  -3.895  -0.168  0.00  0.00    +0.104 C 
ENDROOT
BRANCH   6  11
ATOM     11  C   UNL     1      -7.665  -1.696   1.317  0.00  0.00    -0.019 A 
ATOM     12  C   UNL     1      -6.995  -1.269   2.474  0.00  0.00    +0.057 A 
ATOM     13  C   UNL     1      -7.682  -1.170   3.666  0.00  0.00    +0.163 A 
ATOM     14  C   UNL     1      -9.039  -1.494   3.720  0.00  0.00    +0.176 A 
ATOM     15  C   UNL     1      -9.704  -1.916   2.575  0.00  0.00    +0.059 A 
ATOM     16  C   UNL     1      -9.030  -2.013   1.379  0.00  0.00    +0.026 A 
ATOM     17  I   UNL     1     -11.740  -2.400   2.669  0.00  0.00    -0.040 I 
BRANCH  13  18
ATOM     18  O   UNL     1      -7.036  -0.757   4.789  0.00  0.00    -0.491 OA
ATOM     19  C   UNL     1      -5.648  -0.443   4.661  0.00  0.00    +0.277 C 
ENDBRANCH  13  18
BRANCH  14  20
ATOM     20  O   UNL     1      -9.711  -1.396   4.895  0.00  0.00    -0.476 OA
BRANCH  20  21
ATOM     21  C   UNL     1     -10.331  -0.141   5.185  0.00  0.00    +0.354 C 
BRANCH  21  22
ATOM     22  C   UNL     1     -11.024  -0.221   6.521  0.00  0.00    +0.393 C 
ATOM     23  O   UNL     1     -10.990  -1.255   7.165  0.00  0.00    -0.243 OA
ATOM     24  O   UNL     1     -11.619   0.750   6.958  0.00  0.00    -0.243 OA
ENDBRANCH  21  22
ENDBRANCH  20  21
ENDBRANCH  14  20
ENDBRANCH   6  11
BRANCH   1  25
ATOM     25  C   UNL     1      -1.412  -1.812   0.291  0.00  0.00    +0.093 C 
BRANCH  25  26
ATOM     26  C   UNL     1      -1.515  -0.313   0.581  0.00  0.00    +0.007 C 
BRANCH  26  28
ATOM     27  C   UNL     1      -0.214   1.769   1.045  0.00  0.00    +0.004 C 
ATOM     28  C   UNL     1      -0.111   0.271   0.755  0.00  0.00    -0.003 C 
ENDBRANCH  26  28
ENDBRANCH  25  26
ENDBRANCH   1  25
TORSDOF 8
