REMARK  Name = ZINC32609573
REMARK  8 active torsions:
REMARK  status: ('A' for Active; 'I' for Inactive)
REMARK    1  A    between atoms: C_1  and  C_2
REMARK    2  A    between atoms: C_5  and  S_8
REMARK    3  A    between atoms: S_8  and  C_11
REMARK    4  A    between atoms: C_12  and  N_26
REMARK    5  A    between atoms: C_14  and  S_16
REMARK    6  A    between atoms: S_16  and  C_19
REMARK    7  A    between atoms: C_22  and  C_25
REMARK    8  A    between atoms: C_29  and  C_32
REMARK                            x       y       z     vdW  Elec       q    Type
REMARK                         _______ _______ _______ _____ _____    ______ ____
ROOT
ATOM      1  C   UNL     1      -1.033  -0.897   0.090  0.00  0.00    +0.212 A 
ATOM      2  C   UNL     1      -0.094  -0.589   1.030  0.00  0.00    +0.116 A 
ATOM      3  S   UNL     1       1.336  -1.417   0.346  0.00  0.00    -0.032 S 
ATOM      4  C   UNL     1       0.529  -2.086  -1.103  0.00  0.00    +0.224 A 
ATOM      5  N   UNL     1      -0.696  -1.635  -0.948  0.00  0.00    -0.201 NA
ENDROOT
BRANCH   2   6
ATOM      6  N   UNL     1      -0.214   0.167   2.198  0.00  0.00    -0.322 N 
ATOM      7  C   UNL     1       0.611   1.380   2.127  0.00  0.00    +0.106 C 
ATOM      8  C   UNL     1       0.344   2.253   3.355  0.00  0.00    +0.031 C 
ATOM      9  C   UNL     1       0.678   1.460   4.621  0.00  0.00    +0.078 C 
ATOM     10  C   UNL     1      -0.158   0.178   4.647  0.00  0.00    +0.031 C 
ATOM     11  C   UNL     1       0.123  -0.635   3.381  0.00  0.00    +0.106 C 
BRANCH   9  12
ATOM     12  C   UNL     1       0.362   2.293   5.837  0.00  0.00    +0.214 C 
ATOM     13  O   UNL     1      -0.452   1.900   6.645  0.00  0.00    -0.276 OA
ATOM     14  N   UNL     1       0.984   3.473   6.026  0.00  0.00    -0.329 N 
ATOM     15  H   UNL     1       0.753   4.081   6.913  0.00  0.00    +0.145 HD
ATOM     16  H   UNL     1       1.723   3.829   5.292  0.00  0.00    +0.145 HD
ENDBRANCH   9  12
ENDBRANCH   2   6
BRANCH   1  17
ATOM     17  S   UNL     1      -2.686  -0.311   0.262  0.00  0.00    +0.044 S 
ATOM     18  O   UNL     1      -2.609   0.918   0.971  0.00  0.00    -0.163 OA
ATOM     19  O   UNL     1      -3.289  -0.414  -1.021  0.00  0.00    -0.163 OA
BRANCH  17  24
ATOM     20  C   UNL     1      -5.592  -4.196   3.849  0.00  0.00    +0.044 C 
ATOM     21  C   UNL     1      -4.866  -3.225   2.953  0.00  0.00    -0.050 A 
ATOM     22  C   UNL     1      -4.301  -2.082   3.486  0.00  0.00    +0.005 A 
ATOM     23  C   UNL     1      -3.636  -1.192   2.665  0.00  0.00    +0.028 A 
ATOM     24  C   UNL     1      -3.534  -1.446   1.309  0.00  0.00    +0.095 A 
ATOM     25  C   UNL     1      -4.104  -2.586   0.775  0.00  0.00    +0.028 A 
ATOM     26  C   UNL     1      -4.766  -3.478   1.598  0.00  0.00    +0.005 A 
ENDBRANCH  17  24
ENDBRANCH   1  17
BRANCH   4  27
ATOM     27  S   UNL     1       1.199  -3.078  -2.396  0.00  0.00    +0.049 S 
ATOM     28  O   UNL     1       2.334  -3.739  -1.854  0.00  0.00    -0.162 OA
ATOM     29  O   UNL     1       0.109  -3.784  -2.972  0.00  0.00    -0.162 OA
BRANCH  27  30
ATOM     30  C   UNL     1       1.799  -1.980  -3.636  0.00  0.00    +0.096 A 
ATOM     31  C   UNL     1       0.967  -1.576  -4.663  0.00  0.00    +0.028 A 
ATOM     32  C   UNL     1       1.437  -0.712  -5.635  0.00  0.00    +0.005 A 
ATOM     33  C   UNL     1       2.742  -0.258  -5.583  0.00  0.00    -0.050 A 
ATOM     34  C   UNL     1       3.576  -0.667  -4.559  0.00  0.00    +0.005 A 
ATOM     35  C   UNL     1       3.105  -1.528  -3.586  0.00  0.00    +0.028 A 
ATOM     36  C   UNL     1       3.256   0.681  -6.644  0.00  0.00    +0.044 C 
ENDBRANCH  27  30
ENDBRANCH   4  27
TORSDOF 6
