REMARK  Name = ZINC39679239
REMARK  5 active torsions:
REMARK  status: ('A' for Active; 'I' for Inactive)
REMARK    1  A    between atoms: C_4  and  N_16
REMARK    2  A    between atoms: C_6  and  S_7
REMARK    3  A    between atoms: S_7  and  N_10
REMARK    4  A    between atoms: C_17  and  C_19
REMARK    5  A    between atoms: C_26  and  C_28
REMARK                            x       y       z     vdW  Elec       q    Type
REMARK                         _______ _______ _______ _____ _____    ______ ____
ROOT
ATOM      1  C   UNL     1       0.687   2.184  -0.210  0.00  0.00    +0.030 A 
ATOM      2  C   UNL     1       1.851   2.631   0.387  0.00  0.00    +0.024 A 
ATOM      3  C   UNL     1       2.971   1.821   0.413  0.00  0.00    +0.062 A 
ATOM      4  C   UNL     1       2.924   0.556  -0.162  0.00  0.00    +0.054 A 
ATOM      5  C   UNL     1       1.753   0.111  -0.760  0.00  0.00    +0.053 A 
ATOM      6  C   UNL     1       0.638   0.926  -0.783  0.00  0.00    +0.107 A 
ATOM      7 CL   UNL     1       4.433   2.383   1.161  0.00  0.00    -0.082 Cl
ENDROOT
BRANCH   4   8
ATOM      8  N   UNL     1       4.056  -0.267  -0.138  0.00  0.00    -0.284 N 
ATOM      9  C   UNL     1       3.915  -1.607  -0.141  0.00  0.00    +0.222 C 
ATOM     10  O   UNL     1       2.816  -2.101  -0.285  0.00  0.00    -0.275 OA
ATOM     11  H   UNL     1       4.942   0.127  -0.119  0.00  0.00    +0.155 HD
BRANCH   9  12
ATOM     12  C   UNL     1       5.122  -2.493   0.036  0.00  0.00    +0.096 C 
ATOM     13  C   UNL     1       4.718  -3.998  -0.069  0.00  0.00    +0.025 C 
ATOM     14  C   UNL     1       5.872  -4.660   0.770  0.00  0.00    +0.016 C 
ATOM     15  C   UNL     1       5.552  -3.808   2.053  0.00  0.00    +0.027 C 
ATOM     16  C   UNL     1       5.688  -2.361   1.471  0.00  0.00    +0.121 C 
ATOM     17  C   UNL     1       4.038  -4.033   2.145  0.00  0.00    -0.027 C 
ATOM     18  C   UNL     1       3.543  -4.138   0.906  0.00  0.00    -0.027 C 
BRANCH  16  19
ATOM     19  C   UNL     1       4.870  -1.385   2.276  0.00  0.00    +0.360 C 
ATOM     20  O   UNL     1       3.718  -1.654   2.572  0.00  0.00    -0.246 OA
ATOM     21  O   UNL     1       5.359  -0.327   2.632  0.00  0.00    -0.246 OA
ENDBRANCH  16  19
ENDBRANCH   9  12
ENDBRANCH   4   8
BRANCH   6  22
ATOM     22  S   UNL     1      -0.849   0.362  -1.542  0.00  0.00    +0.061 S 
ATOM     23  O   UNL     1      -0.801  -1.058  -1.521  0.00  0.00    -0.153 OA
ATOM     24  O   UNL     1      -1.911   1.097  -0.950  0.00  0.00    -0.153 OA
BRANCH  22  25
ATOM     25  N   UNL     1      -0.789   0.815  -3.133  0.00  0.00    -0.177 NA
ATOM     26  C   UNL     1      -1.319   2.117  -3.562  0.00  0.00    +0.109 C 
ATOM     27  C   UNL     1      -0.230   2.861  -4.340  0.00  0.00    +0.017 C 
ATOM     28  C   UNL     1       0.267   1.977  -5.486  0.00  0.00    +0.003 C 
ATOM     29  C   UNL     1       0.873   0.692  -4.916  0.00  0.00    +0.017 C 
ATOM     30  C   UNL     1      -0.198  -0.074  -4.143  0.00  0.00    +0.109 C 
ENDBRANCH  22  25
ENDBRANCH   6  22
TORSDOF 5
