REMARK  Name = ZINC09410831
REMARK  9 active torsions:
REMARK  status: ('A' for Active; 'I' for Inactive)
REMARK    1  A    between atoms: C_1  and  C_2
REMARK    2  A    between atoms: C_6  and  C_9
REMARK    3  A    between atoms: C_10  and  C_11
REMARK    4  A    between atoms: C_10  and  N_56
REMARK    5  A    between atoms: C_11  and  O_12
REMARK    6  A    between atoms: O_12  and  C_13
REMARK    7  A    between atoms: C_16  and  C_20
REMARK    8  A    between atoms: C_17  and  O_19
REMARK    9  A    between atoms: C_21  and  C_26
REMARK                            x       y       z     vdW  Elec       q    Type
REMARK                         _______ _______ _______ _____ _____    ______ ____
ROOT
ATOM      1  C   UNL     1       3.256   6.111  -0.598  0.00  0.00    +0.124 A 
ATOM      2  C   UNL     1       1.884   6.300  -0.495  0.00  0.00    +0.046 A 
ATOM      3  C   UNL     1       1.043   5.215  -0.365  0.00  0.00    +0.017 A 
ATOM      4  C   UNL     1       1.570   3.926  -0.324  0.00  0.00    +0.044 A 
ATOM      5  C   UNL     1       2.952   3.736  -0.427  0.00  0.00    +0.130 A 
ATOM      6  C   UNL     1       3.789   4.831  -0.563  0.00  0.00    +0.091 A 
ENDROOT
BRANCH   4   7
ATOM      7  C   UNL     1       0.669   2.758  -0.177  0.00  0.00    +0.104 A 
ATOM      8  C   UNL     1      -0.377   2.624   0.770  0.00  0.00    +0.027 A 
ATOM      9  C   UNL     1      -0.962   1.410   0.565  0.00  0.00    +0.114 A 
ATOM     10  N   UNL     1      -0.314   0.806  -0.452  0.00  0.00    -0.284 N 
ATOM     11  H   UNL     1      -0.521  -0.101  -0.821  0.00  0.00    +0.188 HD
ATOM     12  N   UNL     1       0.697   1.662  -0.904  0.00  0.00    -0.173 NA
BRANCH   8  13
ATOM     13  C   UNL     1      -0.768   3.624   1.793  0.00  0.00    -0.014 A 
ATOM     14  C   UNL     1       0.173   4.090   2.710  0.00  0.00    +0.010 A 
ATOM     15  C   UNL     1      -0.195   5.024   3.657  0.00  0.00    +0.016 A 
ATOM     16  C   UNL     1      -1.497   5.491   3.704  0.00  0.00    +0.018 A 
ATOM     17  C   UNL     1      -2.436   5.028   2.799  0.00  0.00    +0.016 A 
ATOM     18  C   UNL     1      -2.078   4.097   1.845  0.00  0.00    +0.010 A 
ATOM     19 BR   UNL     1      -1.994   6.766   5.009  0.00  0.00    -0.050 Br
ENDBRANCH   8  13
ENDBRANCH   4   7
BRANCH   5  20
ATOM     20  O   UNL     1       3.472   2.482  -0.394  0.00  0.00    -0.506 OA
ATOM     21  H   UNL     1       3.550   2.065  -1.263  0.00  0.00    +0.292 HD
ENDBRANCH   5  20
BRANCH   1  22
ATOM     22  O   UNL     1       4.080   7.184  -0.732  0.00  0.00    -0.494 OA
BRANCH  22  23
ATOM     23  C   UNL     1       3.465   8.474  -0.760  0.00  0.00    +0.210 C 
BRANCH  23  24
ATOM     24  C   UNL     1       4.542   9.549  -0.915  0.00  0.00    -0.037 C 
BRANCH  24  32
ATOM     25  C   UNL     1       4.238  10.217  -5.782  0.00  0.00    +0.036 C 
ATOM     26  C   UNL     1       5.078   9.636  -4.642  0.00  0.00    +0.099 C 
ATOM     27  C   UNL     1       4.367   9.879  -3.308  0.00  0.00    -0.047 C 
ATOM     28  C   UNL     1       6.519  10.062  -2.217  0.00  0.00    -0.047 C 
ATOM     29  C   UNL     1       7.208   9.817  -3.562  0.00  0.00    +0.099 C 
ATOM     30  O   UNL     1       6.358  10.273  -4.618  0.00  0.00    -0.378 OA
ATOM     31  C   UNL     1       7.478   8.321  -3.735  0.00  0.00    +0.036 C 
ATOM     32  N   UNL     1       5.219   9.360  -2.217  0.00  0.00    +0.385 N 
ATOM     33  H   UNL     1       5.380   8.357  -2.366  0.00  0.00    -0.081 HD
ENDBRANCH  24  32
ENDBRANCH  23  24
ENDBRANCH  22  23
ENDBRANCH   1  22
TORSDOF 7
