REMARK  Name = ZINC15430164
REMARK  12 active torsions:
REMARK  status: ('A' for Active; 'I' for Inactive)
REMARK    1  A    between atoms: C_1  and  C_2
REMARK    2  A    between atoms: C_2  and  C_3
REMARK    3  A    between atoms: C_2  and  C_4
REMARK    4  A    between atoms: C_7  and  N_10
REMARK    5  A    between atoms: N_10  and  C_11
REMARK    6  A    between atoms: C_11  and  N_13
REMARK    7  A    between atoms: N_13  and  N_14
REMARK    8  A    between atoms: C_15  and  C_17
REMARK    9  A    between atoms: C_19  and  O_26
REMARK   10  A    between atoms: C_21  and  O_23
REMARK   11  A    between atoms: O_23  and  C_24
REMARK   12  A    between atoms: O_26  and  C_27
REMARK                            x       y       z     vdW  Elec       q    Type
REMARK                         _______ _______ _______ _____ _____    ______ ____
ROOT
ATOM      1  N   UNL     1       2.479  -4.212  -0.450  0.00  0.00    -0.245 N 
ATOM      2  H   UNL     1       1.680  -4.688  -0.724  0.00  0.00    +0.172 HD
ENDROOT
BRANCH   1   3
ATOM      3  N   UNL     1       2.393  -2.869  -0.059  0.00  0.00    -0.231 N 
ATOM      4  C   UNL     1       1.201  -2.240  -0.062  0.00  0.00    +0.260 C 
ATOM      5  O   UNL     1       0.200  -2.838  -0.406  0.00  0.00    -0.269 OA
ATOM      6  H   UNL     1       3.192  -2.392   0.216  0.00  0.00    +0.173 HD
BRANCH   4   7
ATOM      7  C   UNL     1       1.111  -0.824   0.351  0.00  0.00    +0.045 A 
ATOM      8  C   UNL     1      -0.122  -0.171   0.347  0.00  0.00    +0.060 A 
ATOM      9  C   UNL     1      -0.202   1.156   0.736  0.00  0.00    +0.138 A 
ATOM     10  C   UNL     1       0.943   1.836   1.128  0.00  0.00    +0.101 A 
ATOM     11  C   UNL     1       2.171   1.190   1.133  0.00  0.00    +0.138 A 
ATOM     12  C   UNL     1       2.260  -0.136   0.746  0.00  0.00    +0.060 A 
ATOM     13 BR   UNL     1       0.828   3.648   1.657  0.00  0.00    -0.043 Br
BRANCH  11  14
ATOM     14  O   UNL     1       3.289   1.861   1.517  0.00  0.00    -0.494 OA
ATOM     15  C   UNL     1       4.520   1.135   1.498  0.00  0.00    +0.277 C 
ENDBRANCH  11  14
BRANCH   9  16
ATOM     16  O   UNL     1      -1.402   1.794   0.727  0.00  0.00    -0.494 OA
ATOM     17  C   UNL     1      -2.538   1.035   0.307  0.00  0.00    +0.277 C 
ENDBRANCH   9  16
ENDBRANCH   4   7
ENDBRANCH   1   3
BRANCH   1  18
ATOM     18  C   UNL     1       3.671  -4.840  -0.446  0.00  0.00    +0.151 C 
ATOM     19  S   UNL     1       3.775  -6.481  -0.925  0.00  0.00    -0.017 S 
BRANCH  18  20
ATOM     20  N   UNL     1       4.781  -4.178  -0.065  0.00  0.00    -0.296 N 
ATOM     21  H   UNL     1       4.733  -3.232   0.146  0.00  0.00    +0.154 HD
BRANCH  20  25
ATOM     22  C   UNL     1       8.419  -6.189   0.203  0.00  0.00    -0.045 A 
ATOM     23  C   UNL     1       7.608  -6.374  -0.902  0.00  0.00    +0.006 A 
ATOM     24  C   UNL     1       6.402  -5.709  -0.994  0.00  0.00    +0.023 A 
ATOM     25  C   UNL     1       6.002  -4.853   0.025  0.00  0.00    +0.033 A 
ATOM     26  C   UNL     1       6.821  -4.666   1.131  0.00  0.00    +0.023 A 
ATOM     27  C   UNL     1       8.024  -5.338   1.219  0.00  0.00    +0.006 A 
BRANCH  22  29
ATOM     28  C   UNL     1      10.874  -5.901   0.395  0.00  0.00    +0.012 C 
ATOM     29  C   UNL     1       9.735  -6.917   0.300  0.00  0.00    +0.013 C 
ATOM     30  C   UNL     1       9.737  -7.803   1.548  0.00  0.00    +0.012 C 
ENDBRANCH  22  29
ENDBRANCH  20  25
ENDBRANCH  18  20
ENDBRANCH   1  18
TORSDOF 8
