REMARK  Name = ZINC21089785
REMARK  8 active torsions:
REMARK  status: ('A' for Active; 'I' for Inactive)
REMARK    1  A    between atoms: C_1  and  C_2
REMARK    2  A    between atoms: C_3  and  C_20
REMARK    3  A    between atoms: C_4  and  C_12
REMARK    4  A    between atoms: C_15  and  S_18
REMARK    5  A    between atoms: S_18  and  C_19
REMARK    6  A    between atoms: N_22  and  C_23
REMARK    7  A    between atoms: C_26  and  O_29
REMARK    8  A    between atoms: O_29  and  C_30
REMARK                            x       y       z     vdW  Elec       q    Type
REMARK                         _______ _______ _______ _____ _____    ______ ____
ROOT
ATOM      1  C   UNL     1      -5.195   2.003   2.341  0.00  0.00    +0.061 C 
ATOM      2  C   UNL     1      -4.351   1.906   1.097  0.00  0.00    +0.018 C 
ATOM      3  C   UNL     1      -3.139   1.337   1.178  0.00  0.00    +0.060 C 
ATOM      4  C   UNL     1      -2.214   1.202  -0.002  0.00  0.00    +0.177 C 
ATOM      5  N   UNL     1      -2.944   1.502  -1.230  0.00  0.00    -0.221 N 
ATOM      6  C   UNL     1      -4.176   2.069  -1.251  0.00  0.00    +0.218 A 
ATOM      7  N   UNL     1      -4.534   2.207  -2.498  0.00  0.00    -0.201 NA
ATOM      8  C   UNL     1      -3.569   1.739  -3.296  0.00  0.00    +0.247 A 
ATOM      9  N   UNL     1      -2.579   1.297  -2.559  0.00  0.00    -0.156 NA
ATOM     10  N   UNL     1      -4.849   2.402  -0.084  0.00  0.00    -0.287 N 
ATOM     11  H   UNL     1      -5.747   3.038  -0.078  0.00  0.00    +0.155 HD
ENDROOT
BRANCH   4  12
ATOM     12  C   UNL     1      -1.065   2.165   0.148  0.00  0.00    -0.018 A 
ATOM     13  C   UNL     1       0.232   1.688   0.206  0.00  0.00    +0.007 A 
ATOM     14  C   UNL     1       1.288   2.568   0.338  0.00  0.00    +0.015 A 
ATOM     15  C   UNL     1       1.046   3.934   0.417  0.00  0.00    +0.008 A 
ATOM     16  C   UNL     1      -0.259   4.410   0.364  0.00  0.00    +0.015 A 
ATOM     17  C   UNL     1      -1.310   3.523   0.233  0.00  0.00    +0.007 A 
BRANCH  15  18
ATOM     18  S   UNL     1       2.390   5.062   0.585  0.00  0.00    -0.129 S 
ATOM     19  C   UNL     1       1.592   6.690   0.646  0.00  0.00    +0.090 C 
ENDBRANCH  15  18
ENDBRANCH   4  12
BRANCH   3  20
ATOM     20  C   UNL     1      -2.711   0.841   2.432  0.00  0.00    +0.248 C 
ATOM     21  O   UNL     1      -2.779  -0.351   2.670  0.00  0.00    -0.270 OA
ATOM     22  N   UNL     1      -2.226   1.688   3.362  0.00  0.00    -0.282 N 
ATOM     23  H   UNL     1      -2.234   2.772   3.175  0.00  0.00    +0.155 HD
BRANCH  22  24
ATOM     24  C   UNL     1      -1.714   1.187   4.565  0.00  0.00    +0.034 A 
ATOM     25  C   UNL     1      -2.299   0.078   5.162  0.00  0.00    +0.027 A 
ATOM     26  C   UNL     1      -1.790  -0.417   6.346  0.00  0.00    +0.047 A 
ATOM     27  C   UNL     1      -0.701   0.199   6.945  0.00  0.00    +0.120 A 
ATOM     28  C   UNL     1      -0.119   1.310   6.352  0.00  0.00    +0.047 A 
ATOM     29  C   UNL     1      -0.624   1.804   5.165  0.00  0.00    +0.027 A 
BRANCH  27  30
ATOM     30  O   UNL     1      -0.204  -0.287   8.114  0.00  0.00    -0.495 OA
ATOM     31  C   UNL     1      -0.852  -1.433   8.668  0.00  0.00    +0.277 C 
ENDBRANCH  27  30
ENDBRANCH  22  24
ENDBRANCH   3  20
TORSDOF 5
