REMARK  Name = ZINC22643402
REMARK  8 active torsions:
REMARK  status: ('A' for Active; 'I' for Inactive)
REMARK    1  A    between atoms: C_1  and  C_2
REMARK    2  A    between atoms: C_2  and  C_4
REMARK    3  A    between atoms: C_7  and  S_10
REMARK    4  A    between atoms: S_10  and  N_13
REMARK    5  A    between atoms: N_13  and  C_14
REMARK    6  A    between atoms: C_17  and  C_20
REMARK    7  A    between atoms: N_22  and  C_23
REMARK    8  A    between atoms: C_32  and  C_34
REMARK                            x       y       z     vdW  Elec       q    Type
REMARK                         _______ _______ _______ _____ _____    ______ ____
ROOT
ATOM      1  C   UNL     1       1.370   2.479   0.005  0.00  0.00    +0.074 A 
ATOM      2  C   UNL     1       2.583   1.997   0.490  0.00  0.00    +0.027 A 
ATOM      3  C   UNL     1       3.742   2.707   0.277  0.00  0.00    +0.015 A 
ATOM      4  C   UNL     1       3.699   3.919  -0.419  0.00  0.00    +0.037 A 
ATOM      5  C   UNL     1       2.479   4.403  -0.900  0.00  0.00    +0.015 A 
ATOM      6  C   UNL     1       1.324   3.686  -0.688  0.00  0.00    +0.027 A 
ENDROOT
BRANCH   4   7
ATOM      7  C   UNL     1       4.939   4.686  -0.643  0.00  0.00    +0.248 C 
ATOM      8  O   UNL     1       4.900   5.740  -1.248  0.00  0.00    -0.270 OA
ATOM      9  N   UNL     1       6.114   4.218  -0.179  0.00  0.00    -0.281 N 
ATOM     10  H   UNL     1       6.138   3.309   0.440  0.00  0.00    +0.155 HD
BRANCH   9  11
ATOM     11  C   UNL     1       7.305   4.888  -0.485  0.00  0.00    +0.034 A 
ATOM     12  C   UNL     1       8.350   4.907   0.429  0.00  0.00    +0.025 A 
ATOM     13  C   UNL     1       9.522   5.566   0.127  0.00  0.00    +0.025 A 
ATOM     14  C   UNL     1       9.668   6.221  -1.098  0.00  0.00    +0.040 A 
ATOM     15  C   UNL     1       8.621   6.199  -2.005  0.00  0.00    -0.023 A 
ATOM     16  C   UNL     1       7.448   5.532  -1.707  0.00  0.00    +0.028 A 
ATOM     17  C   UNL     1       9.034   6.973  -3.236  0.00  0.00    +0.056 C 
ATOM     18  C   UNL     1      10.462   7.453  -2.932  0.00  0.00    +0.118 C 
ATOM     19  N   UNL     1      10.763   6.940  -1.593  0.00  0.00    -0.271 N 
ATOM     20  C   UNL     1      11.923   7.132  -0.934  0.00  0.00    +0.217 C 
ATOM     21  O   UNL     1      12.814   7.773  -1.450  0.00  0.00    -0.276 OA
ATOM     22  C   UNL     1      12.112   6.552   0.444  0.00  0.00    +0.109 C 
ENDBRANCH   9  11
ENDBRANCH   4   7
BRANCH   1  23
ATOM     23  N   UNL     1       0.201   1.756   0.218  0.00  0.00    -0.098 NA
BRANCH  23  24
ATOM     24  S   UNL     1       0.180   0.121  -0.042  0.00  0.00    +0.092 S 
ATOM     25  O   UNL     1       1.283  -0.418   0.674  0.00  0.00    -0.148 OA
ATOM     26  O   UNL     1      -1.157  -0.308   0.182  0.00  0.00    -0.148 OA
BRANCH  24  30
ATOM     27  C   UNL     1       1.037  -0.550  -4.441  0.00  0.00    +0.017 A 
ATOM     28  C   UNL     1       2.075  -0.611  -3.505  0.00  0.00    +0.013 A 
ATOM     29  C   UNL     1       1.806  -0.406  -2.169  0.00  0.00    +0.029 A 
ATOM     30  C   UNL     1       0.513  -0.140  -1.752  0.00  0.00    +0.110 A 
ATOM     31  C   UNL     1      -0.520  -0.084  -2.671  0.00  0.00    +0.029 A 
ATOM     32  C   UNL     1      -0.267  -0.282  -4.012  0.00  0.00    +0.013 A 
BRANCH  27  34
ATOM     33  C   UNL     1       0.194  -0.702  -6.874  0.00  0.00    +0.091 C 
ATOM     34  C   UNL     1       1.315  -0.768  -5.870  0.00  0.00    +0.160 C 
ATOM     35  O   UNL     1       2.447  -1.000  -6.238  0.00  0.00    -0.292 OA
ENDBRANCH  27  34
ENDBRANCH  24  30
ENDBRANCH  23  24
ENDBRANCH   1  23
TORSDOF 6
