REMARK  Name = ZINC39667125
REMARK  12 active torsions:
REMARK  status: ('A' for Active; 'I' for Inactive)
REMARK    1  A    between atoms: C_1  and  C_2
REMARK    2  A    between atoms: C_5  and  C_9
REMARK    3  A    between atoms: C_6  and  C_8
REMARK    4  A    between atoms: C_9  and  C_10
REMARK    5  A    between atoms: C_10  and  N_11
REMARK    6  A    between atoms: C_12  and  C_14
REMARK    7  A    between atoms: C_25  and  C_27
REMARK    8  A    between atoms: C_29  and  C_36
REMARK    9  A    between atoms: N_31  and  C_32
REMARK   10  A    between atoms: C_32  and  C_33
REMARK   11  A    between atoms: C_32  and  C_34
REMARK   12  A    between atoms: C_32  and  C_35
REMARK                            x       y       z     vdW  Elec       q    Type
REMARK                         _______ _______ _______ _____ _____    ______ ____
ROOT
ATOM      1  C   UNL     1      -2.934  -8.190   0.264  0.00  0.00    +0.100 C 
ATOM      2  C   UNL     1      -2.085  -8.743   1.430  0.00  0.00    +0.121 C 
ATOM      3  N   UNL     1      -3.076  -9.155   2.452  0.00  0.00    -0.295 N 
ATOM      4  C   UNL     1      -4.183  -9.758   1.671  0.00  0.00    +0.115 C 
ATOM      5  C   UNL     1      -4.309  -8.861   0.423  0.00  0.00    -0.004 C 
ATOM      6  C   UNL     1      -5.390  -7.806   0.641  0.00  0.00    -0.010 C 
ATOM      7  C   UNL     1      -6.754  -8.493   0.740  0.00  0.00    -0.082 C 
ATOM      8  N   UNL     1      -7.017  -9.244  -0.493  0.00  0.00    +0.379 N 
ATOM      9  C   UNL     1      -6.026 -10.316  -0.647  0.00  0.00    -0.082 C 
ATOM     10  C   UNL     1      -4.631  -9.706  -0.805  0.00  0.00    -0.010 C 
ATOM     11  C   UNL     1      -2.990  -9.014   3.790  0.00  0.00    +0.265 C 
ATOM     12  O   UNL     1      -3.898  -9.398   4.501  0.00  0.00    -0.268 OA
ATOM     13  H   UNL     1      -7.941  -9.646  -0.451  0.00  0.00    -0.086 HD
ATOM     14  H   UNL     1      -6.960  -8.620  -1.284  0.00  0.00    -0.086 HD
ENDROOT
BRANCH  11  15
ATOM     15  C   UNL     1      -1.797  -8.396   4.389  0.00  0.00    +0.124 A 
ATOM     16  C   UNL     1      -0.603  -8.104   3.752  0.00  0.00    +0.057 A 
ATOM     17  C   UNL     1       0.210  -7.532   4.733  0.00  0.00    +0.061 A 
ATOM     18  N   UNL     1      -0.472  -7.499   5.850  0.00  0.00    -0.175 NA
ATOM     19  N   UNL     1      -1.647  -7.990   5.685  0.00  0.00    -0.254 N 
ATOM     20  C   UNL     1       1.621  -7.039   4.540  0.00  0.00    +0.067 C 
BRANCH  19  21
ATOM     21  C   UNL     1      -2.670  -8.100   6.728  0.00  0.00    +0.056 C 
ATOM     22  C   UNL     1      -2.973  -9.576   6.991  0.00  0.00    +0.036 C 
ATOM     23  C   UNL     1      -2.160  -7.447   8.014  0.00  0.00    +0.036 C 
ATOM     24  C   UNL     1      -3.946  -7.392   6.268  0.00  0.00    +0.036 C 
ENDBRANCH  19  21
ENDBRANCH  11  15
BRANCH   1  26
ATOM     25  N   UNL     1      -3.389  -5.963  -0.712  0.00  0.00    -0.315 N 
ATOM     26  C   UNL     1      -3.065  -6.693   0.374  0.00  0.00    +0.218 C 
ATOM     27  O   UNL     1      -2.879  -6.144   1.440  0.00  0.00    -0.275 OA
ATOM     28  H   UNL     1      -3.466  -6.391  -1.579  0.00  0.00    +0.149 HD
BRANCH  25  29
ATOM     29  C   UNL     1      -3.623  -4.522  -0.583  0.00  0.00    +0.109 C 
BRANCH  29  30
ATOM     30  C   UNL     1      -3.971  -3.938  -1.953  0.00  0.00    +0.054 C 
BRANCH  30  35
ATOM     31  C   UNL     1      -4.897   1.744  -1.441  0.00  0.00    +0.044 C 
ATOM     32  C   UNL     1      -4.655   0.262  -1.574  0.00  0.00    -0.050 A 
ATOM     33  C   UNL     1      -5.721  -0.618  -1.533  0.00  0.00    +0.003 A 
ATOM     34  C   UNL     1      -5.500  -1.977  -1.656  0.00  0.00    +0.004 A 
ATOM     35  C   UNL     1      -4.213  -2.456  -1.820  0.00  0.00    -0.043 A 
ATOM     36  C   UNL     1      -3.148  -1.576  -1.862  0.00  0.00    -0.047 A 
ATOM     37  C   UNL     1      -3.370  -0.216  -1.744  0.00  0.00    +0.007 A 
ATOM     38  C   UNL     1      -1.746  -2.098  -2.041  0.00  0.00    +0.044 C 
ENDBRANCH  30  35
ENDBRANCH  29  30
ENDBRANCH  25  29
ENDBRANCH   1  26
TORSDOF 6
