REMARK  Name = ZINC40820496
REMARK  3 active torsions:
REMARK  status: ('A' for Active; 'I' for Inactive)
REMARK    1  A    between atoms: C_8  and  C_12
REMARK    2  A    between atoms: C_18  and  C_20
REMARK    3  A    between atoms: C_22  and  N_26
REMARK                            x       y       z     vdW  Elec       q    Type
REMARK                         _______ _______ _______ _____ _____    ______ ____
ROOT
ATOM      1  C   UNL     1       4.413  -1.520  -0.128  0.00  0.00    +0.109 C 
ATOM      2  C   UNL     1       4.525  -1.812  -1.639  0.00  0.00    +0.029 C 
ATOM      3  C   UNL     1       5.873  -2.572  -1.747  0.00  0.00    +0.021 C 
ATOM      4  C   UNL     1       6.720  -1.858  -0.664  0.00  0.00    +0.109 C 
ATOM      5  N   UNL     1       5.771  -1.575   0.433  0.00  0.00    -0.290 N 
ATOM      6  C   UNL     1       6.094  -1.395   1.729  0.00  0.00    +0.249 C 
ATOM      7  O   UNL     1       5.232  -1.100   2.534  0.00  0.00    -0.270 OA
ENDROOT
BRANCH   1  15
ATOM      8  C   UNL     1      -0.055   1.463   0.302  0.00  0.00    +0.005 A 
ATOM      9  C   UNL     1       1.098   2.204   0.436  0.00  0.00    +0.026 A 
ATOM     10  C   UNL     1       2.339   1.580   0.350  0.00  0.00    +0.050 A 
ATOM     11  C   UNL     1       2.401   0.193   0.126  0.00  0.00    +0.040 A 
ATOM     12  C   UNL     1       1.221  -0.546  -0.008  0.00  0.00    +0.133 A 
ATOM     13  C   UNL     1       0.003   0.094   0.081  0.00  0.00    +0.039 A 
ATOM     14  F   UNL     1       1.275  -1.878  -0.223  0.00  0.00    -0.205 F 
ATOM     15  C   UNL     1       3.825  -0.149   0.087  0.00  0.00    +0.001 A 
ATOM     16  C   UNL     1       4.507   0.991   0.280  0.00  0.00    +0.089 A 
ATOM     17  N   UNL     1       3.635   2.035   0.439  0.00  0.00    -0.360 N 
ATOM     18  H   UNL     1       3.893   2.958   0.592  0.00  0.00    +0.165 HD
ENDBRANCH   1  15
BRANCH   6  19
ATOM     19  C   UNL     1       7.496  -1.555   2.171  0.00  0.00    +0.057 A 
ATOM     20  C   UNL     1       8.550  -1.364   1.271  0.00  0.00    +0.038 A 
ATOM     21  C   UNL     1       9.850  -1.527   1.738  0.00  0.00    +0.044 A 
ATOM     22  C   UNL     1      10.053  -1.870   3.070  0.00  0.00    +0.133 A 
ATOM     23  N   UNL     1       9.035  -2.042   3.889  0.00  0.00    -0.261 NA
ATOM     24  C   UNL     1       7.788  -1.893   3.492  0.00  0.00    +0.123 A 
BRANCH  21  25
ATOM     25  N   UNL     1      10.938  -1.348   0.879  0.00  0.00    -0.357 N 
ATOM     26  H   UNL     1      10.789  -1.109  -0.049  0.00  0.00    +0.142 HD
ATOM     27  H   UNL     1      11.842  -1.463   1.211  0.00  0.00    +0.142 HD
ENDBRANCH  21  25
ENDBRANCH   6  19
TORSDOF 3
