REMARK  Name = ZINC09404921
REMARK  5 active torsions:
REMARK  status: ('A' for Active; 'I' for Inactive)
REMARK    1  A    between atoms: C_9  and  C_11
REMARK    2  A    between atoms: C_14  and  N_17
REMARK    3  A    between atoms: C_18  and  C_20
REMARK    4  A    between atoms: C_23  and  S_26
REMARK    5  A    between atoms: S_26  and  N_29
REMARK                            x       y       z     vdW  Elec       q    Type
REMARK                         _______ _______ _______ _____ _____    ______ ____
ROOT
ATOM      1  N   UNL     1       2.353   3.884   0.001  0.00  0.00    -0.282 N 
ATOM      2  C   UNL     1       2.338   5.229  -0.092  0.00  0.00    +0.248 C 
ATOM      3  O   UNL     1       1.280   5.827  -0.079  0.00  0.00    -0.270 OA
ATOM      4  H   UNL     1       3.197   3.412   0.068  0.00  0.00    +0.155 HD
ENDROOT
BRANCH   1   8
ATOM      5  C   UNL     1      -1.232   1.760   0.009  0.00  0.00    +0.017 A 
ATOM      6  C   UNL     1      -1.114   2.931  -0.742  0.00  0.00    +0.013 A 
ATOM      7  C   UNL     1       0.071   3.633  -0.741  0.00  0.00    +0.024 A 
ATOM      8  C   UNL     1       1.153   3.172   0.003  0.00  0.00    +0.034 A 
ATOM      9  C   UNL     1       1.040   2.002   0.747  0.00  0.00    +0.024 A 
ATOM     10  C   UNL     1      -0.142   1.297   0.750  0.00  0.00    +0.013 A 
BRANCH   5  19
ATOM     11  C   UNL     1      -6.127  -1.691   0.413  0.00  0.00    +0.002 A 
ATOM     12  C   UNL     1      -6.648  -0.734  -0.446  0.00  0.00    +0.002 A 
ATOM     13  C   UNL     1      -5.885   0.320  -0.860  0.00  0.00    +0.030 A 
ATOM     14  C   UNL     1      -4.564   0.441  -0.417  0.00  0.00    +0.089 A 
ATOM     15  C   UNL     1      -4.036  -0.529   0.454  0.00  0.00    +0.066 A 
ATOM     16  C   UNL     1      -4.827  -1.593   0.864  0.00  0.00    +0.028 A 
ATOM     17  N   UNL     1      -2.732  -0.150   0.707  0.00  0.00    -0.338 N 
ATOM     18  H   UNL     1      -2.076  -0.633   1.288  0.00  0.00    +0.167 HD
ATOM     19  C   UNL     1      -2.505   1.009   0.015  0.00  0.00    +0.139 A 
ATOM     20  N   UNL     1      -3.584   1.349  -0.646  0.00  0.00    -0.228 NA
ENDBRANCH   5  19
ENDBRANCH   1   8
BRANCH   2  21
ATOM     21  C   UNL     1       3.609   5.975  -0.211  0.00  0.00    +0.037 A 
ATOM     22  C   UNL     1       4.825   5.291  -0.221  0.00  0.00    +0.015 A 
ATOM     23  C   UNL     1       6.007   5.993  -0.338  0.00  0.00    +0.029 A 
ATOM     24  C   UNL     1       5.989   7.373  -0.435  0.00  0.00    +0.106 A 
ATOM     25  C   UNL     1       4.786   8.058  -0.420  0.00  0.00    +0.029 A 
ATOM     26  C   UNL     1       3.597   7.367  -0.309  0.00  0.00    +0.015 A 
BRANCH  24  27
ATOM     27  S   UNL     1       7.503   8.263  -0.577  0.00  0.00    +0.061 S 
ATOM     28  O   UNL     1       8.456   7.358  -1.117  0.00  0.00    -0.153 OA
ATOM     29  O   UNL     1       7.189   9.501  -1.201  0.00  0.00    -0.153 OA
BRANCH  27  30
ATOM     30  N   UNL     1       8.007   8.621   0.959  0.00  0.00    -0.177 NA
ATOM     31  C   UNL     1       7.665   9.837   1.711  0.00  0.00    +0.109 C 
ATOM     32  C   UNL     1       8.376   9.746   3.078  0.00  0.00    +0.018 C 
ATOM     33  C   UNL     1       9.538   8.757   2.797  0.00  0.00    +0.018 C 
ATOM     34  C   UNL     1       8.877   7.776   1.796  0.00  0.00    +0.109 C 
ENDBRANCH  27  30
ENDBRANCH  24  27
ENDBRANCH   2  21
TORSDOF 5
