REMARK  Name = ZINC14066156
REMARK  5 active torsions:
REMARK  status: ('A' for Active; 'I' for Inactive)
REMARK    1  A    between atoms: C_1  and  C_2
REMARK    2  A    between atoms: N_4  and  C_5
REMARK    3  A    between atoms: C_5  and  C_6
REMARK    4  A    between atoms: C_9  and  C_11
REMARK    5  A    between atoms: C_17  and  C_19
REMARK                            x       y       z     vdW  Elec       q    Type
REMARK                         _______ _______ _______ _____ _____    ______ ____
ROOT
ATOM      1  C   UNL     1      -1.133  -0.951   0.009  0.00  0.00    +0.087 A 
ATOM      2  C   UNL     1      -2.421  -0.487   0.024  0.00  0.00    +0.077 A 
ATOM      3  S   UNL     1      -3.329  -2.028   0.024  0.00  0.00    -0.060 S 
ATOM      4  C   UNL     1      -1.915  -3.121   0.004  0.00  0.00    +0.165 A 
ATOM      5  N   UNL     1      -0.915  -2.259  -0.006  0.00  0.00    -0.224 NA
ATOM      6  N   UNL     1      -1.877  -4.508  -0.004  0.00  0.00    -0.261 N 
ATOM      7  C   UNL     1      -3.026  -5.213   0.003  0.00  0.00    +0.250 C 
ATOM      8  O   UNL     1      -4.094  -4.634   0.017  0.00  0.00    -0.270 OA
ATOM      9  H   UNL     1      -1.025  -4.971  -0.015  0.00  0.00    +0.157 HD
ENDROOT
BRANCH   7  10
ATOM     10  C   UNL     1      -2.986  -6.695  -0.006  0.00  0.00    +0.039 A 
ATOM     11  C   UNL     1      -1.747  -7.352  -0.022  0.00  0.00    +0.014 A 
ATOM     12  C   UNL     1      -1.690  -8.723  -0.018  0.00  0.00    +0.016 A 
ATOM     13  C   UNL     1      -2.869  -9.464  -0.011  0.00  0.00    +0.065 A 
ATOM     14  C   UNL     1      -4.125  -8.816  -0.025  0.00  0.00    +0.079 A 
ATOM     15  C   UNL     1      -4.167  -7.423  -0.006  0.00  0.00    +0.041 A 
ATOM     16  N   UNL     1      -5.240  -9.574  -0.082  0.00  0.00    -0.233 NA
ATOM     17  C   UNL     1      -5.212 -10.882  -0.174  0.00  0.00    +0.113 A 
ATOM     18  N   UNL     1      -4.056 -11.581  -0.099  0.00  0.00    -0.296 N 
ATOM     19  C   UNL     1      -2.866 -10.936   0.010  0.00  0.00    +0.262 A 
ATOM     20  O   UNL     1      -1.832 -11.564   0.106  0.00  0.00    -0.267 OA
ATOM     21  C   UNL     1      -4.016 -13.056  -0.135  0.00  0.00    +0.126 C 
ATOM     22  C   UNL     1      -4.304 -13.504  -1.572  0.00  0.00    +0.022 C 
ATOM     23  C   UNL     1      -5.784 -13.777  -1.796  0.00  0.00    +0.002 C 
ATOM     24  C   UNL     1      -6.599 -14.062  -0.548  0.00  0.00    +0.000 C 
ATOM     25  C   UNL     1      -6.692 -12.855   0.383  0.00  0.00    +0.008 C 
ATOM     26  C   UNL     1      -6.524 -11.573  -0.439  0.00  0.00    +0.074 C 
ENDBRANCH   7  10
BRANCH   1  30
ATOM     27  C   UNL     1       1.741   2.058  -0.004  0.00  0.00    +0.007 A 
ATOM     28  C   UNL     1       2.228   0.792  -0.015  0.00  0.00    +0.013 A 
ATOM     29  C   UNL     1       1.345  -0.268  -0.012  0.00  0.00    +0.018 A 
ATOM     30  C   UNL     1       0.002  -0.004   0.002  0.00  0.00    +0.038 A 
ATOM     31  S   UNL     1      -0.022   1.781   0.012  0.00  0.00    -0.090 S 
BRANCH  27  32
ATOM     32  C   UNL     1       2.495   3.363  -0.004  0.00  0.00    +0.146 C 
BRANCH  32  36
ATOM     33  C   UNL     1       3.624   5.384  -3.053  0.00  0.00    +0.109 C 
ATOM     34  C   UNL     1       3.387   4.941  -1.632  0.00  0.00    +0.210 C 
ATOM     35  O   UNL     1       3.790   5.619  -0.711  0.00  0.00    -0.276 OA
ATOM     36  N   UNL     1       2.726   3.793  -1.385  0.00  0.00    -0.311 N 
ATOM     37  H   UNL     1       2.403   3.251  -2.122  0.00  0.00    +0.149 HD
ENDBRANCH  32  36
ENDBRANCH  27  32
ENDBRANCH   1  30
TORSDOF 4
