REMARK  Name = ZINC16399709
REMARK  7 active torsions:
REMARK  status: ('A' for Active; 'I' for Inactive)
REMARK    1  A    between atoms: C_3  and  C_10
REMARK    2  A    between atoms: C_5  and  N_7
REMARK    3  A    between atoms: C_11  and  C_12
REMARK    4  A    between atoms: N_14  and  C_15
REMARK    5  A    between atoms: C_15  and  N_17
REMARK    6  A    between atoms: N_17  and  C_18
REMARK    7  A    between atoms: C_23  and  C_24
REMARK                            x       y       z     vdW  Elec       q    Type
REMARK                         _______ _______ _______ _____ _____    ______ ____
ROOT
ATOM      1  C   UNL     1      -1.368   7.393   0.517  0.00  0.00    +0.242 C 
ATOM      2  O   UNL     1      -0.334   7.994   0.740  0.00  0.00    -0.270 OA
ATOM      3  N   UNL     1      -2.508   8.074   0.289  0.00  0.00    -0.264 N 
ATOM      4  H   UNL     1      -3.332   7.594   0.111  0.00  0.00    +0.157 HD
ENDROOT
BRANCH   1   6
ATOM      5  C   UNL     1      -0.232   5.248   0.726  0.00  0.00    +0.013 C 
ATOM      6  C   UNL     1      -1.373   5.930   0.498  0.00  0.00    +0.068 C 
BRANCH   5   9
ATOM      7  C   UNL     1      -1.419   1.702   0.429  0.00  0.00    +0.003 A 
ATOM      8  C   UNL     1      -1.423   3.081   0.451  0.00  0.00    +0.008 A 
ATOM      9  C   UNL     1      -0.237   3.776   0.707  0.00  0.00    -0.023 A 
ATOM     10  C   UNL     1       0.944   3.066   0.943  0.00  0.00    +0.040 A 
ATOM     11  C   UNL     1       0.931   1.687   0.923  0.00  0.00    +0.127 A 
ATOM     12  C   UNL     1      -0.247   1.006   0.669  0.00  0.00    +0.033 A 
BRANCH  11  13
ATOM     13  N   UNL     1       2.180   0.933   1.174  0.00  0.00    +0.056 N 
ATOM     14  O   UNL     1       2.170  -0.284   1.156  0.00  0.00    -0.126 OA
ATOM     15  O   UNL     1       3.217   1.531   1.397  0.00  0.00    -0.126 OA
ENDBRANCH  11  13
ENDBRANCH   5   9
ENDBRANCH   1   6
BRANCH   3  16
ATOM     16  C   UNL     1      -2.503   9.422   0.307  0.00  0.00    +0.141 C 
ATOM     17  S   UNL     1      -1.048  10.268   0.621  0.00  0.00    -0.018 S 
BRANCH  16  18
ATOM     18  N   UNL     1      -3.643  10.103   0.078  0.00  0.00    -0.296 N 
ATOM     19  H   UNL     1      -4.452   9.627  -0.167  0.00  0.00    +0.154 HD
BRANCH  18  20
ATOM     20  C   UNL     1      -3.661  11.490   0.195  0.00  0.00    +0.047 A 
ATOM     21  C   UNL     1      -2.665  12.252  -0.401  0.00  0.00    +0.025 A 
ATOM     22  C   UNL     1      -2.684  13.627  -0.285  0.00  0.00    +0.017 A 
ATOM     23  C   UNL     1      -3.694  14.258   0.425  0.00  0.00    +0.019 A 
ATOM     24  C   UNL     1      -4.691  13.517   1.024  0.00  0.00    +0.032 A 
ATOM     25  C   UNL     1      -4.688  12.124   0.910  0.00  0.00    +0.085 A 
ATOM     26 BR   UNL     1      -3.704  16.143   0.574  0.00  0.00    -0.050 Br
BRANCH  25  27
ATOM     27  C   UNL     1      -5.753  11.327   1.542  0.00  0.00    +0.388 C 
ATOM     28  O   UNL     1      -5.694  10.113   1.527  0.00  0.00    -0.241 OA
ATOM     29  O   UNL     1      -6.793  11.943   2.137  0.00  0.00    -0.241 OA
ENDBRANCH  25  27
ENDBRANCH  18  20
ENDBRANCH  16  18
ENDBRANCH   3  16
TORSDOF 7
