REMARK  Name = ZINC66771809
REMARK  6 active torsions:
REMARK  status: ('A' for Active; 'I' for Inactive)
REMARK    1  A    between atoms: C_1  and  C_2
REMARK    2  A    between atoms: C_6  and  C_7
REMARK    3  A    between atoms: N_9  and  N_10
REMARK    4  A    between atoms: C_11  and  C_13
REMARK    5  A    between atoms: C_14  and  C_28
REMARK    6  A    between atoms: N_15  and  C_18
REMARK                            x       y       z     vdW  Elec       q    Type
REMARK                         _______ _______ _______ _____ _____    ______ ____
ROOT
ATOM      1  C   UNL     1       0.127  -1.165   7.311  0.00  0.00    +0.172 A 
ATOM      2  C   UNL     1       0.171  -1.952   8.427  0.00  0.00    +0.074 A 
ATOM      3  N   UNL     1       0.106  -1.124   9.492  0.00  0.00    -0.216 N 
ATOM      4  N   UNL     1       0.022   0.181   8.985  0.00  0.00    -0.060 NA
ATOM      5  N   UNL     1       0.043   0.119   7.699  0.00  0.00    -0.124 NA
ATOM      6  C   UNL     1       0.271  -3.456   8.463  0.00  0.00    +0.068 C 
ENDROOT
BRANCH   3   7
ATOM      7  C   UNL     1       0.119  -1.496  10.843  0.00  0.00    +0.068 A 
ATOM      8  C   UNL     1       1.003  -2.490  11.278  0.00  0.00    +0.030 A 
ATOM      9  C   UNL     1       1.040  -2.873  12.582  0.00  0.00    +0.030 A 
ATOM     10  C   UNL     1       0.179  -2.265  13.514  0.00  0.00    +0.071 A 
ATOM     11  C   UNL     1      -0.717  -1.259  13.074  0.00  0.00    +0.002 A 
ATOM     12  C   UNL     1      -0.727  -0.881  11.723  0.00  0.00    +0.038 A 
ATOM     13  C   UNL     1      -1.577  -0.654  14.010  0.00  0.00    +0.011 A 
ATOM     14  C   UNL     1      -1.508  -1.067  15.310  0.00  0.00    +0.020 A 
ATOM     15  C   UNL     1      -0.604  -2.062  15.676  0.00  0.00    +0.111 A 
ATOM     16  N   UNL     1       0.196  -2.624  14.802  0.00  0.00    -0.255 NA
ENDBRANCH   3   7
BRANCH   1  18
ATOM     17  N   UNL     1       0.126  -0.760   4.899  0.00  0.00    -0.229 N 
ATOM     18  C   UNL     1       0.171  -1.644   5.916  0.00  0.00    +0.282 C 
ATOM     19  O   UNL     1       0.248  -2.835   5.684  0.00  0.00    -0.267 OA
ATOM     20  H   UNL     1       0.064   0.190   5.085  0.00  0.00    +0.173 HD
BRANCH  17  23
ATOM     21  C   UNL     1       0.123  -0.332   2.558  0.00  0.00    +0.267 C 
ATOM     22  O   UNL     1       0.045   0.861   2.790  0.00  0.00    -0.268 OA
ATOM     23  N   UNL     1       0.168  -1.215   3.575  0.00  0.00    -0.230 N 
ATOM     24  H   UNL     1       0.230  -2.165   3.390  0.00  0.00    +0.173 HD
BRANCH  21  30
ATOM     25  C   UNL     1       0.037   1.430  -0.010  0.00  0.00    +0.045 C 
ATOM     26  C   UNL     1       0.133  -0.074  -0.005  0.00  0.00    -0.031 A 
ATOM     27  C   UNL     1       0.197  -0.806  -1.166  0.00  0.00    +0.011 A 
ATOM     28  C   UNL     1       0.281  -2.158  -1.089  0.00  0.00    +0.046 A 
ATOM     29  S   UNL     1       0.276  -2.478   0.560  0.00  0.00    -0.092 S 
ATOM     30  C   UNL     1       0.167  -0.807   1.172  0.00  0.00    +0.078 A 
ENDBRANCH  21  30
ENDBRANCH  17  23
ENDBRANCH   1  18
TORSDOF 4
