REMARK  Name = ZINC16362029
REMARK  8 active torsions:
REMARK  status: ('A' for Active; 'I' for Inactive)
REMARK    1  A    between atoms: C_3  and  C_38
REMARK    2  A    between atoms: C_5  and  N_7
REMARK    3  A    between atoms: C_8  and  C_10
REMARK    4  A    between atoms: C_13  and  N_19
REMARK    5  A    between atoms: C_14  and  N_16
REMARK    6  A    between atoms: N_19  and  C_20
REMARK    7  A    between atoms: C_20  and  C_21
REMARK    8  A    between atoms: C_21  and  N_22
REMARK                            x       y       z     vdW  Elec       q    Type
REMARK                         _______ _______ _______ _____ _____    ______ ____
ROOT
ATOM      1  C   UNL     1       0.175  -4.251   0.462  0.00  0.00    +0.039 A 
ATOM      2  C   UNL     1       1.352  -4.940   0.152  0.00  0.00    +0.015 A 
ATOM      3  C   UNL     1       1.323  -6.304  -0.024  0.00  0.00    +0.026 A 
ATOM      4  C   UNL     1       0.123  -6.999   0.104  0.00  0.00    +0.058 A 
ATOM      5  C   UNL     1      -1.051  -6.316   0.412  0.00  0.00    +0.148 A 
ATOM      6  C   UNL     1      -1.027  -4.952   0.596  0.00  0.00    +0.047 A 
ENDROOT
BRANCH   1   8
ATOM      7  N   UNL     1       1.362  -2.114   0.523  0.00  0.00    -0.281 N 
ATOM      8  C   UNL     1       0.203  -2.789   0.653  0.00  0.00    +0.248 C 
ATOM      9  O   UNL     1      -0.821  -2.192   0.927  0.00  0.00    -0.270 OA
ATOM     10  H   UNL     1       2.163  -2.578   0.232  0.00  0.00    +0.155 HD
BRANCH   7  15
ATOM     11  C   UNL     1       2.275   1.442   0.347  0.00  0.00    +0.002 A 
ATOM     12  C   UNL     1       1.509   1.960   1.376  0.00  0.00    +0.012 A 
ATOM     13  C   UNL     1       0.694   1.129   2.121  0.00  0.00    +0.057 A 
ATOM     14  C   UNL     1       0.643  -0.223   1.841  0.00  0.00    +0.035 A 
ATOM     15  C   UNL     1       1.411  -0.746   0.809  0.00  0.00    +0.034 A 
ATOM     16  C   UNL     1       2.228   0.092   0.062  0.00  0.00    +0.023 A 
BRANCH  13  17
ATOM     17  C   UNL     1      -0.139   1.697   3.241  0.00  0.00    +0.417 C 
ATOM     18  F   UNL     1       0.080   3.076   3.331  0.00  0.00    -0.166 F 
ATOM     19  F   UNL     1      -1.493   1.456   2.983  0.00  0.00    -0.166 F 
ATOM     20  F   UNL     1       0.222   1.087   4.447  0.00  0.00    -0.166 F 
ENDBRANCH  13  17
ENDBRANCH   7  15
ENDBRANCH   1   8
BRANCH   5  21
ATOM     21  N   UNL     1      -2.324  -7.058   0.547  0.00  0.00    +0.058 N 
ATOM     22  O   UNL     1      -3.355  -6.569   0.146  0.00  0.00    -0.126 OA
ATOM     23  O   UNL     1      -2.334  -8.154   1.058  0.00  0.00    -0.126 OA
ENDBRANCH   5  21
BRANCH   4  24
ATOM     24  N   UNL     1       0.097  -8.377  -0.075  0.00  0.00    -0.341 N 
ATOM     25  H   UNL     1      -0.750  -8.851  -0.074  0.00  0.00    +0.146 HD
BRANCH  24  26
ATOM     26  C   UNL     1       1.348  -9.115  -0.266  0.00  0.00    +0.121 C 
BRANCH  26  27
ATOM     27  C   UNL     1       1.041 -10.604  -0.439  0.00  0.00    +0.135 C 
BRANCH  27  28
ATOM     28  N   UNL     1       2.292 -11.342  -0.630  0.00  0.00    -0.240 N 
ATOM     29  C   UNL     1       2.863 -11.573  -1.859  0.00  0.00    +0.226 C 
ATOM     30  O   UNL     1       2.631 -11.002  -2.903  0.00  0.00    -0.275 OA
ATOM     31  C   UNL     1       3.838 -12.691  -1.619  0.00  0.00    +0.095 C 
ATOM     32  C   UNL     1       5.212 -12.743  -2.296  0.00  0.00    +0.025 C 
ATOM     33  C   UNL     1       5.876 -13.694  -1.198  0.00  0.00    +0.016 C 
ATOM     34  C   UNL     1       5.708 -12.627  -0.039  0.00  0.00    +0.025 C 
ATOM     35  C   UNL     1       4.306 -12.108  -0.223  0.00  0.00    +0.095 C 
ATOM     36  C   UNL     1       3.035 -11.879   0.409  0.00  0.00    +0.226 C 
ATOM     37  O   UNL     1       2.701 -12.101   1.553  0.00  0.00    -0.275 OA
ATOM     38  C   UNL     1       6.452 -11.459  -0.761  0.00  0.00    -0.027 C 
ATOM     39  C   UNL     1       6.061 -11.512  -2.041  0.00  0.00    -0.027 C 
ENDBRANCH  27  28
ENDBRANCH  26  27
ENDBRANCH  24  26
ENDBRANCH   4  24
TORSDOF 8
