REMARK  Name = ZINC43898582
REMARK  9 active torsions:
REMARK  status: ('A' for Active; 'I' for Inactive)
REMARK    1  A    between atoms: C_1  and  C_2
REMARK    2  A    between atoms: C_3  and  C_31
REMARK    3  A    between atoms: C_5  and  N_14
REMARK    4  A    between atoms: C_6  and  C_7
REMARK    5  A    between atoms: C_10  and  O_12
REMARK    6  A    between atoms: O_12  and  C_13
REMARK    7  A    between atoms: C_15  and  C_17
REMARK    8  A    between atoms: C_20  and  C_23
REMARK    9  A    between atoms: C_23  and  C_25
REMARK                            x       y       z     vdW  Elec       q    Type
REMARK                         _______ _______ _______ _____ _____    ______ ____
ROOT
ATOM      1  N   UNL     1      -0.213  -3.132   2.076  0.00  0.00    -0.275 N 
ATOM      2  C   UNL     1       0.154  -4.396   1.787  0.00  0.00    +0.249 C 
ATOM      3  O   UNL     1       0.487  -4.689   0.655  0.00  0.00    -0.270 OA
ATOM      4  H   UNL     1      -0.479  -2.899   2.979  0.00  0.00    +0.156 HD
ENDROOT
BRANCH   1   9
ATOM      5  C   UNL     1      -0.803   1.435  -0.029  0.00  0.00    +0.045 C 
ATOM      6  C   UNL     1      -0.461  -0.032  -0.009  0.00  0.00    -0.027 A 
ATOM      7  C   UNL     1      -0.050  -0.685  -1.111  0.00  0.00    -0.008 A 
ATOM      8  S   UNL     1       0.208  -2.348  -0.531  0.00  0.00    -0.078 S 
ATOM      9  C   UNL     1      -0.210  -2.166   1.083  0.00  0.00    +0.085 A 
ATOM     10  C   UNL     1      -0.548  -0.824   1.197  0.00  0.00    +0.069 A 
ATOM     11  C   UNL     1       0.144  -0.140  -2.503  0.00  0.00    +0.052 C 
BRANCH  10  12
ATOM     12  C   UNL     1      -0.975  -0.242   2.472  0.00  0.00    +0.255 C 
ATOM     13  O   UNL     1      -2.154  -0.238   2.773  0.00  0.00    -0.270 OA
ATOM     14  N   UNL     1      -0.063   0.287   3.310  0.00  0.00    -0.217 N 
ATOM     15  C   UNL     1      -0.456   0.823   4.483  0.00  0.00    +0.407 C 
ATOM     16  O   UNL     1      -1.633   0.827   4.784  0.00  0.00    -0.226 OA
ATOM     17  H   UNL     1       0.877   0.283   3.070  0.00  0.00    +0.161 HD
BRANCH  15  18
ATOM     18  O   UNL     1       0.455   1.352   5.321  0.00  0.00    -0.453 OA
ATOM     19  C   UNL     1      -0.032   1.901   6.546  0.00  0.00    +0.282 C 
ENDBRANCH  15  18
ENDBRANCH  10  12
ENDBRANCH   1   9
BRANCH   2  20
ATOM     20  C   UNL     1       0.151  -5.428   2.847  0.00  0.00    +0.037 A 
ATOM     21  C   UNL     1      -0.237  -5.093   4.146  0.00  0.00    +0.014 A 
ATOM     22  C   UNL     1      -0.240  -6.054   5.133  0.00  0.00    +0.012 A 
ATOM     23  C   UNL     1       0.146  -7.363   4.835  0.00  0.00    +0.022 A 
ATOM     24  C   UNL     1       0.534  -7.697   3.536  0.00  0.00    +0.012 A 
ATOM     25  C   UNL     1       0.531  -6.738   2.548  0.00  0.00    +0.014 A 
BRANCH  23  26
ATOM     26  C   UNL     1       0.144  -8.394   5.896  0.00  0.00    +0.193 C 
ATOM     27  O   UNL     1      -0.321  -8.140   6.989  0.00  0.00    -0.287 OA
BRANCH  26  28
ATOM     28  C   UNL     1       0.708  -9.732   5.625  0.00  0.00    +0.022 A 
ATOM     29  C   UNL     1       1.806  -9.872   4.774  0.00  0.00    +0.012 A 
ATOM     30  C   UNL     1       2.328 -11.125   4.526  0.00  0.00    +0.001 A 
ATOM     31  C   UNL     1       1.765 -12.242   5.119  0.00  0.00    +0.000 A 
ATOM     32  C   UNL     1       0.677 -12.111   5.964  0.00  0.00    +0.001 A 
ATOM     33  C   UNL     1       0.148 -10.864   6.224  0.00  0.00    +0.012 A 
ENDBRANCH  26  28
ENDBRANCH  23  26
ENDBRANCH   2  20
TORSDOF 6
