REMARK  Name = ZINC56069976
REMARK  9 active torsions:
REMARK  status: ('A' for Active; 'I' for Inactive)
REMARK    1  A    between atoms: C_1  and  C_2
REMARK    2  A    between atoms: C_5  and  S_9
REMARK    3  A    between atoms: C_6  and  C_8
REMARK    4  A    between atoms: S_9  and  N_12
REMARK    5  A    between atoms: N_12  and  C_13
REMARK    6  A    between atoms: C_13  and  C_15
REMARK    7  A    between atoms: C_13  and  C_16
REMARK    8  A    between atoms: C_19  and  N_22
REMARK    9  A    between atoms: N_25  and  C_26
REMARK                            x       y       z     vdW  Elec       q    Type
REMARK                         _______ _______ _______ _____ _____    ______ ____
ROOT
ATOM      1  C   UNL     1       1.902  -5.046   2.166  0.00  0.00    +0.103 C 
ATOM      2  C   UNL     1       2.759  -3.787   2.317  0.00  0.00    +0.031 C 
ENDROOT
BRANCH   1   3
ATOM      3  C   UNL     1       2.669  -6.240   2.673  0.00  0.00    -0.029 A 
ATOM      4  C   UNL     1       3.630  -6.833   1.874  0.00  0.00    +0.007 A 
ATOM      5  C   UNL     1       4.335  -7.927   2.336  0.00  0.00    +0.023 A 
ATOM      6  C   UNL     1       4.078  -8.432   3.604  0.00  0.00    +0.035 A 
ATOM      7  C   UNL     1       3.113  -7.834   4.404  0.00  0.00    +0.023 A 
ATOM      8  C   UNL     1       2.415  -6.736   3.938  0.00  0.00    +0.007 A 
BRANCH   6   9
ATOM      9  N   UNL     1       4.790  -9.541   4.075  0.00  0.00    -0.269 N 
ATOM     10  C   UNL     1       6.080  -9.711   3.724  0.00  0.00    +0.304 C 
ATOM     11  O   UNL     1       6.652  -8.857   3.076  0.00  0.00    -0.253 OA
ATOM     12  N   UNL     1       6.736 -10.829   4.093  0.00  0.00    -0.296 N 
ATOM     13  H   UNL     1       4.355 -10.187   4.653  0.00  0.00    +0.156 HD
ATOM     14  H   UNL     1       6.280 -11.511   4.610  0.00  0.00    +0.151 HD
BRANCH  12  15
ATOM     15  C   UNL     1       8.139 -11.015   3.712  0.00  0.00    +0.075 C 
ATOM     16  C   UNL     1       8.554 -12.393   3.194  0.00  0.00    +0.024 C 
ATOM     17  C   UNL     1       8.992 -11.936   4.587  0.00  0.00    +0.024 C 
ENDBRANCH  12  15
ENDBRANCH   6   9
ENDBRANCH   1   3
BRANCH   1  18
ATOM     18  N   UNL     1       1.569  -5.243   0.753  0.00  0.00    -0.183 NA
ATOM     19  H   UNL     1       2.211  -5.659   0.157  0.00  0.00    +0.149 HD
BRANCH  18  20
ATOM     20  S   UNL     1       0.096  -4.756   0.174  0.00  0.00    +0.059 S 
ATOM     21  O   UNL     1      -0.880  -5.253   1.079  0.00  0.00    -0.153 OA
ATOM     22  O   UNL     1       0.080  -5.071  -1.212  0.00  0.00    -0.153 OA
BRANCH  20  27
ATOM     23  C   UNL     1      -0.077   1.261   0.579  0.00  0.00    +0.044 C 
ATOM     24  C   UNL     1      -0.034  -0.242   0.478  0.00  0.00    -0.050 A 
ATOM     25  C   UNL     1      -0.890  -1.011   1.244  0.00  0.00    +0.005 A 
ATOM     26  C   UNL     1      -0.850  -2.389   1.151  0.00  0.00    +0.029 A 
ATOM     27  C   UNL     1       0.045  -2.999   0.292  0.00  0.00    +0.108 A 
ATOM     28  C   UNL     1       0.900  -2.230  -0.475  0.00  0.00    -0.024 A 
ATOM     29  C   UNL     1       0.858  -0.851  -0.385  0.00  0.00    +0.008 A 
ATOM     30  C   UNL     1       1.877  -2.894  -1.411  0.00  0.00    +0.046 C 
ENDBRANCH  20  27
ENDBRANCH  18  20
ENDBRANCH   1  18
TORSDOF 6
