REMARK  Name = ZINC21520315
REMARK  4 active torsions:
REMARK  status: ('A' for Active; 'I' for Inactive)
REMARK    1  A    between atoms: C_3  and  N_9
REMARK    2  A    between atoms: N_9  and  S_10
REMARK    3  A    between atoms: S_10  and  C_13
REMARK    4  A    between atoms: C_17  and  N_19
REMARK                            x       y       z     vdW  Elec       q    Type
REMARK                         _______ _______ _______ _____ _____    ______ ____
ROOT
ATOM      1  S   UNL     1      -2.501  -0.456   0.728  0.00  0.00    +0.072 S 
ATOM      2  O   UNL     1      -3.810  -0.955   0.489  0.00  0.00    -0.150 OA
ATOM      3  O   UNL     1      -1.333  -1.156   0.323  0.00  0.00    -0.150 OA
ENDROOT
BRANCH   1   4
ATOM      4  C   UNL     1      -2.365  -0.214   2.468  0.00  0.00    +0.110 A 
ATOM      5  C   UNL     1      -1.121  -0.222   3.071  0.00  0.00    +0.032 A 
ATOM      6  C   UNL     1      -1.009  -0.028   4.436  0.00  0.00    +0.042 A 
ATOM      7  C   UNL     1      -2.143   0.164   5.204  0.00  0.00    +0.144 A 
ATOM      8  C   UNL     1      -3.396   0.167   4.600  0.00  0.00    +0.062 A 
ATOM      9  C   UNL     1      -3.503  -0.023   3.229  0.00  0.00    +0.054 A 
ATOM     10  F   UNL     1      -2.034   0.349   6.537  0.00  0.00    -0.204 F 
BRANCH   8  11
ATOM     11  N   UNL     1      -4.545   0.362   5.372  0.00  0.00    -0.356 N 
ATOM     12  H   UNL     1      -5.536   0.364   4.894  0.00  0.00    +0.142 HD
ATOM     13  H   UNL     1      -4.459   0.512   6.459  0.00  0.00    +0.142 HD
ENDBRANCH   8  11
ENDBRANCH   1   4
BRANCH   1  14
ATOM     14  N   UNL     1      -2.427   1.038   0.019  0.00  0.00    -0.213 N 
ATOM     15  H   UNL     1      -3.271   1.403  -0.585  0.00  0.00    +0.174 HD
BRANCH  14  18
ATOM     16  C   UNL     1       1.089   2.044   0.413  0.00  0.00    +0.040 A 
ATOM     17  C   UNL     1      -0.033   1.253   0.253  0.00  0.00    +0.030 A 
ATOM     18  C   UNL     1      -1.290   1.837   0.188  0.00  0.00    +0.083 A 
ATOM     19  C   UNL     1      -1.419   3.218   0.296  0.00  0.00    +0.148 A 
ATOM     20  C   UNL     1      -0.293   4.005   0.456  0.00  0.00    +0.078 A 
ATOM     21  C   UNL     1       0.960   3.418   0.515  0.00  0.00    +0.126 A 
ATOM     22  F   UNL     1       2.059   4.189   0.672  0.00  0.00    -0.205 F 
ATOM     23  F   UNL     1      -2.641   3.790   0.238  0.00  0.00    -0.203 F 
ENDBRANCH  14  18
ENDBRANCH   1  14
TORSDOF 4
