REMARK  Name = ZINC16125287
REMARK  9 active torsions:
REMARK  status: ('A' for Active; 'I' for Inactive)
REMARK    1  A    between atoms: C_1  and  C_2
REMARK    2  A    between atoms: C_5  and  C_32
REMARK    3  A    between atoms: C_6  and  N_8
REMARK    4  A    between atoms: C_12  and  S_13
REMARK    5  A    between atoms: S_13  and  C_14
REMARK    6  A    between atoms: C_14  and  C_15
REMARK    7  A    between atoms: C_21  and  S_28
REMARK    8  A    between atoms: C_25  and  C_27
REMARK    9  A    between atoms: S_28  and  N_31
REMARK                            x       y       z     vdW  Elec       q    Type
REMARK                         _______ _______ _______ _____ _____    ______ ____
ROOT
ATOM      1  C   UNL     1      -0.433   1.369  -2.436  0.00  0.00    +0.230 C 
ATOM      2  O   UNL     1       0.547   0.708  -2.708  0.00  0.00    -0.274 OA
ATOM      3  N   UNL     1      -0.760   1.590  -1.147  0.00  0.00    -0.267 N 
ATOM      4  C   UNL     1      -1.864   2.335  -0.713  0.00  0.00    +0.040 A 
ATOM      5  C   UNL     1      -2.838   2.993  -1.466  0.00  0.00    +0.026 A 
ATOM      6  C   UNL     1      -3.854   3.682  -0.839  0.00  0.00    +0.030 A 
ATOM      7  C   UNL     1      -3.916   3.726   0.542  0.00  0.00    +0.105 A 
ATOM      8  C   UNL     1      -2.955   3.077   1.295  0.00  0.00    +0.034 A 
ATOM      9  C   UNL     1      -1.935   2.386   0.670  0.00  0.00    -0.022 A 
ATOM     10  C   UNL     1      -0.774   1.602   1.240  0.00  0.00    +0.059 C 
ATOM     11  C   UNL     1      -0.013   1.086   0.008  0.00  0.00    +0.083 C 
ATOM     12  C   UNL     1       1.415   1.635  -0.003  0.00  0.00    +0.029 C 
ENDROOT
BRANCH   7  13
ATOM     13  S   UNL     1      -5.216   4.607   1.341  0.00  0.00    +0.056 S 
ATOM     14  O   UNL     1      -6.293   4.668   0.415  0.00  0.00    -0.153 OA
ATOM     15  O   UNL     1      -5.356   4.039   2.636  0.00  0.00    -0.153 OA
BRANCH  13  16
ATOM     16  N   UNL     1      -4.691   6.162   1.560  0.00  0.00    -0.204 NA
ATOM     17  H   UNL     1      -5.329   6.893   1.565  0.00  0.00    +0.144 HD
ATOM     18  H   UNL     1      -3.746   6.342   1.683  0.00  0.00    +0.144 HD
ENDBRANCH  13  16
ENDBRANCH   7  13
BRANCH   1  19
ATOM     19  C   UNL     1      -1.284   1.944  -3.538  0.00  0.00    +0.173 C 
BRANCH  19  20
ATOM     20  S   UNL     1      -0.590   1.475  -5.143  0.00  0.00    -0.078 S 
BRANCH  20  25
ATOM     21  N   UNL     1      -1.713   2.234  -7.580  0.00  0.00    -0.294 N 
ATOM     22  C   UNL     1      -2.796   2.964  -8.022  0.00  0.00    +0.113 A 
ATOM     23  C   UNL     1      -3.445   3.401  -6.929  0.00  0.00    +0.131 A 
ATOM     24  N   UNL     1      -2.793   2.956  -5.842  0.00  0.00    -0.230 NA
ATOM     25  C   UNL     1      -1.748   2.257  -6.217  0.00  0.00    +0.174 A 
BRANCH  21  31
ATOM     26  C   UNL     1       1.938   2.510 -10.864  0.00  0.00    +0.044 C 
ATOM     27  C   UNL     1       1.023   1.700  -9.981  0.00  0.00    -0.048 A 
ATOM     28  C   UNL     1       1.126   0.321  -9.959  0.00  0.00    +0.004 A 
ATOM     29  C   UNL     1       0.289  -0.424  -9.150  0.00  0.00    +0.005 A 
ATOM     30  C   UNL     1      -0.652   0.207  -8.360  0.00  0.00    -0.027 A 
ATOM     31  C   UNL     1      -0.758   1.591  -8.380  0.00  0.00    +0.052 A 
ATOM     32  C   UNL     1       0.080   2.336  -9.199  0.00  0.00    +0.029 A 
ATOM     33  C   UNL     1      -1.564  -0.607  -7.478  0.00  0.00    +0.046 C 
ENDBRANCH  21  31
ENDBRANCH  20  25
ENDBRANCH  19  20
ENDBRANCH   1  19
TORSDOF 6
