REMARK  Name = ZINC06239275
REMARK  10 active torsions:
REMARK  status: ('A' for Active; 'I' for Inactive)
REMARK    1  A    between atoms: C_1  and  O_2
REMARK    2  A    between atoms: O_2  and  C_3
REMARK    3  A    between atoms: C_5  and  C_13
REMARK    4  A    between atoms: C_7  and  O_11
REMARK    5  A    between atoms: C_8  and  O_9
REMARK    6  A    between atoms: O_9  and  C_10
REMARK    7  A    between atoms: O_11  and  C_12
REMARK    8  A    between atoms: C_20  and  N_33
REMARK    9  A    between atoms: C_21  and  C_31
REMARK   10  A    between atoms: C_22  and  C_24
REMARK                            x       y       z     vdW  Elec       q    Type
REMARK                         _______ _______ _______ _____ _____    ______ ____
ROOT
ATOM      1  C   UNL     1       2.550  -0.205   4.404  0.00  0.00    +0.101 A 
ATOM      2  C   UNL     1       2.584  -0.647   5.729  0.00  0.00    +0.054 A 
ATOM      3  C   UNL     1       3.272   0.274   6.465  0.00  0.00    +0.223 A 
ATOM      4  N   UNL     1       3.660   1.260   5.629  0.00  0.00    -0.246 N 
ATOM      5  H   UNL     1       4.168   2.048   5.875  0.00  0.00    +0.192 HD
ATOM      6  N   UNL     1       3.203   0.940   4.341  0.00  0.00    -0.171 NA
ATOM      7  O   UNL     1       3.480   0.139   7.798  0.00  0.00    -0.423 OA
ATOM      8  C   UNL     1       2.758  -0.794   8.452  0.00  0.00    +0.200 C 
ATOM      9  C   UNL     1       2.046  -1.763   7.835  0.00  0.00    +0.098 C 
ATOM     10  C   UNL     1       1.997  -1.897   6.333  0.00  0.00    +0.102 C 
ENDROOT
BRANCH  10  11
ATOM     11  C   UNL     1       2.803  -3.096   5.902  0.00  0.00    -0.034 A 
ATOM     12  C   UNL     1       4.163  -3.137   6.144  0.00  0.00    +0.005 A 
ATOM     13  C   UNL     1       4.902  -4.237   5.749  0.00  0.00    +0.015 A 
ATOM     14  C   UNL     1       4.280  -5.296   5.113  0.00  0.00    +0.018 A 
ATOM     15  C   UNL     1       2.919  -5.254   4.872  0.00  0.00    +0.015 A 
ATOM     16  C   UNL     1       2.180  -4.157   5.271  0.00  0.00    +0.005 A 
ATOM     17 BR   UNL     1       5.291  -6.800   4.573  0.00  0.00    -0.050 Br
ENDBRANCH  10  11
BRANCH   1  20
ATOM     18  C   UNL     1       0.044  -2.141   2.370  0.00  0.00    +0.166 A 
ATOM     19  C   UNL     1       0.648  -1.490   3.432  0.00  0.00    +0.059 A 
ATOM     20  C   UNL     1       1.901  -0.903   3.266  0.00  0.00    +0.010 A 
ATOM     21  C   UNL     1       2.544  -0.973   2.032  0.00  0.00    +0.059 A 
ATOM     22  C   UNL     1       1.937  -1.624   0.972  0.00  0.00    +0.166 A 
ATOM     23  C   UNL     1       0.689  -2.214   1.140  0.00  0.00    +0.204 A 
BRANCH  18  25
ATOM     24  C   UNL     1      -1.784  -2.600   3.821  0.00  0.00    +0.277 C 
ATOM     25  O   UNL     1      -1.179  -2.713   2.531  0.00  0.00    -0.491 OA
ENDBRANCH  18  25
BRANCH  23  26
ATOM     26  O   UNL     1       0.096  -2.859   0.099  0.00  0.00    -0.488 OA
ATOM     27  C   UNL     1      -0.743  -2.078  -0.755  0.00  0.00    +0.277 C 
ENDBRANCH  23  26
BRANCH  22  28
ATOM     28  O   UNL     1       2.564  -1.692  -0.233  0.00  0.00    -0.491 OA
ATOM     29  C   UNL     1       3.895  -1.177  -0.301  0.00  0.00    +0.277 C 
ENDBRANCH  22  28
ENDBRANCH   1  20
BRANCH   8  30
ATOM     30  N   UNL     1       2.744  -0.756   9.824  0.00  0.00    -0.328 N 
ATOM     31  H   UNL     1       3.245  -0.073  10.296  0.00  0.00    +0.145 HD
ATOM     32  H   UNL     1       2.233  -1.414  10.322  0.00  0.00    +0.145 HD
ENDBRANCH   8  30
BRANCH   9  33
ATOM     33  C   UNL     1       1.313  -2.696   8.635  0.00  0.00    +0.101 C 
ATOM     34  N   UNL     1       0.731  -3.437   9.270  0.00  0.00    -0.191 NA
ENDBRANCH   9  33
TORSDOF 7
