REMARK  Name = ZINC08659243
REMARK  7 active torsions:
REMARK  status: ('A' for Active; 'I' for Inactive)
REMARK    1  A    between atoms: C_4  and  C_7
REMARK    2  A    between atoms: N_9  and  N_10
REMARK    3  A    between atoms: C_11  and  C_13
REMARK    4  A    between atoms: C_13  and  S_14
REMARK    5  A    between atoms: S_14  and  C_15
REMARK    6  A    between atoms: C_18  and  C_21
REMARK    7  A    between atoms: N_19  and  N_20
REMARK                            x       y       z     vdW  Elec       q    Type
REMARK                         _______ _______ _______ _____ _____    ______ ____
ROOT
ATOM      1  S   UNL     1       5.978  -6.582  -0.091  0.00  0.00    -0.075 S 
ENDROOT
BRANCH   1   2
ATOM      2  C   UNL     1       7.592  -7.287  -0.111  0.00  0.00    +0.209 A 
ATOM      3  N   UNL     1       8.730  -6.630  -0.113  0.00  0.00    -0.121 NA
ATOM      4  N   UNL     1       9.716  -7.454  -0.128  0.00  0.00    -0.127 NA
ATOM      5  C   UNL     1       9.268  -8.688  -0.137  0.00  0.00    +0.182 A 
ATOM      6  N   UNL     1       7.894  -8.619  -0.121  0.00  0.00    -0.224 N 
BRANCH   5   7
ATOM      7  C   UNL     1      10.086  -9.919  -0.155  0.00  0.00    +0.021 A 
ATOM      8  C   UNL     1       9.501 -11.144  -0.481  0.00  0.00    +0.013 A 
ATOM      9  C   UNL     1      10.270 -12.289  -0.497  0.00  0.00    +0.021 A 
ATOM     10  C   UNL     1      11.618 -12.226  -0.189  0.00  0.00    +0.041 A 
ATOM     11  C   UNL     1      12.204 -11.014   0.136  0.00  0.00    +0.021 A 
ATOM     12  C   UNL     1      11.447  -9.861   0.148  0.00  0.00    +0.013 A 
ATOM     13 CL   UNL     1      12.579 -13.672  -0.210  0.00  0.00    -0.084 Cl
ENDBRANCH   5   7
BRANCH   6  14
ATOM     14  N   UNL     1       7.015  -9.665  -0.118  0.00  0.00    -0.295 N 
ATOM     15  H   UNL     1       6.774  -9.937  -1.060  0.00  0.00    +0.163 HD
ATOM     16  H   UNL     1       7.386 -10.447   0.400  0.00  0.00    +0.163 HD
ENDBRANCH   6  14
ENDBRANCH   1   2
BRANCH   1  17
ATOM     17  C   UNL     1       6.280  -4.793  -0.085  0.00  0.00    +0.174 C 
BRANCH  17  19
ATOM     18  N   UNL     1       4.942  -2.713  -0.060  0.00  0.00    -0.233 N 
ATOM     19  C   UNL     1       4.963  -4.061  -0.068  0.00  0.00    +0.239 C 
ATOM     20  O   UNL     1       3.923  -4.684  -0.061  0.00  0.00    -0.273 OA
ATOM     21  H   UNL     1       5.774  -2.215  -0.066  0.00  0.00    +0.173 HD
BRANCH  18  24
ATOM     22  C   UNL     1       3.696  -0.685  -0.037  0.00  0.00    +0.260 C 
ATOM     23  O   UNL     1       4.738  -0.060  -0.044  0.00  0.00    -0.269 OA
ATOM     24  N   UNL     1       3.717  -2.032  -0.045  0.00  0.00    -0.230 N 
ATOM     25  H   UNL     1       2.885  -2.531  -0.039  0.00  0.00    +0.173 HD
BRANCH  22  29
ATOM     26  C   UNL     1      -0.017   1.379   0.010  0.00  0.00    +0.000 A 
ATOM     27  C   UNL     1       1.168   2.094   0.002  0.00  0.00    +0.001 A 
ATOM     28  C   UNL     1       2.377   1.429  -0.013  0.00  0.00    +0.013 A 
ATOM     29  C   UNL     1       2.403   0.034  -0.021  0.00  0.00    +0.038 A 
ATOM     30  C   UNL     1       1.204  -0.681  -0.013  0.00  0.00    +0.013 A 
ATOM     31  C   UNL     1       0.002  -0.004   0.002  0.00  0.00    +0.001 A 
ENDBRANCH  22  29
ENDBRANCH  18  24
ENDBRANCH  17  19
ENDBRANCH   1  17
TORSDOF 7
