REMARK  Name = ZINC54940248
REMARK  5 active torsions:
REMARK  status: ('A' for Active; 'I' for Inactive)
REMARK    1  A    between atoms: C_1  and  C_2
REMARK    2  A    between atoms: C_2  and  C_4
REMARK    3  A    between atoms: C_2  and  N_10
REMARK    4  A    between atoms: C_13  and  N_16
REMARK    5  A    between atoms: C_17  and  C_19
REMARK                            x       y       z     vdW  Elec       q    Type
REMARK                         _______ _______ _______ _____ _____    ______ ____
ROOT
ATOM      1  N   UNL     1      -4.420  -0.738   1.608  0.00  0.00    -0.307 N 
ATOM      2  C   UNL     1      -5.357  -1.367   2.346  0.00  0.00    +0.300 C 
ATOM      3  O   UNL     1      -5.044  -2.299   3.057  0.00  0.00    -0.265 OA
ATOM      4  H   UNL     1      -4.670   0.007   1.040  0.00  0.00    +0.149 HD
ENDROOT
BRANCH   2   5
ATOM      5  C   UNL     1      -6.779  -0.916   2.288  0.00  0.00    +0.305 C 
ATOM      6  O   UNL     1      -7.092   0.016   1.577  0.00  0.00    -0.265 OA
ATOM      7  N   UNL     1      -7.716  -1.545   3.025  0.00  0.00    -0.257 N 
ATOM      8  C   UNL     1      -9.034  -1.127   2.972  0.00  0.00    +0.166 A 
ATOM      9  N   UNL     1      -9.561  -0.154   2.266  0.00  0.00    -0.225 NA
ATOM     10  C   UNL     1     -10.877   0.146   2.312  0.00  0.00    +0.080 A 
ATOM     11  C   UNL     1     -11.567   1.161   1.609  0.00  0.00    +0.029 A 
ATOM     12  C   UNL     1     -12.916   1.332   1.772  0.00  0.00    +0.002 A 
ATOM     13  C   UNL     1     -13.652   0.523   2.626  0.00  0.00    +0.001 A 
ATOM     14  C   UNL     1     -13.011  -0.480   3.329  0.00  0.00    +0.017 A 
ATOM     15  C   UNL     1     -11.659  -0.659   3.172  0.00  0.00    +0.041 A 
ATOM     16  S   UNL     1     -10.454  -1.782   3.839  0.00  0.00    -0.052 S 
ATOM     17  H   UNL     1      -7.466  -2.290   3.594  0.00  0.00    +0.157 HD
ENDBRANCH   2   5
BRANCH   1  21
ATOM     18  N   UNL     1      -1.376  -0.512   0.012  0.00  0.00    +0.385 N 
ATOM     19  C   UNL     1      -1.374  -1.996   0.092  0.00  0.00    -0.076 C 
ATOM     20  C   UNL     1      -2.782  -2.322   0.652  0.00  0.00    +0.002 C 
ATOM     21  C   UNL     1      -3.025  -1.181   1.665  0.00  0.00    +0.055 C 
ATOM     22  C   UNL     1      -2.083  -0.044   1.224  0.00  0.00    -0.056 C 
ATOM     23  H   UNL     1      -1.866  -0.208  -0.816  0.00  0.00    -0.081 HD
BRANCH  18  25
ATOM     24  C   UNL     1      -0.019   1.526   0.010  0.00  0.00    -0.008 C 
ATOM     25  C   UNL     1       0.002  -0.004   0.002  0.00  0.00    -0.041 C 
BRANCH  25  26
ATOM     26  C   UNL     1       0.707  -0.490  -1.238  0.00  0.00    -0.061 A 
ATOM     27  C   UNL     1       0.038  -0.522  -2.447  0.00  0.00    +0.002 A 
ATOM     28  C   UNL     1       0.685  -0.967  -3.584  0.00  0.00    +0.000 A 
ATOM     29  C   UNL     1       2.002  -1.381  -3.513  0.00  0.00    +0.000 A 
ATOM     30  C   UNL     1       2.672  -1.349  -2.304  0.00  0.00    +0.000 A 
ATOM     31  C   UNL     1       2.026  -0.899  -1.167  0.00  0.00    +0.002 A 
ENDBRANCH  25  26
ENDBRANCH  18  25
ENDBRANCH   1  21
TORSDOF 4
