REMARK  Name = ZINC06601703
REMARK  12 active torsions:
REMARK  status: ('A' for Active; 'I' for Inactive)
REMARK    1  A    between atoms: C_1  and  C_2
REMARK    2  A    between atoms: C_2  and  O_3
REMARK    3  A    between atoms: O_3  and  C_4
REMARK    4  A    between atoms: C_7  and  C_10
REMARK    5  A    between atoms: C_10  and  C_12
REMARK    6  A    between atoms: C_10  and  N_22
REMARK    7  A    between atoms: N_14  and  C_15
REMARK    8  A    between atoms: C_15  and  C_16
REMARK    9  A    between atoms: N_22  and  C_23
REMARK   10  A    between atoms: C_28  and  C_30
REMARK   11  A    between atoms: C_31  and  N_38
REMARK   12  A    between atoms: C_32  and  C_35
REMARK                            x       y       z     vdW  Elec       q    Type
REMARK                         _______ _______ _______ _____ _____    ______ ____
ROOT
ATOM      1  N   UNL     1       3.592  -1.259   0.037  0.00  0.00    -0.278 N 
ATOM      2  C   UNL     1       2.558  -0.417   0.236  0.00  0.00    +0.258 C 
ATOM      3  O   UNL     1       2.753   0.783   0.289  0.00  0.00    -0.269 OA
ENDROOT
BRANCH   1   4
ATOM      4  C   UNL     1       3.346  -2.693  -0.136  0.00  0.00    +0.077 C 
ATOM      5  C   UNL     1       4.686  -3.454  -0.208  0.00  0.00    +0.022 C 
ATOM      6  C   UNL     1       4.434  -4.567  -1.257  0.00  0.00    +0.002 C 
ATOM      7  C   UNL     1       3.549  -3.852  -2.308  0.00  0.00    +0.002 C 
ATOM      8  C   UNL     1       2.623  -2.946  -1.471  0.00  0.00    +0.022 C 
ENDBRANCH   1   4
BRANCH   2   9
ATOM      9  C   UNL     1       1.202  -0.947   0.389  0.00  0.00    +0.115 A 
ATOM     10  C   UNL     1       0.003  -0.262   0.596  0.00  0.00    +0.076 A 
ATOM     11  C   UNL     1      -1.092  -1.121   0.698  0.00  0.00    +0.155 A 
ATOM     12  N   UNL     1      -0.905  -2.418   0.586  0.00  0.00    -0.203 NA
ATOM     13  S   UNL     1       0.640  -2.636   0.361  0.00  0.00    +0.019 S 
BRANCH  11  14
ATOM     14  C   UNL     1      -2.445  -0.580   0.924  0.00  0.00    +0.262 C 
ATOM     15  O   UNL     1      -2.611   0.621   1.022  0.00  0.00    -0.269 OA
ATOM     16  N   UNL     1      -3.497  -1.416   1.022  0.00  0.00    -0.324 N 
ATOM     17  H   UNL     1      -3.365  -2.374   0.944  0.00  0.00    +0.145 HD
ATOM     18  H   UNL     1      -4.387  -1.060   1.171  0.00  0.00    +0.145 HD
ENDBRANCH  11  14
BRANCH  10  19
ATOM     19  N   UNL     1      -0.089   1.119   0.694  0.00  0.00    -0.355 N 
ATOM     20  H   UNL     1       0.709   1.665   0.618  0.00  0.00    +0.142 HD
ATOM     21  H   UNL     1      -0.953   1.539   0.834  0.00  0.00    +0.142 HD
ENDBRANCH  10  19
ENDBRANCH   2   9
BRANCH   1  22
ATOM     22  C   UNL     1       4.961  -0.741  -0.005  0.00  0.00    +0.193 C 
BRANCH  22  26
ATOM     23  C   UNL     1       6.719  -1.668  -3.789  0.00  0.00    +0.121 A 
ATOM     24  C   UNL     1       5.393  -1.264  -3.718  0.00  0.00    +0.046 A 
ATOM     25  C   UNL     1       4.827  -0.965  -2.494  0.00  0.00    +0.009 A 
ATOM     26  C   UNL     1       5.581  -1.068  -1.339  0.00  0.00    -0.018 A 
ATOM     27  C   UNL     1       6.904  -1.464  -1.407  0.00  0.00    +0.009 A 
ATOM     28  C   UNL     1       7.473  -1.770  -2.629  0.00  0.00    +0.046 A 
BRANCH  23  29
ATOM     29  O   UNL     1       7.278  -1.962  -4.992  0.00  0.00    -0.492 OA
BRANCH  29  31
ATOM     30  C   UNL     1       9.098  -2.657  -6.422  0.00  0.00    +0.048 C 
ATOM     31  C   UNL     1       8.647  -2.371  -4.989  0.00  0.00    +0.225 C 
ENDBRANCH  29  31
ENDBRANCH  23  29
ENDBRANCH  22  26
BRANCH  22  32
ATOM     32  C   UNL     1       5.773  -1.375   1.095  0.00  0.00    +0.238 C 
ATOM     33  O   UNL     1       5.276  -2.225   1.802  0.00  0.00    -0.273 OA
ATOM     34  N   UNL     1       7.052  -0.997   1.292  0.00  0.00    -0.311 N 
ATOM     35  H   UNL     1       7.426  -0.265   0.777  0.00  0.00    +0.149 HD
BRANCH  34  36
ATOM     36  C   UNL     1       7.875  -1.690   2.285  0.00  0.00    +0.135 C 
BRANCH  36  37
ATOM     37  C   UNL     1       9.274  -1.070   2.311  0.00  0.00    +0.135 C 
ATOM     38  C   UNL     1      10.151  -1.798   3.348  0.00  0.00    +0.035 C 
ATOM     39  C   UNL     1      11.349  -2.330   2.524  0.00  0.00    +0.031 C 
ATOM     40  C   UNL     1      11.315  -1.416   1.273  0.00  0.00    +0.160 C 
ATOM     41  O   UNL     1       9.902  -1.228   1.028  0.00  0.00    -0.375 OA
ENDBRANCH  36  37
ENDBRANCH  34  36
ENDBRANCH  22  32
ENDBRANCH   1  22
TORSDOF 11
