REMARK  Name = ZINC12138047
REMARK  11 active torsions:
REMARK  status: ('A' for Active; 'I' for Inactive)
REMARK    1  A    between atoms: C_1  and  C_2
REMARK    2  A    between atoms: C_2  and  C_3
REMARK    3  A    between atoms: C_2  and  C_4
REMARK    4  A    between atoms: C_2  and  C_5
REMARK    5  A    between atoms: N_7  and  C_8
REMARK    6  A    between atoms: C_8  and  N_10
REMARK    7  A    between atoms: N_10  and  C_11
REMARK    8  A    between atoms: C_16  and  C_17
REMARK    9  A    between atoms: C_24  and  C_25
REMARK   10  A    between atoms: C_24  and  C_31
REMARK   11  A    between atoms: C_24  and  N_71
REMARK                            x       y       z     vdW  Elec       q    Type
REMARK                         _______ _______ _______ _____ _____    ______ ____
ROOT
ATOM      1  C   UNL     1      -2.616  -2.961   4.445  0.00  0.00    +0.248 C 
ATOM      2  O   UNL     1      -2.537  -4.171   4.534  0.00  0.00    -0.270 OA
ATOM      3  N   UNL     1      -2.957  -2.393   3.271  0.00  0.00    -0.301 N 
ATOM      4  C   UNL     1      -3.147  -3.210   2.063  0.00  0.00    +0.089 C 
ATOM      5  C   UNL     1      -2.312  -2.605   0.930  0.00  0.00    -0.058 C 
ATOM      6  C   UNL     1      -2.312  -0.423   1.987  0.00  0.00    -0.058 C 
ATOM      7  C   UNL     1      -3.147  -0.938   3.164  0.00  0.00    +0.089 C 
ATOM      8  N   UNL     1      -2.683  -1.182   0.773  0.00  0.00    +0.389 N 
ATOM      9  H   UNL     1      -3.699  -1.116   0.637  0.00  0.00    -0.080 HD
ENDROOT
BRANCH   1  15
ATOM     10  C   UNL     1      -1.132  -2.255   6.322  0.00  0.00    +0.045 A 
ATOM     11  C   UNL     1      -0.882  -1.453   7.428  0.00  0.00    +0.024 A 
ATOM     12  C   UNL     1      -1.819  -0.524   7.834  0.00  0.00    +0.002 A 
ATOM     13  C   UNL     1      -3.012  -0.383   7.143  0.00  0.00    +0.001 A 
ATOM     14  C   UNL     1      -3.274  -1.166   6.040  0.00  0.00    +0.015 A 
ATOM     15  C   UNL     1      -2.339  -2.115   5.621  0.00  0.00    +0.058 A 
BRANCH  10  16
ATOM     16  N   UNL     1      -0.189  -3.193   5.911  0.00  0.00    -0.296 N 
ATOM     17  H   UNL     1       0.062  -3.251   4.976  0.00  0.00    +0.154 HD
BRANCH  16  18
ATOM     18  C   UNL     1       0.376  -4.021   6.813  0.00  0.00    +0.141 C 
ATOM     19  S   UNL     1       0.029  -3.836   8.479  0.00  0.00    -0.018 S 
BRANCH  18  22
ATOM     20  C   UNL     1       1.777  -5.822   7.304  0.00  0.00    +0.224 C 
ATOM     21  O   UNL     1       1.531  -5.691   8.484  0.00  0.00    -0.275 OA
ATOM     22  N   UNL     1       1.213  -4.994   6.402  0.00  0.00    -0.267 N 
ATOM     23  H   UNL     1       1.409  -5.099   5.458  0.00  0.00    +0.157 HD
BRANCH  20  25
ATOM     24  C   UNL     1       3.210  -7.701   8.057  0.00  0.00    +0.020 C 
ATOM     25  C   UNL     1       2.713  -6.910   6.845  0.00  0.00    +0.039 C 
ATOM     26  C   UNL     1       1.973  -7.851   5.892  0.00  0.00    +0.020 C 
ATOM     27  C   UNL     1       3.906  -6.285   6.120  0.00  0.00    +0.020 C 
ENDBRANCH  20  25
ENDBRANCH  18  22
ENDBRANCH  16  18
ENDBRANCH  10  16
ENDBRANCH   1  15
BRANCH   8  28
ATOM     28  C   UNL     1      -2.003  -0.610  -0.407  0.00  0.00    -0.007 C 
BRANCH  28  29
ATOM     29  C   UNL     1      -2.376   0.845  -0.529  0.00  0.00    -0.057 A 
ATOM     30  C   UNL     1      -3.670   1.252  -0.260  0.00  0.00    +0.002 A 
ATOM     31  C   UNL     1      -4.011   2.587  -0.367  0.00  0.00    +0.000 A 
ATOM     32  C   UNL     1      -3.061   3.514  -0.753  0.00  0.00    +0.000 A 
ATOM     33  C   UNL     1      -1.769   3.107  -1.028  0.00  0.00    +0.000 A 
ATOM     34  C   UNL     1      -1.426   1.772  -0.915  0.00  0.00    +0.002 A 
ENDBRANCH  28  29
BRANCH  28  35
ATOM     35  C   UNL     1      -2.458  -1.350  -1.638  0.00  0.00    -0.057 A 
ATOM     36  C   UNL     1      -3.779  -1.740  -1.762  0.00  0.00    +0.002 A 
ATOM     37  C   UNL     1      -4.197  -2.415  -2.893  0.00  0.00    +0.000 A 
ATOM     38  C   UNL     1      -3.293  -2.708  -3.897  0.00  0.00    +0.000 A 
ATOM     39  C   UNL     1      -1.971  -2.323  -3.771  0.00  0.00    +0.000 A 
ATOM     40  C   UNL     1      -1.554  -1.644  -2.642  0.00  0.00    +0.002 A 
ENDBRANCH  28  35
ENDBRANCH   8  28
TORSDOF 8
