REMARK  Name = ZINC43666561
REMARK  5 active torsions:
REMARK  status: ('A' for Active; 'I' for Inactive)
REMARK    1  A    between atoms: C_1  and  C_2
REMARK    2  A    between atoms: C_2  and  C_3
REMARK    3  A    between atoms: C_6  and  C_9
REMARK    4  A    between atoms: C_9  and  N_10
REMARK    5  A    between atoms: C_11  and  N_16
REMARK                            x       y       z     vdW  Elec       q    Type
REMARK                         _______ _______ _______ _____ _____    ______ ____
ROOT
ATOM      1  C   UNL     1      -5.419  -2.005   0.043  0.00  0.00    +0.180 C 
ENDROOT
BRANCH   1   5
ATOM      2  C   UNL     1      -1.412  -0.526   0.013  0.00  0.00    -0.048 A 
ATOM      3  C   UNL     1      -2.051  -0.766   1.215  0.00  0.00    +0.004 A 
ATOM      4  C   UNL     1      -3.348  -1.244   1.225  0.00  0.00    +0.006 A 
ATOM      5  C   UNL     1      -4.006  -1.482   0.032  0.00  0.00    -0.026 A 
ATOM      6  C   UNL     1      -3.367  -1.241  -1.170  0.00  0.00    +0.006 A 
ATOM      7  C   UNL     1      -2.072  -0.758  -1.179  0.00  0.00    +0.004 A 
BRANCH   2   9
ATOM      8  C   UNL     1      -0.019   1.526   0.010  0.00  0.00    +0.009 C 
ATOM      9  C   UNL     1       0.002  -0.004   0.002  0.00  0.00    +0.032 C 
ENDBRANCH   2   9
ENDBRANCH   1   5
BRANCH   1  10
ATOM     10  N   UNL     1      -6.356  -0.879   0.052  0.00  0.00    -0.246 N 
ATOM     11  C   UNL     1      -6.854  -0.262   1.155  0.00  0.00    +0.128 A 
ATOM     12  C   UNL     1      -7.685   0.730   0.729  0.00  0.00    +0.072 A 
ATOM     13  C   UNL     1      -7.689   0.713  -0.669  0.00  0.00    +0.150 A 
ATOM     14  N   UNL     1      -6.893  -0.242  -1.074  0.00  0.00    -0.177 NA
ATOM     15  I   UNL     1      -8.764   2.046   1.950  0.00  0.00    -0.039 I 
BRANCH  11  16
ATOM     16  N   UNL     1      -6.569  -0.585   2.479  0.00  0.00    -0.343 N 
ATOM     17  H   UNL     1      -5.961  -1.313   2.681  0.00  0.00    +0.144 HD
ATOM     18  H   UNL     1      -6.978  -0.081   3.200  0.00  0.00    +0.144 HD
ENDBRANCH  11  16
ENDBRANCH   1  10
TORSDOF 4
