REMARK  Name = ZINC40097441
REMARK  5 active torsions:
REMARK  status: ('A' for Active; 'I' for Inactive)
REMARK    1  A    between atoms: C_1  and  C_2
REMARK    2  A    between atoms: C_5  and  C_7
REMARK    3  A    between atoms: C_7  and  C_9
REMARK    4  A    between atoms: C_7  and  N_10
REMARK    5  A    between atoms: N_13  and  C_14
REMARK                            x       y       z     vdW  Elec       q    Type
REMARK                         _______ _______ _______ _____ _____    ______ ____
ROOT
ATOM      1  N   UNL     1       2.800  -2.962  -0.928  0.00  0.00    -0.290 N 
ATOM      2  C   UNL     1       3.489  -3.975  -1.488  0.00  0.00    +0.304 C 
ATOM      3  O   UNL     1       3.172  -5.126  -1.257  0.00  0.00    -0.252 OA
ATOM      4  N   UNL     1       4.531  -3.713  -2.302  0.00  0.00    -0.267 N 
ATOM      5  H   UNL     1       3.053  -2.043  -1.112  0.00  0.00    +0.151 HD
ATOM      6  H   UNL     1       4.744  -2.797  -2.538  0.00  0.00    +0.156 HD
ENDROOT
BRANCH   4   7
ATOM      7  C   UNL     1       5.306  -4.765  -2.809  0.00  0.00    +0.070 A 
ATOM      8  C   UNL     1       4.711  -5.980  -3.119  0.00  0.00    +0.027 A 
ATOM      9  C   UNL     1       5.477  -7.015  -3.619  0.00  0.00    +0.017 A 
ATOM     10  C   UNL     1       6.836  -6.843  -3.811  0.00  0.00    +0.021 A 
ATOM     11  C   UNL     1       7.433  -5.634  -3.503  0.00  0.00    +0.055 A 
ATOM     12  C   UNL     1       6.671  -4.592  -3.008  0.00  0.00    +0.146 A 
ATOM     13  F   UNL     1       7.252  -3.409  -2.712  0.00  0.00    -0.204 F 
ATOM     14 BR   UNL     1       7.880  -8.264  -4.495  0.00  0.00    -0.050 Br
ENDBRANCH   4   7
BRANCH   1  15
ATOM     15  C   UNL     1       1.668  -3.246  -0.043  0.00  0.00    +0.137 C 
ATOM     16  C   UNL     1       2.180  -3.487   1.378  0.00  0.00    +0.036 C 
BRANCH  15  21
ATOM     17  C   UNL     1      -0.051   1.496  -0.040  0.00  0.00    +0.086 C 
ATOM     18  C   UNL     1      -0.026  -0.011  -0.042  0.00  0.00    +0.102 A 
ATOM     19  C   UNL     1      -1.103  -0.816  -0.045  0.00  0.00    +0.045 A 
ATOM     20  C   UNL     1      -0.621  -2.146  -0.046  0.00  0.00    +0.047 A 
ATOM     21  C   UNL     1       0.722  -2.073  -0.044  0.00  0.00    +0.125 A 
ATOM     22  O   UNL     1       1.077  -0.778  -0.047  0.00  0.00    -0.463 OA
ENDBRANCH  15  21
ENDBRANCH   1  15
TORSDOF 3
