REMARK  Name = ZINC09789063
REMARK  7 active torsions:
REMARK  status: ('A' for Active; 'I' for Inactive)
REMARK    1  A    between atoms: C_1  and  C_2
REMARK    2  A    between atoms: C_2  and  C_26
REMARK    3  A    between atoms: N_5  and  C_9
REMARK    4  A    between atoms: C_9  and  C_10
REMARK    5  A    between atoms: N_12  and  C_13
REMARK    6  A    between atoms: C_13  and  C_15
REMARK    7  A    between atoms: C_13  and  C_21
REMARK                            x       y       z     vdW  Elec       q    Type
REMARK                         _______ _______ _______ _____ _____    ______ ____
ROOT
ATOM      1  C   UNL     1       0.309   7.308   5.572  0.00  0.00    +0.050 C 
ATOM      2  C   UNL     1       0.495   6.802   4.140  0.00  0.00    +0.168 C 
ATOM      3  C   UNL     1       0.381   5.292   4.090  0.00  0.00    +0.254 C 
ATOM      4  O   UNL     1       1.086   4.485   4.657  0.00  0.00    -0.272 OA
ATOM      5  N   UNL     1      -0.667   5.032   3.283  0.00  0.00    -0.215 N 
ATOM      6  C   UNL     1      -1.229   6.157   2.827  0.00  0.00    +0.310 C 
ATOM      7  O   UNL     1      -2.192   6.179   2.086  0.00  0.00    -0.252 OA
ATOM      8  N   UNL     1      -0.610   7.262   3.281  0.00  0.00    -0.279 N 
ATOM      9  H   UNL     1      -0.845   8.181   3.081  0.00  0.00    +0.152 HD
ENDROOT
BRANCH   2  10
ATOM     10  C   UNL     1       1.821   7.257   3.587  0.00  0.00    +0.138 A 
ATOM     11  C   UNL     1       2.016   8.387   2.894  0.00  0.00    +0.056 A 
ATOM     12  C   UNL     1       3.446   8.422   2.563  0.00  0.00    +0.020 A 
ATOM     13  C   UNL     1       4.265   9.314   1.873  0.00  0.00    +0.011 A 
ATOM     14  C   UNL     1       5.598   9.041   1.733  0.00  0.00    +0.001 A 
ATOM     15  C   UNL     1       6.138   7.882   2.272  0.00  0.00    +0.004 A 
ATOM     16  C   UNL     1       5.343   6.988   2.957  0.00  0.00    +0.047 A 
ATOM     17  C   UNL     1       3.987   7.247   3.111  0.00  0.00    +0.135 A 
ATOM     18  O   UNL     1       2.978   6.584   3.713  0.00  0.00    -0.457 OA
ENDBRANCH   2  10
BRANCH   5  19
ATOM     19  C   UNL     1      -1.135   3.684   2.951  0.00  0.00    +0.213 C 
BRANCH  19  20
ATOM     20  C   UNL     1      -0.430   3.198   1.711  0.00  0.00    +0.232 C 
ATOM     21  O   UNL     1       0.384   3.908   1.159  0.00  0.00    -0.274 OA
ATOM     22  N   UNL     1      -0.704   1.975   1.216  0.00  0.00    -0.303 N 
ATOM     23  H   UNL     1      -1.355   1.408   1.657  0.00  0.00    +0.150 HD
BRANCH  22  24
ATOM     24  C   UNL     1      -0.018   1.503   0.010  0.00  0.00    +0.140 C 
BRANCH  24  25
ATOM     25  C   UNL     1       0.002  -0.004   0.002  0.00  0.00    -0.022 A 
ATOM     26  C   UNL     1      -1.107  -0.713   0.424  0.00  0.00    +0.006 A 
ATOM     27  C   UNL     1      -1.090  -2.095   0.411  0.00  0.00    +0.000 A 
ATOM     28  C   UNL     1       0.040  -2.768  -0.012  0.00  0.00    +0.000 A 
ATOM     29  C   UNL     1       1.151  -2.060  -0.429  0.00  0.00    +0.000 A 
ATOM     30  C   UNL     1       1.132  -0.678  -0.422  0.00  0.00    +0.006 A 
ENDBRANCH  24  25
BRANCH  24  31
ATOM     31  C   UNL     1      -0.747   2.002  -1.211  0.00  0.00    +0.014 A 
ATOM     32  C   UNL     1      -0.238   2.472  -2.376  0.00  0.00    +0.013 A 
ATOM     33  C   UNL     1      -1.107   2.880  -3.370  0.00  0.00    +0.008 A 
ATOM     34  C   UNL     1      -2.442   2.797  -3.152  0.00  0.00    +0.045 A 
ATOM     35  S   UNL     1      -2.505   2.120  -1.501  0.00  0.00    -0.099 S 
ENDBRANCH  24  31
ENDBRANCH  22  24
ENDBRANCH  19  20
ENDBRANCH   5  19
TORSDOF 6
