REMARK  Name = ZINC08869224
REMARK  6 active torsions:
REMARK  status: ('A' for Active; 'I' for Inactive)
REMARK    1  A    between atoms: C_1  and  C_2
REMARK    2  A    between atoms: C_5  and  S_8
REMARK    3  A    between atoms: S_8  and  N_11
REMARK    4  A    between atoms: C_15  and  C_17
REMARK    5  A    between atoms: C_22  and  C_25
REMARK    6  A    between atoms: C_28  and  C_31
REMARK                            x       y       z     vdW  Elec       q    Type
REMARK                         _______ _______ _______ _____ _____    ______ ____
ROOT
ATOM      1  C   UNL     1       5.123  -2.775  -0.064  0.00  0.00    +0.238 C 
ATOM      2  O   UNL     1       6.065  -2.011  -0.068  0.00  0.00    -0.274 OA
ATOM      3  N   UNL     1       3.865  -2.294  -0.049  0.00  0.00    -0.263 N 
ATOM      4  C   UNL     1       3.646  -0.922  -0.039  0.00  0.00    +0.165 A 
ATOM      5  N   UNL     1       2.505  -0.258  -0.024  0.00  0.00    -0.225 NA
ATOM      6  C   UNL     1       2.479   1.066  -0.016  0.00  0.00    +0.080 A 
ATOM      7  C   UNL     1       3.658   1.760  -0.029  0.00  0.00    +0.076 A 
ATOM      8  S   UNL     1       4.835   0.413  -0.043  0.00  0.00    -0.060 S 
ATOM      9  H   UNL     1       3.112  -2.905  -0.045  0.00  0.00    +0.157 HD
ENDROOT
BRANCH   6  10
ATOM     10  C   UNL     1       1.186   1.790   0.000  0.00  0.00    +0.001 A 
ATOM     11  C   UNL     1      -0.013   1.076   0.008  0.00  0.00    +0.010 A 
ATOM     12  C   UNL     1      -1.214   1.748   0.017  0.00  0.00    +0.009 A 
ATOM     13  C   UNL     1      -1.234   3.143   0.030  0.00  0.00    -0.018 A 
ATOM     14  C   UNL     1      -0.035   3.857   0.022  0.00  0.00    +0.009 A 
ATOM     15  C   UNL     1       1.167   3.185   0.007  0.00  0.00    +0.010 A 
BRANCH  13  16
ATOM     16  C   UNL     1      -2.528   3.866   0.046  0.00  0.00    -0.018 A 
ATOM     17  C   UNL     1      -2.550   5.260   0.059  0.00  0.00    +0.008 A 
ATOM     18  C   UNL     1      -3.757   5.928   0.070  0.00  0.00    +0.001 A 
ATOM     19  C   UNL     1      -4.944   5.218   0.077  0.00  0.00    +0.000 A 
ATOM     20  C   UNL     1      -4.928   3.834   0.069  0.00  0.00    +0.001 A 
ATOM     21  C   UNL     1      -3.727   3.156   0.054  0.00  0.00    +0.008 A 
ENDBRANCH  13  16
ENDBRANCH   6  10
BRANCH   1  26
ATOM     22  N   UNL     1       6.805  -4.539  -0.098  0.00  0.00    -0.165 NA
ATOM     23  C   UNL     1       7.118  -5.317  -1.310  0.00  0.00    +0.110 C 
ATOM     24  C   UNL     1       5.978  -4.980  -2.304  0.00  0.00    +0.019 C 
ATOM     25  C   UNL     1       4.752  -4.882  -1.351  0.00  0.00    +0.031 C 
ATOM     26  C   UNL     1       5.361  -4.263  -0.075  0.00  0.00    +0.166 C 
BRANCH  22  27
ATOM     27  S   UNL     1       7.898  -4.055   1.047  0.00  0.00    +0.062 S 
ATOM     28  O   UNL     1       9.167  -4.017   0.408  0.00  0.00    -0.153 OA
ATOM     29  O   UNL     1       7.336  -2.920   1.692  0.00  0.00    -0.153 OA
BRANCH  27  34
ATOM     30  C   UNL     1       8.188  -8.427   5.196  0.00  0.00    +0.044 C 
ATOM     31  C   UNL     1       8.116  -7.334   4.160  0.00  0.00    -0.050 A 
ATOM     32  C   UNL     1       8.963  -7.361   3.068  0.00  0.00    +0.005 A 
ATOM     33  C   UNL     1       8.896  -6.360   2.117  0.00  0.00    +0.029 A 
ATOM     34  C   UNL     1       7.983  -5.332   2.259  0.00  0.00    +0.106 A 
ATOM     35  C   UNL     1       7.140  -5.302   3.354  0.00  0.00    +0.029 A 
ATOM     36  C   UNL     1       7.204  -6.306   4.303  0.00  0.00    +0.005 A 
ENDBRANCH  27  34
ENDBRANCH  22  27
ENDBRANCH   1  26
TORSDOF 5
