REMARK  Name = ZINC46809215
REMARK  8 active torsions:
REMARK  status: ('A' for Active; 'I' for Inactive)
REMARK    1  A    between atoms: C_1  and  C_2
REMARK    2  A    between atoms: N_8  and  C_9
REMARK    3  A    between atoms: C_9  and  C_10
REMARK    4  A    between atoms: C_13  and  C_16
REMARK    5  A    between atoms: C_16  and  N_17
REMARK    6  A    between atoms: C_18  and  C_20
REMARK    7  A    between atoms: N_25  and  S_27
REMARK    8  A    between atoms: S_27  and  C_30
REMARK                            x       y       z     vdW  Elec       q    Type
REMARK                         _______ _______ _______ _____ _____    ______ ____
ROOT
ATOM      1  N   UNL     1       4.288  -2.261   6.645  0.00  0.00    -0.311 N 
ATOM      2  C   UNL     1       5.150  -2.728   7.570  0.00  0.00    +0.218 C 
ATOM      3  O   UNL     1       4.964  -2.493   8.745  0.00  0.00    -0.275 OA
ATOM      4  H   UNL     1       4.437  -2.449   5.705  0.00  0.00    +0.149 HD
ENDROOT
BRANCH   2   5
ATOM      5  C   UNL     1       6.345  -3.541   7.144  0.00  0.00    +0.091 C 
ATOM      6  C   UNL     1       5.873  -4.800   6.414  0.00  0.00    +0.015 C 
ATOM      7  C   UNL     1       7.086  -5.610   5.952  0.00  0.00    +0.018 C 
ATOM      8  C   UNL     1       7.904  -6.038   7.174  0.00  0.00    +0.109 C 
ATOM      9  N   UNL     1       8.240  -4.843   7.961  0.00  0.00    -0.176 NA
ATOM     10  C   UNL     1       7.155  -3.945   8.380  0.00  0.00    +0.122 C 
BRANCH   9  11
ATOM     11  S   UNL     1       9.811  -4.516   8.369  0.00  0.00    +0.061 S 
ATOM     12  O   UNL     1       9.767  -3.694   9.527  0.00  0.00    -0.153 OA
ATOM     13  O   UNL     1      10.505  -5.755   8.340  0.00  0.00    -0.153 OA
BRANCH  11  14
ATOM     14  C   UNL     1      10.489  -3.529   7.077  0.00  0.00    +0.106 A 
ATOM     15  C   UNL     1      11.105  -4.133   5.996  0.00  0.00    +0.031 A 
ATOM     16  C   UNL     1      11.637  -3.360   4.982  0.00  0.00    +0.040 A 
ATOM     17  C   UNL     1      11.553  -1.979   5.048  0.00  0.00    +0.124 A 
ATOM     18  C   UNL     1      10.936  -1.375   6.130  0.00  0.00    +0.040 A 
ATOM     19  C   UNL     1      10.400  -2.151   7.141  0.00  0.00    +0.031 A 
ATOM     20  F   UNL     1      12.073  -1.223   4.057  0.00  0.00    -0.205 F 
ENDBRANCH  11  14
ENDBRANCH   9  11
ENDBRANCH   2   5
BRANCH   1  21
ATOM     21  C   UNL     1       3.126  -1.471   7.059  0.00  0.00    +0.139 C 
BRANCH  21  25
ATOM     22  C   UNL     1       0.865  -0.347   3.613  0.00  0.00    -0.064 A 
ATOM     23  C   UNL     1       0.585  -1.532   4.268  0.00  0.00    +0.002 A 
ATOM     24  C   UNL     1       1.316  -1.895   5.383  0.00  0.00    +0.005 A 
ATOM     25  C   UNL     1       2.329  -1.075   5.843  0.00  0.00    -0.030 A 
ATOM     26  C   UNL     1       2.610   0.110   5.187  0.00  0.00    +0.005 A 
ATOM     27  C   UNL     1       1.881   0.471   4.070  0.00  0.00    +0.002 A 
BRANCH  22  28
ATOM     28  C   UNL     1       0.067   0.050   2.397  0.00  0.00    -0.043 C 
BRANCH  28  35
ATOM     29  C   UNL     1      -0.019   1.526   0.010  0.00  0.00    -0.013 C 
ATOM     30  C   UNL     1       0.002  -0.004   0.002  0.00  0.00    -0.071 C 
ATOM     31  C   UNL     1       0.717  -0.497  -1.258  0.00  0.00    -0.016 C 
ATOM     32  C   UNL     1       0.735  -2.028  -1.262  0.00  0.00    -0.003 C 
ATOM     33  C   UNL     1       1.410  -2.524   0.020  0.00  0.00    -0.019 C 
ATOM     34  C   UNL     1       0.669  -1.956   1.232  0.00  0.00    -0.078 C 
ATOM     35  N   UNL     1       0.711  -0.490   1.192  0.00  0.00    +0.384 N 
ATOM     36  H   UNL     1       1.671  -0.182   1.159  0.00  0.00    -0.081 HD
ENDBRANCH  28  35
ENDBRANCH  22  28
ENDBRANCH  21  25
ENDBRANCH   1  21
TORSDOF 7
