REMARK  Name = ZINC13244541
REMARK  8 active torsions:
REMARK  status: ('A' for Active; 'I' for Inactive)
REMARK    1  A    between atoms: C_4  and  N_7
REMARK    2  A    between atoms: C_8  and  C_26
REMARK    3  A    between atoms: C_11  and  S_12
REMARK    4  A    between atoms: S_12  and  C_13
REMARK    5  A    between atoms: C_13  and  C_14
REMARK    6  A    between atoms: N_16  and  C_17
REMARK    7  A    between atoms: C_22  and  C_23
REMARK    8  A    between atoms: C_26  and  C_27
REMARK                            x       y       z     vdW  Elec       q    Type
REMARK                         _______ _______ _______ _____ _____    ______ ____
ROOT
ATOM      1  N   UNL     1       0.004   1.053   4.089  0.00  0.00    -0.274 N 
ATOM      2  C   UNL     1       1.029   0.330   4.641  0.00  0.00    +0.143 A 
ATOM      3  N   UNL     1       1.729  -0.162   3.659  0.00  0.00    -0.133 NA
ATOM      4  N   UNL     1       1.221   0.191   2.532  0.00  0.00    -0.122 NA
ATOM      5  C   UNL     1       0.164   0.943   2.735  0.00  0.00    +0.197 A 
ENDROOT
BRANCH   1   9
ATOM      6  C   UNL     1      -2.978   3.148   6.114  0.00  0.00    +0.000 A 
ATOM      7  C   UNL     1      -3.310   2.055   5.334  0.00  0.00    +0.002 A 
ATOM      8  C   UNL     1      -2.324   1.359   4.662  0.00  0.00    +0.026 A 
ATOM      9  C   UNL     1      -0.999   1.758   4.770  0.00  0.00    +0.050 A 
ATOM     10  C   UNL     1      -0.668   2.852   5.558  0.00  0.00    +0.026 A 
ATOM     11  C   UNL     1      -1.659   3.547   6.223  0.00  0.00    +0.002 A 
ENDBRANCH   1   9
BRANCH   5  12
ATOM     12  S   UNL     1      -0.861   1.666   1.497  0.00  0.00    -0.076 S 
BRANCH  12  13
ATOM     13  C   UNL     1      -0.018   1.076   0.007  0.00  0.00    +0.173 C 
BRANCH  13  14
ATOM     14  C   UNL     1      -0.740   1.586  -1.213  0.00  0.00    +0.228 C 
ATOM     15  O   UNL     1      -1.726   2.280  -1.089  0.00  0.00    -0.275 OA
ATOM     16  N   UNL     1      -0.289   1.270  -2.444  0.00  0.00    -0.284 N 
ATOM     17  H   UNL     1       0.544   0.783  -2.545  0.00  0.00    +0.155 HD
BRANCH  16  18
ATOM     18  C   UNL     1      -1.018   1.644  -3.570  0.00  0.00    +0.048 A 
ATOM     19  C   UNL     1      -2.388   1.850  -3.477  0.00  0.00    +0.025 A 
ATOM     20  C   UNL     1      -3.110   2.221  -4.593  0.00  0.00    +0.022 A 
ATOM     21  C   UNL     1      -2.475   2.390  -5.814  0.00  0.00    +0.042 A 
ATOM     22  C   UNL     1      -1.115   2.189  -5.926  0.00  0.00    +0.037 A 
ATOM     23  C   UNL     1      -0.372   1.819  -4.803  0.00  0.00    +0.086 A 
ATOM     24 CL   UNL     1      -3.397   2.857  -7.210  0.00  0.00    -0.084 Cl
BRANCH  23  25
ATOM     25  C   UNL     1       1.083   1.608  -4.913  0.00  0.00    +0.388 C 
ATOM     26  O   UNL     1       1.711   1.196  -3.958  0.00  0.00    -0.241 OA
ATOM     27  O   UNL     1       1.716   1.873  -6.073  0.00  0.00    -0.241 OA
ENDBRANCH  23  25
ENDBRANCH  16  18
ENDBRANCH  13  14
ENDBRANCH  12  13
ENDBRANCH   5  12
BRANCH   2  28
ATOM     28  C   UNL     1       1.296   0.140   6.112  0.00  0.00    +0.119 C 
BRANCH  28  29
ATOM     29  C   UNL     1       0.567  -1.084   6.601  0.00  0.00    -0.003 A 
ATOM     30  C   UNL     1       0.994  -2.370   6.649  0.00  0.00    +0.011 A 
ATOM     31  C   UNL     1       0.143  -3.341   7.144  0.00  0.00    +0.008 A 
ATOM     32  C   UNL     1      -1.093  -2.978   7.567  0.00  0.00    +0.045 A 
ATOM     33  S   UNL     1      -1.081  -1.217   7.275  0.00  0.00    -0.101 S 
ENDBRANCH  28  29
ENDBRANCH   2  28
TORSDOF 8
