REMARK  Name = ZINC09490179
REMARK  8 active torsions:
REMARK  status: ('A' for Active; 'I' for Inactive)
REMARK    1  A    between atoms: C_1  and  O_2
REMARK    2  A    between atoms: O_2  and  C_3
REMARK    3  A    between atoms: C_5  and  O_36
REMARK    4  A    between atoms: C_8  and  N_9
REMARK    5  A    between atoms: C_10  and  C_12
REMARK    6  A    between atoms: C_15  and  N_19
REMARK    7  A    between atoms: C_16  and  N_18
REMARK    8  A    between atoms: O_36  and  C_37
REMARK                            x       y       z     vdW  Elec       q    Type
REMARK                         _______ _______ _______ _____ _____    ______ ____
ROOT
ATOM      1  C   UNL     1       1.518   0.301   8.555  0.00  0.00    +0.039 A 
ATOM      2  C   UNL     1       2.691  -0.454   8.471  0.00  0.00    +0.015 A 
ATOM      3  C   UNL     1       3.379  -0.789   9.617  0.00  0.00    +0.026 A 
ATOM      4  C   UNL     1       2.903  -0.387  10.860  0.00  0.00    +0.051 A 
ATOM      5  C   UNL     1       1.728   0.363  10.951  0.00  0.00    +0.047 A 
ATOM      6  C   UNL     1       1.037   0.706   9.804  0.00  0.00    +0.037 A 
ENDROOT
BRANCH   4   7
ATOM      7  N   UNL     1       3.600  -0.733  12.016  0.00  0.00    -0.328 N 
ATOM      8  C   UNL     1       4.636  -1.730  11.727  0.00  0.00    +0.110 C 
ATOM      9  C   UNL     1       5.356  -2.154  12.999  0.00  0.00    +0.027 C 
ATOM     10  C   UNL     1       5.942  -0.926  13.726  0.00  0.00    +0.018 C 
ATOM     11  C   UNL     1       4.775   0.027  14.009  0.00  0.00    +0.053 C 
ATOM     12  C   UNL     1       4.175   0.458  12.661  0.00  0.00    +0.114 C 
ATOM     13  C   UNL     1       3.696  -0.706  14.775  0.00  0.00    +0.027 A 
ATOM     14  C   UNL     1       2.917   0.024  15.616  0.00  0.00    +0.022 A 
ATOM     15  C   UNL     1       1.858  -0.578  16.305  0.00  0.00    +0.007 A 
ATOM     16  C   UNL     1       1.605  -1.902  16.098  0.00  0.00    +0.070 A 
ATOM     17  C   UNL     1       2.426  -2.625  15.220  0.00  0.00    +0.251 A 
ATOM     18  O   UNL     1       2.169  -3.793  14.976  0.00  0.00    -0.268 OA
ATOM     19  N   UNL     1       3.502  -2.038  14.641  0.00  0.00    -0.312 N 
ATOM     20  C   UNL     1       4.438  -2.917  13.939  0.00  0.00    +0.130 C 
ENDBRANCH   4   7
BRANCH   1  22
ATOM     21  N   UNL     1       1.248   0.273   6.125  0.00  0.00    -0.279 N 
ATOM     22  C   UNL     1       0.784   0.665   7.328  0.00  0.00    +0.248 C 
ATOM     23  O   UNL     1      -0.239   1.318   7.403  0.00  0.00    -0.270 OA
ATOM     24  H   UNL     1       2.018  -0.313   6.069  0.00  0.00    +0.155 HD
BRANCH  21  30
ATOM     25  C   UNL     1       0.722  -0.031   3.781  0.00  0.00    +0.145 A 
ATOM     26  C   UNL     1       0.098   0.407   2.625  0.00  0.00    +0.094 A 
ATOM     27  C   UNL     1      -0.631   1.587   2.635  0.00  0.00    +0.142 A 
ATOM     28  C   UNL     1      -0.731   2.332   3.802  0.00  0.00    +0.084 A 
ATOM     29  C   UNL     1      -0.113   1.894   4.959  0.00  0.00    +0.050 A 
ATOM     30  C   UNL     1       0.616   0.715   4.953  0.00  0.00    +0.077 A 
ATOM     31 CL   UNL     1      -1.637   3.812   3.810  0.00  0.00    -0.080 Cl
BRANCH  25  33
ATOM     32  C   UNL     1       1.501  -1.902   2.536  0.00  0.00    +0.277 C 
ATOM     33  O   UNL     1       1.436  -1.188   3.773  0.00  0.00    -0.493 OA
ENDBRANCH  25  33
BRANCH  27  34
ATOM     34  O   UNL     1      -1.244   2.017   1.500  0.00  0.00    -0.494 OA
ATOM     35  C   UNL     1      -1.095   1.204   0.335  0.00  0.00    +0.277 C 
ENDBRANCH  27  34
ENDBRANCH  21  30
ENDBRANCH   1  22
BRANCH   5  36
ATOM     36  N   UNL     1       1.251   0.768  12.204  0.00  0.00    -0.357 N 
ATOM     37  H   UNL     1       0.402   1.232  12.273  0.00  0.00    +0.142 HD
ATOM     38  H   UNL     1       1.769   0.583  13.003  0.00  0.00    +0.142 HD
ENDBRANCH   5  36
TORSDOF 6
