REMARK  Name = ZINC09507842
REMARK  9 active torsions:
REMARK  status: ('A' for Active; 'I' for Inactive)
REMARK    1  A    between atoms: C_1  and  C_2
REMARK    2  A    between atoms: C_5  and  N_9
REMARK    3  A    between atoms: C_6  and  C_8
REMARK    4  A    between atoms: N_9  and  S_10
REMARK    5  A    between atoms: S_10  and  C_13
REMARK    6  A    between atoms: C_16  and  C_34
REMARK    7  A    between atoms: C_17  and  N_19
REMARK    8  A    between atoms: N_19  and  N_20
REMARK    9  A    between atoms: C_22  and  C_27
REMARK                            x       y       z     vdW  Elec       q    Type
REMARK                         _______ _______ _______ _____ _____    ______ ____
ROOT
ATOM      1  C   UNL     1       2.517  -4.719  -1.127  0.00  0.00    +0.110 A 
ATOM      2  C   UNL     1       3.107  -3.635  -1.753  0.00  0.00    +0.029 A 
ATOM      3  C   UNL     1       4.470  -3.427  -1.644  0.00  0.00    +0.007 A 
ATOM      4  C   UNL     1       5.246  -4.300  -0.908  0.00  0.00    -0.028 A 
ATOM      5  C   UNL     1       4.657  -5.390  -0.278  0.00  0.00    +0.053 A 
ATOM      6  C   UNL     1       3.286  -5.593  -0.386  0.00  0.00    +0.053 A 
ATOM      7  C   UNL     1       6.731  -4.073  -0.790  0.00  0.00    +0.046 C 
ENDROOT
BRANCH   1   8
ATOM      8  S   UNL     1       0.780  -4.979  -1.271  0.00  0.00    +0.072 S 
ATOM      9  O   UNL     1       0.556  -6.363  -1.040  0.00  0.00    -0.150 OA
ATOM     10  O   UNL     1       0.369  -4.331  -2.467  0.00  0.00    -0.150 OA
BRANCH   8  11
ATOM     11  N   UNL     1       0.058  -4.167  -0.021  0.00  0.00    -0.216 N 
ATOM     12  H   UNL     1      -0.470  -4.653   0.632  0.00  0.00    +0.174 HD
BRANCH  11  17
ATOM     13  C   UNL     1       0.671   1.451   0.442  0.00  0.00    +0.044 C 
ATOM     14  C   UNL     1       0.508  -0.042   0.319  0.00  0.00    -0.050 A 
ATOM     15  C   UNL     1       0.416  -0.625  -0.932  0.00  0.00    +0.005 A 
ATOM     16  C   UNL     1       0.267  -1.993  -1.048  0.00  0.00    +0.025 A 
ATOM     17  C   UNL     1       0.209  -2.784   0.093  0.00  0.00    +0.051 A 
ATOM     18  C   UNL     1       0.302  -2.195   1.347  0.00  0.00    -0.028 A 
ATOM     19  C   UNL     1       0.457  -0.826   1.456  0.00  0.00    +0.008 A 
ATOM     20  C   UNL     1       0.239  -3.048   2.588  0.00  0.00    +0.046 C 
ENDBRANCH  11  17
ENDBRANCH   8  11
ENDBRANCH   1   8
BRANCH   5  21
ATOM     21  N   UNL     1       5.438  -6.274   0.466  0.00  0.00    -0.236 N 
ATOM     22  H   UNL     1       6.394  -6.129   0.543  0.00  0.00    +0.174 HD
BRANCH  21  23
ATOM     23  N   UNL     1       4.842  -7.371   1.101  0.00  0.00    -0.173 NA
ATOM     24  C   UNL     1       5.577  -8.203   1.800  0.00  0.00    +0.148 C 
ATOM     25  C   UNL     1       5.182  -9.415   2.542  0.00  0.00    +0.107 C 
ATOM     26  N   UNL     1       6.123 -10.063   3.156  0.00  0.00    -0.219 NA
ATOM     27  C   UNL     1       7.408  -9.658   3.125  0.00  0.00    +0.188 C 
ATOM     28  N   UNL     1       8.455 -10.211   3.694  0.00  0.00    -0.276 NA
ATOM     29  S   UNL     1       7.338  -8.188   2.112  0.00  0.00    -0.027 S 
ATOM     30  H   UNL     1       9.332  -9.811   3.590  0.00  0.00    +0.189 HD
BRANCH  25  31
ATOM     31  C   UNL     1       3.776  -9.871   2.585  0.00  0.00    +0.003 A 
ATOM     32  C   UNL     1       2.786  -9.154   1.909  0.00  0.00    +0.013 A 
ATOM     33  C   UNL     1       1.477  -9.584   1.953  0.00  0.00    +0.039 A 
ATOM     34  C   UNL     1       1.143 -10.725   2.666  0.00  0.00    +0.123 A 
ATOM     35  C   UNL     1       2.121 -11.440   3.339  0.00  0.00    +0.039 A 
ATOM     36  C   UNL     1       3.435 -11.023   3.297  0.00  0.00    +0.013 A 
ATOM     37  F   UNL     1      -0.142 -11.141   2.706  0.00  0.00    -0.205 F 
ENDBRANCH  25  31
ENDBRANCH  21  23
ENDBRANCH   5  21
TORSDOF 6
