REMARK  Name = ZINC13142603
REMARK  7 active torsions:
REMARK  status: ('A' for Active; 'I' for Inactive)
REMARK    1  A    between atoms: C_1  and  C_2
REMARK    2  A    between atoms: C_3  and  C_24
REMARK    3  A    between atoms: C_4  and  C_14
REMARK    4  A    between atoms: C_16  and  O_22
REMARK    5  A    between atoms: C_19  and  O_20
REMARK    6  A    between atoms: O_20  and  C_21
REMARK    7  A    between atoms: O_22  and  C_23
REMARK                            x       y       z     vdW  Elec       q    Type
REMARK                         _______ _______ _______ _____ _____    ______ ____
ROOT
ATOM      1  C   UNL     1      -0.018   1.503   0.010  0.00  0.00    +0.066 C 
ATOM      2  C   UNL     1       0.002  -0.004   0.002  0.00  0.00    +0.048 C 
ATOM      3  C   UNL     1      -1.185  -0.672   0.004  0.00  0.00    +0.048 C 
ATOM      4  C   UNL     1      -1.133  -2.189  -0.005  0.00  0.00    +0.094 C 
ATOM      5  C   UNL     1       0.255  -2.801  -0.017  0.00  0.00    +0.028 C 
ATOM      6  C   UNL     1       0.406  -4.137  -0.029  0.00  0.00    +0.162 C 
ATOM      7  C   UNL     1       1.772  -4.769  -0.040  0.00  0.00    +0.080 C 
ATOM      8  C   UNL     1       2.757  -3.832  -0.745  0.00  0.00    +0.014 C 
ATOM      9  C   UNL     1       2.756  -2.480  -0.026  0.00  0.00    +0.056 C 
ATOM     10  C   UNL     1       1.352  -1.924  -0.016  0.00  0.00    +0.049 C 
ATOM     11  N   UNL     1       1.175  -0.623  -0.013  0.00  0.00    -0.256 NA
ATOM     12  O   UNL     1      -0.687  -4.925  -0.032  0.00  0.00    -0.292 OA
ENDROOT
BRANCH   3  13
ATOM     13  C   UNL     1      -2.414   0.019   0.015  0.00  0.00    +0.248 C 
ATOM     14  O   UNL     1      -2.428   1.237   0.023  0.00  0.00    -0.270 OA
ATOM     15  N   UNL     1      -3.574  -0.668   0.017  0.00  0.00    -0.261 N 
ATOM     16  C   UNL     1      -4.780   0.010   0.028  0.00  0.00    +0.166 A 
ATOM     17  N   UNL     1      -4.997   1.304   0.032  0.00  0.00    -0.225 NA
ATOM     18  C   UNL     1      -6.240   1.832   0.042  0.00  0.00    +0.080 A 
ATOM     19  C   UNL     1      -6.609   3.197   0.047  0.00  0.00    +0.029 A 
ATOM     20  C   UNL     1      -7.929   3.566   0.059  0.00  0.00    +0.002 A 
ATOM     21  C   UNL     1      -8.945   2.621   0.065  0.00  0.00    +0.001 A 
ATOM     22  C   UNL     1      -8.620   1.277   0.060  0.00  0.00    +0.017 A 
ATOM     23  C   UNL     1      -7.301   0.899   0.048  0.00  0.00    +0.041 A 
ATOM     24  S   UNL     1      -6.439  -0.655   0.033  0.00  0.00    -0.052 S 
ATOM     25  H   UNL     1      -3.562  -1.638   0.011  0.00  0.00    +0.157 HD
ENDBRANCH   3  13
BRANCH   4  26
ATOM     26  C   UNL     1      -1.870  -2.679  -1.226  0.00  0.00    +0.010 A 
ATOM     27  C   UNL     1      -1.441  -2.309  -2.486  0.00  0.00    +0.053 A 
ATOM     28  C   UNL     1      -2.119  -2.759  -3.608  0.00  0.00    +0.121 A 
ATOM     29  C   UNL     1      -3.227  -3.582  -3.466  0.00  0.00    +0.049 A 
ATOM     30  C   UNL     1      -3.656  -3.951  -2.206  0.00  0.00    +0.049 A 
ATOM     31  C   UNL     1      -2.974  -3.505  -1.083  0.00  0.00    +0.124 A 
BRANCH  31  32
ATOM     32  O   UNL     1      -3.393  -3.874   0.157  0.00  0.00    -0.495 OA
ATOM     33  C   UNL     1      -4.537  -4.726   0.229  0.00  0.00    +0.277 C 
ENDBRANCH  31  32
BRANCH  28  34
ATOM     34  O   UNL     1      -1.698  -2.395  -4.849  0.00  0.00    -0.495 OA
ATOM     35  C   UNL     1      -2.443  -2.896  -5.960  0.00  0.00    +0.277 C 
ENDBRANCH  28  34
ENDBRANCH   4  26
TORSDOF 4
