REMARK  Name = ZINC50693561
REMARK  4 active torsions:
REMARK  status: ('A' for Active; 'I' for Inactive)
REMARK    1  A    between atoms: C_4  and  N_11
REMARK    2  A    between atoms: C_6  and  C_7
REMARK    3  A    between atoms: C_12  and  C_14
REMARK    4  A    between atoms: C_16  and  N_20
REMARK                            x       y       z     vdW  Elec       q    Type
REMARK                         _______ _______ _______ _____ _____    ______ ____
ROOT
ATOM      1  N   UNL     1       3.600  -0.633  -0.037  0.00  0.00    -0.206 NA
ATOM      2  C   UNL     1       3.741  -1.705  -0.772  0.00  0.00    +0.294 C 
ATOM      3  O   UNL     1       2.707  -2.156  -1.517  0.00  0.00    -0.264 OA
ENDROOT
BRANCH   1   7
ATOM      4  C   UNL     1      -0.017   1.379   0.010  0.00  0.00    +0.014 A 
ATOM      5  C   UNL     1       1.168   2.094   0.002  0.00  0.00    +0.022 A 
ATOM      6  C   UNL     1       2.378   1.430  -0.013  0.00  0.00    +0.066 A 
ATOM      7  C   UNL     1       2.404   0.033  -0.021  0.00  0.00    +0.087 A 
ATOM      8  C   UNL     1       1.204  -0.681  -0.013  0.00  0.00    +0.041 A 
ATOM      9  C   UNL     1       0.002  -0.004   0.002  0.00  0.00    +0.057 A 
ATOM     10 CL   UNL     1       3.864   2.328  -0.024  0.00  0.00    -0.081 Cl
BRANCH   9  11
ATOM     11  C   UNL     1      -1.294  -0.773   0.011  0.00  0.00    +0.417 C 
ATOM     12  F   UNL     1      -2.368   0.123   0.026  0.00  0.00    -0.166 F 
ATOM     13  F   UNL     1      -1.370  -1.572  -1.135  0.00  0.00    -0.166 F 
ATOM     14  F   UNL     1      -1.347  -1.585   1.149  0.00  0.00    -0.166 F 
ENDBRANCH   9  11
ENDBRANCH   1   7
BRANCH   2  15
ATOM     15  C   UNL     1       5.034  -2.424  -0.789  0.00  0.00    +0.108 A 
ATOM     16  C   UNL     1       6.093  -1.958  -0.016  0.00  0.00    +0.054 A 
ATOM     17  C   UNL     1       7.303  -2.648  -0.044  0.00  0.00    +0.028 A 
ATOM     18  C   UNL     1       7.401  -3.782  -0.850  0.00  0.00    +0.040 A 
ATOM     19  C   UNL     1       6.305  -4.183  -1.589  0.00  0.00    +0.085 A 
ATOM     20  N   UNL     1       5.171  -3.514  -1.539  0.00  0.00    -0.357 N 
ATOM     21  H   UNL     1       4.418  -3.822  -2.066  0.00  0.00    +0.165 HD
BRANCH  17  22
ATOM     22  N   UNL     1       8.388  -2.215   0.714  0.00  0.00    -0.358 N 
ATOM     23  H   UNL     1       8.307  -1.425   1.270  0.00  0.00    +0.142 HD
ATOM     24  H   UNL     1       9.225  -2.705   0.685  0.00  0.00    +0.142 HD
ENDBRANCH  17  22
ENDBRANCH   2  15
TORSDOF 4
