REMARK  Name = ZINC61365022
REMARK  1 active torsions:
REMARK  status: ('A' for Active; 'I' for Inactive)
REMARK    1  A    between atoms: N_10  and  C_11
REMARK                            x       y       z     vdW  Elec       q    Type
REMARK                         _______ _______ _______ _____ _____    ______ ____
ROOT
ATOM      1  C   UNL     1       6.242  -0.829   0.704  0.00  0.00    +0.017 A 
ATOM      2  C   UNL     1       5.793   0.462   0.513  0.00  0.00    +0.029 A 
ATOM      3  C   UNL     1       4.458   0.692   0.216  0.00  0.00    +0.071 A 
ATOM      4  C   UNL     1       3.567  -0.389   0.111  0.00  0.00    +0.092 A 
ATOM      5  C   UNL     1       4.037  -1.689   0.306  0.00  0.00    +0.045 A 
ATOM      6  C   UNL     1       5.366  -1.900   0.601  0.00  0.00    +0.020 A 
ATOM      7 BR   UNL     1       6.002  -3.661   0.865  0.00  0.00    -0.050 Br
ATOM      8  N   UNL     1       2.345   0.128  -0.183  0.00  0.00    -0.215 NA
ATOM      9  C   UNL     1       2.427   1.433  -0.263  0.00  0.00    +0.195 A 
ATOM     10  N   UNL     1       3.710   1.833  -0.025  0.00  0.00    -0.305 N 
ATOM     11  N   UNL     1       1.374   2.277  -0.547  0.00  0.00    -0.329 N 
ATOM     12  H   UNL     1       0.507   1.909  -0.779  0.00  0.00    +0.145 HD
ATOM     13  H   UNL     1       1.500   3.238  -0.513  0.00  0.00    +0.145 HD
ENDROOT
BRANCH  10  14
ATOM     14  C   UNL     1       4.205   3.212  -0.025  0.00  0.00    +0.121 C 
ATOM     15  C   UNL     1       4.941   3.493  -1.335  0.00  0.00    +0.030 C 
ATOM     16  C   UNL     1       6.222   2.657  -1.406  0.00  0.00    +0.007 C 
ATOM     17  C   UNL     1       7.228   3.208  -0.383  0.00  0.00    +0.043 C 
ATOM     18  C   UNL     1       6.518   3.397   0.918  0.00  0.00    -0.005 A 
ATOM     19  C   UNL     1       5.172   3.408   1.139  0.00  0.00    -0.014 A 
ATOM     20  C   UNL     1       4.754   3.603   2.455  0.00  0.00    +0.013 A 
ATOM     21  C   UNL     1       5.667   3.772   3.438  0.00  0.00    +0.046 A 
ATOM     22  S   UNL     1       7.210   3.660   2.529  0.00  0.00    -0.101 S 
ENDBRANCH  10  14
TORSDOF 1
