REMARK  Name = ZINC08918445
REMARK  7 active torsions:
REMARK  status: ('A' for Active; 'I' for Inactive)
REMARK    1  A    between atoms: C_1  and  C_2
REMARK    2  A    between atoms: C_3  and  O_17
REMARK    3  A    between atoms: O_17  and  C_18
REMARK    4  A    between atoms: C_18  and  C_19
REMARK    5  A    between atoms: N_21  and  C_22
REMARK    6  A    between atoms: C_22  and  C_23
REMARK    7  A    between atoms: C_28  and  O_36
REMARK                            x       y       z     vdW  Elec       q    Type
REMARK                         _______ _______ _______ _____ _____    ______ ____
ROOT
ATOM      1  C   UNL     1      -5.969   2.025  -3.238  0.00  0.00    +0.251 C 
ATOM      2  O   UNL     1      -5.625   1.841  -4.386  0.00  0.00    -0.272 OA
ATOM      3  N   UNL     1      -5.196   1.585  -2.225  0.00  0.00    -0.304 N 
ATOM      4  H   UNL     1      -5.471   1.732  -1.306  0.00  0.00    +0.149 HD
ENDROOT
BRANCH   1   5
ATOM      5  C   UNL     1      -7.260   2.745  -2.943  0.00  0.00    +0.324 C 
BRANCH   5   6
ATOM      6  O   UNL     1      -7.893   3.109  -4.172  0.00  0.00    -0.482 OA
BRANCH   6   9
ATOM      7  C   UNL     1      -9.150   3.830  -6.589  0.00  0.00    +0.051 C 
ATOM      8  C   UNL     1      -9.739   4.150  -5.239  0.00  0.00    +0.034 A 
ATOM      9  C   UNL     1      -9.075   3.770  -4.083  0.00  0.00    +0.128 A 
ATOM     10  C   UNL     1      -9.615   4.056  -2.831  0.00  0.00    +0.047 A 
ATOM     11  C   UNL     1     -10.800   4.725  -2.724  0.00  0.00    +0.015 A 
ATOM     12  C   UNL     1     -11.483   5.116  -3.882  0.00  0.00    +0.022 A 
ATOM     13  C   UNL     1     -10.946   4.825  -5.148  0.00  0.00    +0.146 A 
ATOM     14  O   UNL     1     -11.612   5.205  -6.259  0.00  0.00    -0.422 OA
ATOM     15  C   UNL     1     -12.778   5.860  -6.182  0.00  0.00    +0.341 A 
ATOM     16  O   UNL     1     -13.342   6.182  -7.212  0.00  0.00    -0.245 OA
ATOM     17  C   UNL     1     -13.377   6.190  -4.941  0.00  0.00    +0.041 A 
ATOM     18  C   UNL     1     -12.763   5.830  -3.793  0.00  0.00    -0.027 A 
ATOM     19  C   UNL     1     -13.328   6.124  -2.431  0.00  0.00    +0.036 C 
ATOM     20  C   UNL     1     -14.395   7.215  -2.514  0.00  0.00    +0.005 C 
ATOM     21  C   UNL     1     -15.390   6.832  -3.615  0.00  0.00    +0.005 C 
ATOM     22  C   UNL     1     -14.681   6.942  -4.964  0.00  0.00    +0.042 C 
ENDBRANCH   6   9
ENDBRANCH   5   6
ENDBRANCH   1   5
BRANCH   3  23
ATOM     23  C   UNL     1      -3.942   0.885  -2.511  0.00  0.00    +0.200 C 
BRANCH  23  24
ATOM     24  C   UNL     1      -3.274   0.502  -1.216  0.00  0.00    +0.233 C 
ATOM     25  O   UNL     1      -3.794   0.785  -0.158  0.00  0.00    -0.274 OA
ATOM     26  N   UNL     1      -2.098  -0.156  -1.233  0.00  0.00    -0.300 N 
ATOM     27  C   UNL     1      -1.454  -0.507  -2.507  0.00  0.00    +0.110 C 
ATOM     28  C   UNL     1      -0.020   0.031  -2.498  0.00  0.00    +0.054 C 
ATOM     29  C   UNL     1       0.713  -0.496  -1.261  0.00  0.00    +0.072 C 
ATOM     30  C   UNL     1       2.151   0.027  -1.266  0.00  0.00    +0.035 C 
ATOM     31  C   UNL     1       2.135   1.557  -1.257  0.00  0.00    +0.003 C 
ATOM     32  C   UNL     1       1.417   2.054  -0.000  0.00  0.00    +0.001 C 
ATOM     33  C   UNL     1      -0.019   1.526   0.010  0.00  0.00    +0.008 C 
ATOM     34  C   UNL     1       0.002  -0.004   0.002  0.00  0.00    +0.038 C 
ATOM     35  C   UNL     1      -1.433  -0.536   0.021  0.00  0.00    +0.114 C 
BRANCH  29  36
ATOM     36  O   UNL     1       0.723  -1.925  -1.278  0.00  0.00    -0.388 OA
ATOM     37  H   UNL     1       1.159  -2.306  -2.053  0.00  0.00    +0.210 HD
ENDBRANCH  29  36
ENDBRANCH  23  24
ENDBRANCH   3  23
TORSDOF 6
