REMARK  Name = ZINC20834975
REMARK  10 active torsions:
REMARK  status: ('A' for Active; 'I' for Inactive)
REMARK    1  A    between atoms: C_1  and  C_2
REMARK    2  A    between atoms: C_5  and  C_7
REMARK    3  A    between atoms: N_8  and  N_9
REMARK    4  A    between atoms: C_12  and  S_15
REMARK    5  A    between atoms: S_15  and  C_16
REMARK    6  A    between atoms: C_16  and  C_17
REMARK    7  A    between atoms: N_19  and  C_20
REMARK    8  A    between atoms: C_23  and  S_26
REMARK    9  A    between atoms: S_26  and  N_29
REMARK   10  A    between atoms: C_33  and  C_36
REMARK                            x       y       z     vdW  Elec       q    Type
REMARK                         _______ _______ _______ _____ _____    ______ ____
ROOT
ATOM      1  C   UNL     1      -0.964  -2.477   6.158  0.00  0.00    +0.227 C 
ATOM      2  O   UNL     1      -1.878  -2.809   5.434  0.00  0.00    -0.275 OA
ATOM      3  N   UNL     1       0.080  -1.789   5.655  0.00  0.00    -0.285 N 
ATOM      4  H   UNL     1       0.948  -1.563   6.291  0.00  0.00    +0.155 HD
ENDROOT
BRANCH   3   5
ATOM      5  C   UNL     1       0.059  -1.362   4.322  0.00  0.00    +0.034 A 
ATOM      6  C   UNL     1      -1.142  -0.999   3.727  0.00  0.00    +0.025 A 
ATOM      7  C   UNL     1      -1.159  -0.579   2.411  0.00  0.00    +0.030 A 
ATOM      8  C   UNL     1       0.018  -0.519   1.687  0.00  0.00    +0.106 A 
ATOM      9  C   UNL     1       1.214  -0.885   2.276  0.00  0.00    +0.030 A 
ATOM     10  C   UNL     1       1.239  -1.301   3.592  0.00  0.00    +0.025 A 
BRANCH   8  11
ATOM     11  S   UNL     1      -0.009   0.017   0.009  0.00  0.00    +0.061 S 
ATOM     12  O   UNL     1      -1.324  -0.223  -0.473  0.00  0.00    -0.153 OA
ATOM     13  O   UNL     1       1.143  -0.536  -0.612  0.00  0.00    -0.153 OA
BRANCH  11  14
ATOM     14  N   UNL     1       0.200   1.660   0.016  0.00  0.00    -0.176 NA
ATOM     15  C   UNL     1      -0.958   2.561   0.084  0.00  0.00    +0.109 C 
ATOM     16  C   UNL     1      -0.755   3.530   1.259  0.00  0.00    +0.017 C 
ATOM     17  C   UNL     1       0.588   4.245   1.097  0.00  0.00    +0.006 C 
ATOM     18  C   UNL     1       1.721   3.216   1.120  0.00  0.00    +0.002 C 
ATOM     19  C   UNL     1       1.546   2.244  -0.051  0.00  0.00    +0.112 C 
ATOM     20  C   UNL     1       3.066   3.934   0.992  0.00  0.00    +0.009 C 
ENDBRANCH  11  14
ENDBRANCH   8  11
ENDBRANCH   3   5
BRANCH   1  21
ATOM     21  C   UNL     1      -0.996  -2.833   7.622  0.00  0.00    +0.173 C 
BRANCH  21  22
ATOM     22  S   UNL     1      -2.517  -3.750   7.989  0.00  0.00    -0.075 S 
BRANCH  22  26
ATOM     23  N   UNL     1      -3.520  -5.418  12.819  0.00  0.00    -0.205 N 
ATOM     24  C   UNL     1      -2.873  -4.816  11.749  0.00  0.00    +0.232 A 
ATOM     25  N   UNL     1      -3.328  -4.766  10.461  0.00  0.00    -0.186 NA
ATOM     26  C   UNL     1      -2.406  -4.089   9.714  0.00  0.00    +0.211 A 
ATOM     27  N   UNL     1      -1.420  -3.740  10.506  0.00  0.00    -0.144 NA
ATOM     28  N   UNL     1      -1.720  -4.196  11.797  0.00  0.00    -0.245 N 
ATOM     29  H   UNL     1      -4.490  -5.913  12.667  0.00  0.00    +0.177 HD
ATOM     30  H   UNL     1      -1.177  -4.115  12.750  0.00  0.00    +0.192 HD
BRANCH  23  32
ATOM     31  C   UNL     1      -3.545  -5.958  15.096  0.00  0.00    +0.176 C 
ATOM     32  N   UNL     1      -2.938  -5.394  14.093  0.00  0.00    -0.184 NA
BRANCH  31  37
ATOM     33  C   UNL     1      -0.307  -5.045  18.808  0.00  0.00    +0.086 C 
ATOM     34  C   UNL     1      -1.520  -5.537  18.062  0.00  0.00    +0.103 A 
ATOM     35  C   UNL     1      -2.547  -6.225  18.601  0.00  0.00    +0.045 A 
ATOM     36  C   UNL     1      -3.464  -6.479  17.563  0.00  0.00    +0.051 A 
ATOM     37  C   UNL     1      -2.935  -5.934  16.430  0.00  0.00    +0.148 A 
ATOM     38  O   UNL     1      -1.757  -5.363  16.751  0.00  0.00    -0.459 OA
ENDBRANCH  31  37
ENDBRANCH  23  32
ENDBRANCH  22  26
ENDBRANCH  21  22
ENDBRANCH   1  21
TORSDOF 8
