REMARK  Name = ZINC36063103
REMARK  12 active torsions:
REMARK  status: ('A' for Active; 'I' for Inactive)
REMARK    1  A    between atoms: C_1  and  C_2
REMARK    2  A    between atoms: C_2  and  O_3
REMARK    3  A    between atoms: O_3  and  C_4
REMARK    4  A    between atoms: C_4  and  C_6
REMARK    5  A    between atoms: C_7  and  C_31
REMARK    6  A    between atoms: C_11  and  C_13
REMARK    7  A    between atoms: C_20  and  C_23
REMARK    8  A    between atoms: C_24  and  N_26
REMARK    9  A    between atoms: N_26  and  C_27
REMARK   10  A    between atoms: C_27  and  C_28
REMARK   11  A    between atoms: C_28  and  O_29
REMARK   12  A    between atoms: O_29  and  C_30
REMARK                            x       y       z     vdW  Elec       q    Type
REMARK                         _______ _______ _______ _____ _____    ______ ____
ROOT
ATOM      1  C   UNL     1       1.938  -2.294  -2.169  0.00  0.00    +0.087 C 
ATOM      2  C   UNL     1       1.841  -3.658  -2.445  0.00  0.00    +0.086 C 
ATOM      3  N   UNL     1       2.103  -4.114  -3.668  0.00  0.00    -0.224 NA
ATOM      4  C   UNL     1       2.461  -3.363  -4.686  0.00  0.00    +0.166 C 
ATOM      5  N   UNL     1       2.612  -2.006  -4.622  0.00  0.00    -0.267 N 
ATOM      6  C   UNL     1       2.340  -1.377  -3.302  0.00  0.00    +0.150 C 
ATOM      7  C   UNL     1       2.993  -1.362  -5.783  0.00  0.00    +0.048 C 
ATOM      8  C   UNL     1       3.186  -2.119  -6.885  0.00  0.00    +0.072 C 
ATOM      9  S   UNL     1       2.827  -3.755  -6.277  0.00  0.00    -0.060 S 
ENDROOT
BRANCH   6  10
ATOM     10  C   UNL     1       1.243  -0.359  -3.485  0.00  0.00    -0.022 A 
ATOM     11  C   UNL     1       0.042  -0.734  -4.058  0.00  0.00    +0.007 A 
ATOM     12  C   UNL     1      -0.964   0.199  -4.226  0.00  0.00    +0.020 A 
ATOM     13  C   UNL     1      -0.769   1.507  -3.822  0.00  0.00    +0.041 A 
ATOM     14  C   UNL     1       0.433   1.882  -3.249  0.00  0.00    +0.020 A 
ATOM     15  C   UNL     1       1.437   0.947  -3.076  0.00  0.00    +0.007 A 
ATOM     16 CL   UNL     1      -2.032   2.679  -4.033  0.00  0.00    -0.084 Cl
ENDBRANCH   6  10
BRANCH   2  17
ATOM     17  C   UNL     1       1.445  -4.602  -1.374  0.00  0.00    +0.001 A 
ATOM     18  C   UNL     1       0.177  -4.516  -0.798  0.00  0.00    +0.010 A 
ATOM     19  C   UNL     1      -0.185  -5.398   0.199  0.00  0.00    +0.001 A 
ATOM     20  C   UNL     1       0.706  -6.365   0.629  0.00  0.00    +0.000 A 
ATOM     21  C   UNL     1       1.965  -6.455   0.062  0.00  0.00    +0.001 A 
ATOM     22  C   UNL     1       2.337  -5.583  -0.941  0.00  0.00    +0.010 A 
ENDBRANCH   2  17
BRANCH   7  23
ATOM     23  C   UNL     1       3.182   0.095  -5.818  0.00  0.00    +0.091 C 
ATOM     24  C   UNL     1       3.698   0.681  -6.916  0.00  0.00    +0.239 C 
ATOM     25  O   UNL     1       3.928  -0.054  -8.032  0.00  0.00    -0.271 OA
BRANCH  24  26
ATOM     26  N   UNL     1       3.993   2.034  -6.905  0.00  0.00    -0.310 N 
ATOM     27  H   UNL     1       3.898   2.544  -6.086  0.00  0.00    +0.149 HD
BRANCH  26  28
ATOM     28  C   UNL     1       4.448   2.694  -8.131  0.00  0.00    +0.132 C 
BRANCH  28  29
ATOM     29  C   UNL     1       4.821   4.145  -7.821  0.00  0.00    +0.178 C 
BRANCH  29  30
ATOM     30  O   UNL     1       5.945   4.170  -6.938  0.00  0.00    -0.381 OA
ATOM     31  C   UNL     1       6.377   5.485  -6.583  0.00  0.00    +0.194 C 
ENDBRANCH  29  30
ENDBRANCH  28  29
ENDBRANCH  26  28
ENDBRANCH  24  26
ENDBRANCH   7  23
BRANCH   1  32
ATOM     32  C   UNL     1       1.668  -1.794  -0.894  0.00  0.00    +0.339 C 
ATOM     33  O   UNL     1       1.439  -2.560   0.026  0.00  0.00    -0.245 OA
BRANCH  32  34
ATOM     34  O   UNL     1       1.662  -0.459  -0.680  0.00  0.00    -0.462 OA
BRANCH  34  36
ATOM     35  C   UNL     1       1.415   1.512   0.697  0.00  0.00    +0.048 C 
ATOM     36  C   UNL     1       1.378  -0.017   0.649  0.00  0.00    +0.229 C 
ENDBRANCH  34  36
ENDBRANCH  32  34
ENDBRANCH   1  32
TORSDOF 10
