REMARK  Name = ZINC13565560
REMARK  10 active torsions:
REMARK  status: ('A' for Active; 'I' for Inactive)
REMARK    1  A    between atoms: C_1  and  C_2
REMARK    2  A    between atoms: C_6  and  C_8
REMARK    3  A    between atoms: C_8  and  C_9
REMARK    4  A    between atoms: C_9  and  C_11
REMARK    5  A    between atoms: C_9  and  N_33
REMARK    6  A    between atoms: N_13  and  C_14
REMARK    7  A    between atoms: N_17  and  S_20
REMARK    8  A    between atoms: S_20  and  C_23
REMARK    9  A    between atoms: C_26  and  C_29
REMARK   10  A    between atoms: C_34  and  C_36
REMARK                            x       y       z     vdW  Elec       q    Type
REMARK                         _______ _______ _______ _____ _____    ______ ____
ROOT
ATOM      1  C   UNL     1      -0.343   7.614   1.324  0.00  0.00    +0.075 C 
ATOM      2  C   UNL     1      -0.459   8.104   2.769  0.00  0.00    +0.039 C 
ATOM      3  C   UNL     1      -0.571   9.632   2.779  0.00  0.00    +0.111 C 
ATOM      4  N   UNL     1      -1.691  10.030   1.914  0.00  0.00    -0.176 NA
ATOM      5  C   UNL     1      -1.724   9.538   0.530  0.00  0.00    +0.111 C 
ATOM      6  C   UNL     1      -1.599   8.012   0.546  0.00  0.00    +0.039 C 
ENDROOT
BRANCH   1   9
ATOM      7  C   UNL     1       1.013   5.595   1.467  0.00  0.00    +0.234 C 
ATOM      8  O   UNL     1       1.991   6.297   1.614  0.00  0.00    -0.274 OA
ATOM      9  N   UNL     1      -0.203   6.156   1.313  0.00  0.00    -0.311 N 
ATOM     10  H   UNL     1      -0.985   5.595   1.195  0.00  0.00    +0.149 HD
BRANCH   7  11
ATOM     11  C   UNL     1       1.157   4.095   1.456  0.00  0.00    +0.163 C 
BRANCH  11  12
ATOM     12  N   UNL     1       2.420   3.721   2.097  0.00  0.00    -0.304 N 
ATOM     13  C   UNL     1       3.589   4.164   1.592  0.00  0.00    +0.211 C 
ATOM     14  O   UNL     1       3.595   4.872   0.608  0.00  0.00    -0.276 OA
ATOM     15  C   UNL     1       4.888   3.779   2.252  0.00  0.00    +0.109 C 
ATOM     16  H   UNL     1       2.416   3.154   2.884  0.00  0.00    +0.149 HD
ENDBRANCH  11  12
BRANCH  11  17
ATOM     17  C   UNL     1       1.150   3.592   0.010  0.00  0.00    +0.067 C 
BRANCH  17  23
ATOM     18  C   UNL     1       3.711  -0.707  -0.039  0.00  0.00    +0.044 C 
ATOM     19  C   UNL     1       2.396   0.029  -0.022  0.00  0.00    -0.050 A 
ATOM     20  C   UNL     1       1.208  -0.679  -0.014  0.00  0.00    +0.003 A 
ATOM     21  C   UNL     1       0.002  -0.004   0.002  0.00  0.00    +0.001 A 
ATOM     22  C   UNL     1      -0.017   1.378   0.010  0.00  0.00    +0.004 A 
ATOM     23  C   UNL     1       1.171   2.086   0.002  0.00  0.00    -0.045 A 
ATOM     24  C   UNL     1       2.377   1.411  -0.014  0.00  0.00    +0.007 A 
ENDBRANCH  17  23
ENDBRANCH  11  17
ENDBRANCH   7  11
ENDBRANCH   1   9
BRANCH   4  25
ATOM     25  S   UNL     1      -2.892  11.014   2.489  0.00  0.00    +0.061 S 
ATOM     26  O   UNL     1      -2.335  11.744   3.574  0.00  0.00    -0.153 OA
ATOM     27  O   UNL     1      -3.470  11.652   1.359  0.00  0.00    -0.153 OA
BRANCH  25  28
ATOM     28  C   UNL     1      -4.138   9.971   3.171  0.00  0.00    +0.106 A 
ATOM     29  C   UNL     1      -5.175   9.522   2.375  0.00  0.00    +0.029 A 
ATOM     30  C   UNL     1      -6.150   8.701   2.909  0.00  0.00    +0.014 A 
ATOM     31  C   UNL     1      -6.093   8.335   4.241  0.00  0.00    +0.055 A 
ATOM     32  C   UNL     1      -5.059   8.788   5.038  0.00  0.00    +0.014 A 
ATOM     33  C   UNL     1      -4.081   9.606   4.503  0.00  0.00    +0.029 A 
BRANCH  31  34
ATOM     34  C   UNL     1      -7.159   7.444   4.824  0.00  0.00    +0.417 C 
ATOM     35  F   UNL     1      -8.201   8.230   5.327  0.00  0.00    -0.166 F 
ATOM     36  F   UNL     1      -7.653   6.595   3.828  0.00  0.00    -0.166 F 
ATOM     37  F   UNL     1      -6.611   6.678   5.859  0.00  0.00    -0.166 F 
ENDBRANCH  31  34
ENDBRANCH  25  28
ENDBRANCH   4  25
TORSDOF 8
