REMARK  Name = ZINC24033259
REMARK  6 active torsions:
REMARK  status: ('A' for Active; 'I' for Inactive)
REMARK    1  A    between atoms: C_4  and  S_7
REMARK    2  A    between atoms: S_7  and  N_10
REMARK    3  A    between atoms: C_15  and  C_17
REMARK    4  A    between atoms: N_19  and  C_20
REMARK    5  A    between atoms: C_24  and  N_26
REMARK    6  A    between atoms: C_27  and  C_29
REMARK                            x       y       z     vdW  Elec       q    Type
REMARK                         _______ _______ _______ _____ _____    ______ ____
ROOT
ATOM      1  C   UNL     1      -0.704   3.317  -2.282  0.00  0.00    +0.236 C 
ATOM      2  O   UNL     1      -1.589   2.777  -2.910  0.00  0.00    -0.274 OA
ATOM      3  N   UNL     1      -0.012   4.335  -2.832  0.00  0.00    -0.284 N 
ATOM      4  H   UNL     1       0.771   4.845  -2.252  0.00  0.00    +0.155 HD
ENDROOT
BRANCH   1  10
ATOM      5  N   UNL     1      -1.499   3.152   0.012  0.00  0.00    -0.165 NA
ATOM      6  C   UNL     1      -1.452   2.651   1.392  0.00  0.00    +0.110 C 
ATOM      7  C   UNL     1      -1.205   1.139   1.360  0.00  0.00    +0.017 C 
ATOM      8  C   UNL     1       0.056   0.850   0.543  0.00  0.00    +0.003 C 
ATOM      9  C   UNL     1      -0.142   1.337  -0.894  0.00  0.00    +0.030 C 
ATOM     10  C   UNL     1      -0.376   2.851  -0.887  0.00  0.00    +0.166 C 
BRANCH   5  11
ATOM     11  S   UNL     1      -2.792   4.038  -0.521  0.00  0.00    +0.062 S 
ATOM     12  O   UNL     1      -3.337   4.687   0.620  0.00  0.00    -0.153 OA
ATOM     13  O   UNL     1      -2.350   4.754  -1.666  0.00  0.00    -0.153 OA
BRANCH  11  17
ATOM     14  C   UNL     1      -5.925   1.103  -1.958  0.00  0.00    +0.000 A 
ATOM     15  C   UNL     1      -5.799   1.374  -0.609  0.00  0.00    +0.002 A 
ATOM     16  C   UNL     1      -4.842   2.270  -0.170  0.00  0.00    +0.028 A 
ATOM     17  C   UNL     1      -4.011   2.896  -1.080  0.00  0.00    +0.106 A 
ATOM     18  C   UNL     1      -4.141   2.629  -2.431  0.00  0.00    +0.028 A 
ATOM     19  C   UNL     1      -5.094   1.729  -2.869  0.00  0.00    +0.002 A 
ENDBRANCH  11  17
ENDBRANCH   5  11
ENDBRANCH   1  10
BRANCH   3  20
ATOM     20  C   UNL     1      -0.290   4.743  -4.142  0.00  0.00    +0.035 A 
ATOM     21  C   UNL     1      -0.686   3.809  -5.091  0.00  0.00    +0.023 A 
ATOM     22  C   UNL     1      -0.965   4.211  -6.383  0.00  0.00    +0.004 A 
ATOM     23  C   UNL     1      -0.841   5.541  -6.738  0.00  0.00    +0.023 A 
ATOM     24  C   UNL     1      -0.440   6.479  -5.795  0.00  0.00    +0.035 A 
ATOM     25  C   UNL     1      -0.164   6.078  -4.495  0.00  0.00    +0.046 A 
BRANCH  24  26
ATOM     26  N   UNL     1      -0.314   7.824  -6.155  0.00  0.00    -0.281 N 
ATOM     27  C   UNL     1       0.634   8.589  -5.580  0.00  0.00    +0.255 C 
ATOM     28  O   UNL     1       1.432   8.092  -4.807  0.00  0.00    -0.269 OA
ATOM     29  H   UNL     1      -0.990   8.258  -6.907  0.00  0.00    +0.155 HD
BRANCH  27  30
ATOM     30  C   UNL     1       0.705  10.021  -5.885  0.00  0.00    +0.074 A 
ATOM     31  C   UNL     1       1.588  10.975  -5.403  0.00  0.00    +0.021 A 
ATOM     32  C   UNL     1       1.433  12.259  -5.861  0.00  0.00    +0.008 A 
ATOM     33  C   UNL     1       0.434  12.533  -6.740  0.00  0.00    +0.046 A 
ATOM     34  S   UNL     1      -0.328  10.992  -6.967  0.00  0.00    -0.092 S 
ENDBRANCH  27  30
ENDBRANCH  24  26
ENDBRANCH   3  20
TORSDOF 6
