REMARK  Name = ZINC20022039
REMARK  5 active torsions:
REMARK  status: ('A' for Active; 'I' for Inactive)
REMARK    1  A    between atoms: C_1  and  C_2
REMARK    2  A    between atoms: C_5  and  S_9
REMARK    3  A    between atoms: C_7  and  N_8
REMARK    4  A    between atoms: S_9  and  N_12
REMARK    5  A    between atoms: N_12  and  C_13
REMARK                            x       y       z     vdW  Elec       q    Type
REMARK                         _______ _______ _______ _____ _____    ______ ____
ROOT
ATOM      1  S   UNL     1      -2.502  -0.454   0.730  0.00  0.00    +0.072 S 
ATOM      2  O   UNL     1      -3.811  -0.953   0.490  0.00  0.00    -0.150 OA
ATOM      3  O   UNL     1      -1.334  -1.155   0.324  0.00  0.00    -0.150 OA
ENDROOT
BRANCH   1   8
ATOM      4  C   UNL     1      -2.019   0.375   6.691  0.00  0.00    +0.045 C 
ATOM      5  C   UNL     1      -2.141   0.168   5.204  0.00  0.00    -0.030 A 
ATOM      6  C   UNL     1      -1.009  -0.025   4.437  0.00  0.00    +0.007 A 
ATOM      7  C   UNL     1      -1.121  -0.220   3.073  0.00  0.00    +0.029 A 
ATOM      8  C   UNL     1      -2.365  -0.212   2.469  0.00  0.00    +0.110 A 
ATOM      9  C   UNL     1      -3.502  -0.020   3.230  0.00  0.00    +0.051 A 
ATOM     10  C   UNL     1      -3.393   0.171   4.602  0.00  0.00    +0.029 A 
BRANCH  10  11
ATOM     11  N   UNL     1      -4.540   0.366   5.374  0.00  0.00    -0.358 N 
ATOM     12  H   UNL     1      -5.531   0.369   4.897  0.00  0.00    +0.142 HD
ATOM     13  H   UNL     1      -4.453   0.518   6.460  0.00  0.00    +0.142 HD
ENDBRANCH  10  11
ENDBRANCH   1   8
BRANCH   1  14
ATOM     14  N   UNL     1      -2.427   1.040   0.020  0.00  0.00    -0.213 N 
ATOM     15  H   UNL     1      -3.271   1.405  -0.584  0.00  0.00    +0.174 HD
BRANCH  14  16
ATOM     16  C   UNL     1      -1.290   1.838   0.188  0.00  0.00    +0.083 A 
ATOM     17  C   UNL     1      -0.033   1.253   0.253  0.00  0.00    +0.028 A 
ATOM     18  C   UNL     1       1.088   2.044   0.413  0.00  0.00    +0.017 A 
ATOM     19  C   UNL     1       0.960   3.418   0.514  0.00  0.00    +0.021 A 
ATOM     20  C   UNL     1      -0.291   4.005   0.455  0.00  0.00    +0.055 A 
ATOM     21  C   UNL     1      -1.418   3.219   0.294  0.00  0.00    +0.147 A 
ATOM     22  F   UNL     1      -2.640   3.792   0.235  0.00  0.00    -0.203 F 
ATOM     23 BR   UNL     1       2.498   4.495   0.735  0.00  0.00    -0.050 Br
ENDBRANCH  14  16
ENDBRANCH   1  14
TORSDOF 4
