REMARK  Name = ZINC35701701
REMARK  10 active torsions:
REMARK  status: ('A' for Active; 'I' for Inactive)
REMARK    1  A    between atoms: C_1  and  C_2
REMARK    2  A    between atoms: C_3  and  C_30
REMARK    3  A    between atoms: C_4  and  C_23
REMARK    4  A    between atoms: C_7  and  C_12
REMARK    5  A    between atoms: C_13  and  N_15
REMARK    6  A    between atoms: N_15  and  C_16
REMARK    7  A    between atoms: C_16  and  C_17
REMARK    8  A    between atoms: C_30  and  O_32
REMARK    9  A    between atoms: O_32  and  C_33
REMARK   10  A    between atoms: C_33  and  C_34
REMARK                            x       y       z     vdW  Elec       q    Type
REMARK                         _______ _______ _______ _____ _____    ______ ____
ROOT
ATOM      1  C   UNL     1       0.032   1.774  -0.016  0.00  0.00    +0.066 C 
ATOM      2  C   UNL     1       0.044   0.268   0.018  0.00  0.00    +0.053 C 
ATOM      3  C   UNL     1      -1.150  -0.428   0.043  0.00  0.00    +0.083 C 
ATOM      4  C   UNL     1      -1.085  -1.938   0.075  0.00  0.00    +0.152 C 
ATOM      5  N   UNL     1       0.267  -2.558   0.079  0.00  0.00    -0.267 N 
ATOM      6  C   UNL     1       0.563  -3.906   0.105  0.00  0.00    +0.048 C 
ATOM      7  C   UNL     1       1.867  -4.262   0.102  0.00  0.00    +0.072 C 
ATOM      8  S   UNL     1       2.681  -2.678   0.061  0.00  0.00    -0.060 S 
ATOM      9  C   UNL     1       1.323  -1.691   0.051  0.00  0.00    +0.166 C 
ATOM     10  N   UNL     1       1.198  -0.380   0.018  0.00  0.00    -0.230 NA
ENDROOT
BRANCH   4  11
ATOM     11  C   UNL     1      -1.812  -2.407   1.310  0.00  0.00    +0.013 A 
ATOM     12  C   UNL     1      -3.061  -2.988   1.197  0.00  0.00    +0.008 A 
ATOM     13  C   UNL     1      -3.728  -3.418   2.329  0.00  0.00    +0.001 A 
ATOM     14  C   UNL     1      -3.147  -3.268   3.575  0.00  0.00    +0.003 A 
ATOM     15  C   UNL     1      -1.898  -2.688   3.689  0.00  0.00    +0.039 A 
ATOM     16  C   UNL     1      -1.226  -2.261   2.555  0.00  0.00    +0.129 A 
ATOM     17  F   UNL     1      -0.003  -1.699   2.666  0.00  0.00    -0.205 F 
ENDBRANCH   4  11
BRANCH   6  18
ATOM     18  C   UNL     1      -0.502  -4.919   0.137  0.00  0.00    +0.091 C 
ATOM     19  C   UNL     1      -0.190  -6.220   0.295  0.00  0.00    +0.239 C 
ATOM     20  O   UNL     1       1.108  -6.608   0.316  0.00  0.00    -0.271 OA
BRANCH  19  21
ATOM     21  N   UNL     1      -1.196  -7.161   0.437  0.00  0.00    -0.309 N 
ATOM     22  H   UNL     1      -2.125  -6.883   0.422  0.00  0.00    +0.149 HD
BRANCH  21  23
ATOM     23  C   UNL     1      -0.857  -8.575   0.609  0.00  0.00    +0.136 C 
BRANCH  23  24
ATOM     24  C   UNL     1      -2.142  -9.395   0.742  0.00  0.00    +0.135 C 
ATOM     25  C   UNL     1      -1.794 -10.869   1.045  0.00  0.00    +0.035 C 
ATOM     26  C   UNL     1      -2.843 -11.636   0.196  0.00  0.00    +0.031 C 
ATOM     27  C   UNL     1      -2.977 -10.695  -1.028  0.00  0.00    +0.160 C 
ATOM     28  O   UNL     1      -2.867  -9.365  -0.492  0.00  0.00    -0.375 OA
ENDBRANCH  23  24
ENDBRANCH  21  23
ENDBRANCH  19  21
ENDBRANCH   6  18
BRANCH   3  29
ATOM     29  C   UNL     1      -2.378   0.244   0.038  0.00  0.00    +0.339 C 
ATOM     30  O   UNL     1      -2.409   1.459   0.119  0.00  0.00    -0.245 OA
BRANCH  29  31
ATOM     31  O   UNL     1      -3.530  -0.456  -0.056  0.00  0.00    -0.457 OA
BRANCH  31  32
ATOM     32  C   UNL     1      -4.747   0.294  -0.054  0.00  0.00    +0.259 C 
BRANCH  32  33
ATOM     33  C   UNL     1      -5.918  -0.648  -0.165  0.00  0.00    +0.006 C 
ATOM     34  C   UNL     1      -6.963  -0.488   0.608  0.00  0.00    +0.007 C 
ENDBRANCH  32  33
ENDBRANCH  31  32
ENDBRANCH  29  31
ENDBRANCH   3  29
TORSDOF 9
