REMARK  Name = ZINC49503900
REMARK  7 active torsions:
REMARK  status: ('A' for Active; 'I' for Inactive)
REMARK    1  A    between atoms: C_1  and  C_2
REMARK    2  A    between atoms: C_5  and  N_9
REMARK    3  A    between atoms: C_7  and  C_8
REMARK    4  A    between atoms: C_11  and  C_16
REMARK    5  A    between atoms: N_18  and  C_19
REMARK    6  A    between atoms: N_28  and  S_29
REMARK    7  A    between atoms: S_29  and  C_32
REMARK                            x       y       z     vdW  Elec       q    Type
REMARK                         _______ _______ _______ _____ _____    ______ ____
ROOT
ATOM      1  C   UNL     1       3.930  -7.944  -0.921  0.00  0.00    +0.034 A 
ATOM      2  C   UNL     1       4.689  -6.836  -1.275  0.00  0.00    +0.025 A 
ATOM      3  C   UNL     1       6.054  -6.961  -1.433  0.00  0.00    +0.027 A 
ATOM      4  C   UNL     1       6.670  -8.193  -1.238  0.00  0.00    +0.055 A 
ATOM      5  C   UNL     1       5.915  -9.299  -0.882  0.00  0.00    -0.023 A 
ATOM      6  C   UNL     1       4.546  -9.171  -0.721  0.00  0.00    +0.028 A 
ATOM      7  C   UNL     1       6.551 -10.645  -0.653  0.00  0.00    +0.039 C 
ATOM      8  C   UNL     1       7.915 -10.717  -1.340  0.00  0.00    +0.025 C 
ATOM      9  C   UNL     1       8.746  -9.497  -0.921  0.00  0.00    +0.132 C 
ATOM     10  N   UNL     1       8.057  -8.295  -1.409  0.00  0.00    -0.203 N 
ENDROOT
BRANCH   1  13
ATOM     11  C   UNL     1       1.846  -6.979  -1.549  0.00  0.00    +0.222 C 
ATOM     12  O   UNL     1       2.401  -6.402  -2.460  0.00  0.00    -0.275 OA
ATOM     13  N   UNL     1       2.543  -7.822  -0.761  0.00  0.00    -0.285 N 
ATOM     14  H   UNL     1       2.086  -8.343  -0.083  0.00  0.00    +0.155 HD
BRANCH  11  17
ATOM     15  N   UNL     1      -0.110  -4.438  -1.680  0.00  0.00    -0.271 N 
ATOM     16  C   UNL     1      -0.212  -5.756  -2.318  0.00  0.00    +0.127 C 
ATOM     17  C   UNL     1       0.377  -6.755  -1.298  0.00  0.00    +0.102 C 
ATOM     18  C   UNL     1       0.151  -6.011   0.038  0.00  0.00    +0.110 C 
ATOM     19  C   UNL     1       0.094  -4.552  -0.356  0.00  0.00    +0.221 C 
ATOM     20  O   UNL     1       0.213  -3.619   0.410  0.00  0.00    -0.275 OA
BRANCH  15  25
ATOM     21  C   UNL     1      -0.500   0.498  -4.448  0.00  0.00    +0.044 C 
ATOM     22  C   UNL     1      -0.397  -0.813  -3.713  0.00  0.00    -0.047 A 
ATOM     23  C   UNL     1      -0.298  -0.825  -2.333  0.00  0.00    +0.005 A 
ATOM     24  C   UNL     1      -0.203  -2.025  -1.657  0.00  0.00    +0.024 A 
ATOM     25  C   UNL     1      -0.207  -3.221  -2.363  0.00  0.00    +0.037 A 
ATOM     26  C   UNL     1      -0.307  -3.205  -3.748  0.00  0.00    +0.027 A 
ATOM     27  C   UNL     1      -0.406  -2.002  -4.418  0.00  0.00    -0.046 A 
ATOM     28  C   UNL     1      -0.520  -1.985  -5.921  0.00  0.00    +0.044 C 
ENDBRANCH  15  25
ENDBRANCH  11  17
ENDBRANCH   1  13
BRANCH  10  29
ATOM     29  S   UNL     1       8.905  -7.082  -2.151  0.00  0.00    +0.075 S 
ATOM     30  O   UNL     1      10.141  -7.646  -2.567  0.00  0.00    -0.150 OA
ATOM     31  O   UNL     1       8.009  -6.456  -3.059  0.00  0.00    -0.150 OA
BRANCH  29  32
ATOM     32  C   UNL     1       9.289  -5.884  -0.916  0.00  0.00    +0.109 A 
ATOM     33  C   UNL     1       8.412  -4.846  -0.664  0.00  0.00    +0.029 A 
ATOM     34  C   UNL     1       8.713  -3.907   0.304  0.00  0.00    +0.002 A 
ATOM     35  C   UNL     1       9.890  -4.006   1.022  0.00  0.00    +0.000 A 
ATOM     36  C   UNL     1      10.767  -5.045   0.770  0.00  0.00    +0.002 A 
ATOM     37  C   UNL     1      10.464  -5.987  -0.195  0.00  0.00    +0.029 A 
ENDBRANCH  29  32
ENDBRANCH  10  29
TORSDOF 5
