REMARK  Name = ZINC05275965
REMARK  7 active torsions:
REMARK  status: ('A' for Active; 'I' for Inactive)
REMARK    1  A    between atoms: C_1  and  C_2
REMARK    2  A    between atoms: C_4  and  O_30
REMARK    3  A    between atoms: C_14  and  C_15
REMARK    4  A    between atoms: C_14  and  O_19
REMARK    5  A    between atoms: C_15  and  C_17
REMARK    6  A    between atoms: C_17  and  O_18
REMARK    7  A    between atoms: C_28  and  C_29
REMARK                            x       y       z     vdW  Elec       q    Type
REMARK                         _______ _______ _______ _____ _____    ______ ____
ROOT
ATOM      1  C   UNL     1       0.372   0.869  -4.141  0.00  0.00    +0.015 C 
ATOM      2  C   UNL     1      -0.407   1.782  -3.150  0.00  0.00    +0.009 C 
ATOM      3  C   UNL     1      -1.853   1.421  -3.326  0.00  0.00    +0.041 C 
ATOM      4  C   UNL     1      -2.768   1.616  -2.130  0.00  0.00    +0.120 C 
ATOM      5  C   UNL     1      -2.118   1.040  -0.873  0.00  0.00    +0.035 C 
ATOM      6  C   UNL     1      -0.811   1.788  -0.637  0.00  0.00    -0.000 C 
ATOM      7  C   UNL     1       0.176   1.478  -1.762  0.00  0.00    +0.002 C 
ATOM      8  C   UNL     1       1.354   2.482  -1.623  0.00  0.00    +0.008 C 
ATOM      9  C   UNL     1       0.832   3.747  -2.337  0.00  0.00    +0.043 C 
ATOM     10  C   UNL     1      -0.015   3.213  -3.514  0.00  0.00    +0.131 C 
ATOM     11  C   UNL     1      -0.217   1.313   0.696  0.00  0.00    +0.008 C 
ATOM     12  C   UNL     1      -1.053   1.923   1.819  0.00  0.00    +0.032 C 
ATOM     13  C   UNL     1      -2.526   1.748   1.534  0.00  0.00    -0.056 C 
ATOM     14  C   UNL     1      -3.361   2.243   2.463  0.00  0.00    +0.051 C 
ATOM     15  C   UNL     1      -4.821   2.164   2.255  0.00  0.00    +0.179 C 
ATOM     16  O   UNL     1      -5.603   2.364   3.181  0.00  0.00    -0.288 OA
ATOM     17  C   UNL     1      -5.313   1.864   0.893  0.00  0.00    +0.047 C 
ATOM     18  C   UNL     1      -4.456   1.412  -0.031  0.00  0.00    -0.012 C 
ATOM     19  C   UNL     1      -3.043   1.074   0.316  0.00  0.00    +0.013 C 
ATOM     20  C   UNL     1      -3.130  -0.407   0.733  0.00  0.00    +0.020 C 
ENDROOT
BRANCH  10  21
ATOM     21  C   UNL     1      -1.187   4.120  -3.752  0.00  0.00    +0.190 C 
ATOM     22  O   UNL     1      -1.633   4.781  -2.845  0.00  0.00    -0.292 OA
BRANCH  21  23
ATOM     23  C   UNL     1      -1.806   4.207  -5.124  0.00  0.00    +0.233 C 
BRANCH  23  24
ATOM     24  O   UNL     1      -2.896   5.131  -5.096  0.00  0.00    -0.387 OA
ATOM     25  H   UNL     1      -3.343   5.237  -5.947  0.00  0.00    +0.210 HD
ENDBRANCH  23  24
ENDBRANCH  21  23
ENDBRANCH  10  21
BRANCH  10  26
ATOM     26  O   UNL     1       0.805   3.189  -4.697  0.00  0.00    -0.380 OA
ATOM     27  H   UNL     1       1.095   4.064  -4.992  0.00  0.00    +0.211 HD
ENDBRANCH  10  26
BRANCH   4  28
ATOM     28  O   UNL     1      -3.094   2.990  -1.933  0.00  0.00    -0.391 OA
ATOM     29  H   UNL     1      -3.593   3.384  -2.661  0.00  0.00    +0.210 HD
ENDBRANCH   4  28
TORSDOF 5
