REMARK  Name = ZINC39210897
REMARK  5 active torsions:
REMARK  status: ('A' for Active; 'I' for Inactive)
REMARK    1  A    between atoms: C_6  and  C_7
REMARK    2  A    between atoms: C_11  and  C_13
REMARK    3  A    between atoms: C_17  and  C_27
REMARK    4  A    between atoms: C_22  and  N_26
REMARK    5  A    between atoms: C_23  and  C_24
REMARK                            x       y       z     vdW  Elec       q    Type
REMARK                         _______ _______ _______ _____ _____    ______ ____
ROOT
ATOM      1  C   UNL     1      -0.896  -2.720  -1.308  0.00  0.00    +0.067 C 
ATOM      2  C   UNL     1      -1.160  -4.214  -1.531  0.00  0.00    +0.137 C 
ATOM      3  C   UNL     1      -2.473  -4.627  -0.907  0.00  0.00    +0.083 C 
ATOM      4  N   UNL     1      -2.174  -5.482   0.033  0.00  0.00    -0.150 NA
ATOM      5  N   UNL     1      -0.798  -5.677   0.153  0.00  0.00    -0.115 NA
ATOM      6  C   UNL     1      -0.124  -4.951  -0.687  0.00  0.00    +0.227 C 
ATOM      7  O   UNL     1       1.198  -4.725  -0.846  0.00  0.00    -0.425 OA
ATOM      8  C   UNL     1       1.518  -3.428  -1.090  0.00  0.00    +0.200 C 
ATOM      9  C   UNL     1       0.589  -2.474  -1.317  0.00  0.00    +0.091 C 
ENDROOT
BRANCH   3  10
ATOM     10  C   UNL     1      -3.817  -4.159  -1.284  0.00  0.00    -0.001 A 
ATOM     11  C   UNL     1      -3.993  -3.377  -2.429  0.00  0.00    +0.011 A 
ATOM     12  C   UNL     1      -5.255  -2.942  -2.776  0.00  0.00    +0.016 A 
ATOM     13  C   UNL     1      -6.346  -3.279  -1.992  0.00  0.00    +0.018 A 
ATOM     14  C   UNL     1      -6.179  -4.053  -0.856  0.00  0.00    +0.016 A 
ATOM     15  C   UNL     1      -4.924  -4.500  -0.501  0.00  0.00    +0.011 A 
ATOM     16 BR   UNL     1      -8.073  -2.677  -2.474  0.00  0.00    -0.050 Br
ENDBRANCH   3  10
BRANCH   1  21
ATOM     17  C   UNL     1      -0.619  -1.218   0.677  0.00  0.00    +0.080 C 
ATOM     18  N   UNL     1      -1.387  -0.169   0.786  0.00  0.00    -0.153 NA
ATOM     19  N   UNL     1      -2.670  -0.406   0.305  0.00  0.00    -0.161 NA
ATOM     20  C   UNL     1      -2.817  -1.610  -0.143  0.00  0.00    +0.118 C 
ATOM     21  C   UNL     1      -1.477  -2.294   0.041  0.00  0.00    +0.092 C 
BRANCH  17  27
ATOM     22  C   UNL     1       1.646  -0.230   0.963  0.00  0.00    +0.012 A 
ATOM     23  C   UNL     1       2.966  -0.343   1.344  0.00  0.00    +0.039 A 
ATOM     24  C   UNL     1       3.447  -1.544   1.842  0.00  0.00    +0.123 A 
ATOM     25  C   UNL     1       2.605  -2.639   1.961  0.00  0.00    +0.039 A 
ATOM     26  C   UNL     1       1.283  -2.540   1.584  0.00  0.00    +0.012 A 
ATOM     27  C   UNL     1       0.791  -1.331   1.081  0.00  0.00    -0.001 A 
ATOM     28  F   UNL     1       4.742  -1.648   2.213  0.00  0.00    -0.205 F 
ENDBRANCH  17  27
ENDBRANCH   1  21
BRANCH   8  29
ATOM     29  N   UNL     1       2.843  -3.070  -1.107  0.00  0.00    -0.328 N 
ATOM     30  H   UNL     1       3.528  -3.737  -0.946  0.00  0.00    +0.145 HD
ATOM     31  H   UNL     1       3.095  -2.149  -1.279  0.00  0.00    +0.145 HD
ENDBRANCH   8  29
BRANCH   9  32
ATOM     32  C   UNL     1       1.045  -1.143  -1.585  0.00  0.00    +0.100 C 
ATOM     33  N   UNL     1       1.406  -0.087  -1.797  0.00  0.00    -0.191 NA
ENDBRANCH   9  32
TORSDOF 5
