REMARK  Name = ZINC40960757
REMARK  6 active torsions:
REMARK  status: ('A' for Active; 'I' for Inactive)
REMARK    1  A    between atoms: C_3  and  C_11
REMARK    2  A    between atoms: C_5  and  C_7
REMARK    3  A    between atoms: C_13  and  C_16
REMARK    4  A    between atoms: C_16  and  N_17
REMARK    5  A    between atoms: C_20  and  N_23
REMARK    6  A    between atoms: C_24  and  C_26
REMARK                            x       y       z     vdW  Elec       q    Type
REMARK                         _______ _______ _______ _____ _____    ______ ____
ROOT
ATOM      1  N   UNL     1       5.761   5.696   1.370  0.00  0.00    +0.386 N 
ATOM      2  C   UNL     1       4.459   5.763   2.044  0.00  0.00    -0.076 C 
ATOM      3  C   UNL     1       4.659   6.148   3.511  0.00  0.00    +0.004 C 
ATOM      4  C   UNL     1       5.344   7.515   3.586  0.00  0.00    +0.070 C 
ATOM      5  C   UNL     1       6.667   7.455   2.816  0.00  0.00    +0.004 C 
ATOM      6  C   UNL     1       6.392   7.021   1.374  0.00  0.00    -0.076 C 
ATOM      7  H   UNL     1       6.355   5.040   1.854  0.00  0.00    -0.081 HD
ENDROOT
BRANCH   4   8
ATOM      8  N   UNL     1       5.607   7.856   4.986  0.00  0.00    -0.308 N 
ATOM      9  C   UNL     1       5.723   9.147   5.355  0.00  0.00    +0.251 C 
ATOM     10  O   UNL     1       5.608  10.030   4.525  0.00  0.00    -0.270 OA
ATOM     11  H   UNL     1       5.699   7.152   5.647  0.00  0.00    +0.149 HD
BRANCH   9  12
ATOM     12  C   UNL     1       5.986   9.488   6.756  0.00  0.00    +0.074 A 
ATOM     13  C   UNL     1       6.132  10.734   7.338  0.00  0.00    +0.024 A 
ATOM     14  C   UNL     1       6.378  10.763   8.703  0.00  0.00    -0.036 A 
ATOM     15  C   UNL     1       6.452   9.557   9.337  0.00  0.00    -0.006 A 
ATOM     16  S   UNL     1       6.195   8.405   8.157  0.00  0.00    -0.088 S 
ATOM     17  C   UNL     1       6.709   9.326  10.797  0.00  0.00    +0.043 C 
ATOM     18  C   UNL     1       7.249  10.627  11.407  0.00  0.00    +0.005 C 
ATOM     19  C   UNL     1       6.352  11.788  10.966  0.00  0.00    +0.005 C 
ATOM     20  C   UNL     1       6.559  12.066   9.477  0.00  0.00    +0.036 C 
ENDBRANCH   9  12
ENDBRANCH   4   8
BRANCH   1  21
ATOM     21  C   UNL     1       5.570   5.250  -0.017  0.00  0.00    +0.022 C 
BRANCH  21  24
ATOM     22  C   UNL     1       3.660   2.164  -0.022  0.00  0.00    +0.202 A 
ATOM     23  N   UNL     1       3.778   3.504  -0.011  0.00  0.00    -0.193 NA
ATOM     24  C   UNL     1       5.036   3.841  -0.023  0.00  0.00    +0.211 A 
ATOM     25  O   UNL     1       5.775   2.724  -0.043  0.00  0.00    -0.340 OA
ATOM     26  N   UNL     1       4.860   1.639  -0.036  0.00  0.00    -0.056 NA
BRANCH  22  29
ATOM     27  C   UNL     1      -0.017   1.379   0.010  0.00  0.00    +0.001 A 
ATOM     28  C   UNL     1       1.168   2.088   0.002  0.00  0.00    +0.012 A 
ATOM     29  C   UNL     1       2.384   1.408  -0.013  0.00  0.00    +0.023 A 
ATOM     30  C   UNL     1       2.397   0.014  -0.021  0.00  0.00    +0.024 A 
ATOM     31  C   UNL     1       1.206  -0.684  -0.013  0.00  0.00    +0.055 A 
ATOM     32  C   UNL     1       0.002  -0.004   0.002  0.00  0.00    +0.012 A 
BRANCH  31  33
ATOM     33  C   UNL     1       1.219  -2.191  -0.022  0.00  0.00    +0.417 C 
ATOM     34  F   UNL     1       1.236  -2.665   1.294  0.00  0.00    -0.166 F 
ATOM     35  F   UNL     1       0.074  -2.663  -0.673  0.00  0.00    -0.166 F 
ATOM     36  F   UNL     1       2.359  -2.644  -0.695  0.00  0.00    -0.166 F 
ENDBRANCH  31  33
ENDBRANCH  22  29
ENDBRANCH  21  24
ENDBRANCH   1  21
TORSDOF 6
