REMARK  Name = ZINC50829997
REMARK  3 active torsions:
REMARK  status: ('A' for Active; 'I' for Inactive)
REMARK    1  A    between atoms: C_6  and  N_20
REMARK    2  A    between atoms: C_8  and  C_10
REMARK    3  A    between atoms: C_10  and  N_11
REMARK                            x       y       z     vdW  Elec       q    Type
REMARK                         _______ _______ _______ _____ _____    ______ ____
ROOT
ATOM      1  C   UNL     1      -0.018   1.448   0.010  0.00  0.00    +0.021 A 
ATOM      2  C   UNL     1       1.144   2.119   0.003  0.00  0.00    +0.048 A 
ATOM      3  S   UNL     1       2.371   0.826  -0.016  0.00  0.00    -0.077 S 
ATOM      4  C   UNL     1       1.291  -0.580  -0.013  0.00  0.00    +0.114 A 
ATOM      5  C   UNL     1       0.002  -0.004   0.002  0.00  0.00    +0.047 A 
ATOM      6  C   UNL     1      -1.078  -0.928   0.007  0.00  0.00    +0.128 A 
ATOM      7  N   UNL     1      -0.818  -2.226  -0.003  0.00  0.00    -0.215 NA
ATOM      8  C   UNL     1       0.417  -2.695  -0.017  0.00  0.00    +0.154 A 
ATOM      9  N   UNL     1       1.460  -1.888  -0.022  0.00  0.00    -0.223 NA
ENDROOT
BRANCH   6  10
ATOM     10  N   UNL     1      -2.386  -0.477   0.022  0.00  0.00    -0.343 N 
ATOM     11  H   UNL     1      -2.570   0.475   0.030  0.00  0.00    +0.144 HD
ATOM     12  H   UNL     1      -3.118  -1.113   0.025  0.00  0.00    +0.144 HD
ENDBRANCH   6  10
BRANCH   8  13
ATOM     13  C   UNL     1       0.639  -4.186  -0.028  0.00  0.00    +0.219 C 
BRANCH  13  14
ATOM     14  N   UNL     1       0.698  -4.661  -1.412  0.00  0.00    -0.261 N 
ATOM     15  C   UNL     1       1.700  -5.376  -1.964  0.00  0.00    +0.126 A 
ATOM     16  C   UNL     1       1.374  -5.616  -3.256  0.00  0.00    +0.086 A 
ATOM     17  C   UNL     1       0.129  -5.026  -3.501  0.00  0.00    +0.249 A 
ATOM     18  N   UNL     1      -0.279  -4.458  -2.395  0.00  0.00    -0.145 NA
ATOM     19  N   UNL     1      -0.603  -5.046  -4.788  0.00  0.00    +0.078 N 
ATOM     20  O   UNL     1      -0.126  -5.609  -5.746  0.00  0.00    -0.125 OA
ATOM     21  O   UNL     1      -1.677  -4.499  -4.881  0.00  0.00    -0.125 OA
ATOM     22 BR   UNL     1       2.416  -6.576  -4.508  0.00  0.00    -0.045 Br
ENDBRANCH  13  14
ENDBRANCH   8  13
TORSDOF 3
