REMARK  Name = ZINC49391904
REMARK  10 active torsions:
REMARK  status: ('A' for Active; 'I' for Inactive)
REMARK    1  A    between atoms: C_1  and  C_2
REMARK    2  A    between atoms: C_9  and  C_11
REMARK    3  A    between atoms: C_14  and  N_17
REMARK    4  A    between atoms: C_18  and  C_20
REMARK    5  A    between atoms: C_20  and  N_21
REMARK    6  A    between atoms: N_24  and  C_27
REMARK    7  A    between atoms: C_29  and  O_35
REMARK    8  A    between atoms: C_32  and  O_33
REMARK    9  A    between atoms: O_33  and  C_34
REMARK   10  A    between atoms: O_35  and  C_36
REMARK                            x       y       z     vdW  Elec       q    Type
REMARK                         _______ _______ _______ _____ _____    ______ ____
ROOT
ATOM      1  N   UNL     1       0.153 -10.274   2.434  0.00  0.00    -0.284 N 
ATOM      2  C   UNL     1       0.065 -11.177   1.436  0.00  0.00    +0.235 C 
ATOM      3  O   UNL     1       0.059 -10.806   0.282  0.00  0.00    -0.274 OA
ATOM      4  H   UNL     1       0.235 -10.574   3.353  0.00  0.00    +0.155 HD
ENDROOT
BRANCH   1   8
ATOM      5  C   UNL     1       0.074  -6.198   1.569  0.00  0.00    +0.007 A 
ATOM      6  C   UNL     1      -0.663  -7.092   0.791  0.00  0.00    +0.012 A 
ATOM      7  C   UNL     1      -0.635  -8.439   1.080  0.00  0.00    +0.024 A 
ATOM      8  C   UNL     1       0.127  -8.908   2.144  0.00  0.00    +0.033 A 
ATOM      9  C   UNL     1       0.862  -8.020   2.921  0.00  0.00    +0.024 A 
ATOM     10  C   UNL     1       0.844  -6.673   2.634  0.00  0.00    +0.012 A 
BRANCH   5  19
ATOM     11  C   UNL     1      -0.123   1.474  -0.117  0.00  0.00    +0.044 C 
ATOM     12  C   UNL     1       0.105   0.089   0.432  0.00  0.00    -0.049 A 
ATOM     13  C   UNL     1       0.939  -0.102   1.525  0.00  0.00    +0.005 A 
ATOM     14  C   UNL     1       1.165  -1.338   2.044  0.00  0.00    +0.029 A 
ATOM     15  C   UNL     1       0.553  -2.484   1.481  0.00  0.00    +0.079 A 
ATOM     16  C   UNL     1      -0.291  -2.256   0.368  0.00  0.00    +0.040 A 
ATOM     17  C   UNL     1      -0.517  -1.002  -0.144  0.00  0.00    +0.020 A 
ATOM     18  S   UNL     1      -0.845  -3.897  -0.028  0.00  0.00    -0.067 S 
ATOM     19  C   UNL     1       0.046  -4.753   1.263  0.00  0.00    +0.109 A 
ATOM     20  N   UNL     1       0.671  -3.768   1.871  0.00  0.00    -0.239 NA
ENDBRANCH   5  19
ENDBRANCH   1   8
BRANCH   2  21
ATOM     21  C   UNL     1      -0.027 -12.646   1.756  0.00  0.00    +0.205 C 
BRANCH  21  22
ATOM     22  N   UNL     1      -0.112 -13.413   0.510  0.00  0.00    -0.275 N 
ATOM     23  C   UNL     1      -1.357 -13.772  -0.185  0.00  0.00    +0.129 C 
ATOM     24  C   UNL     1      -0.876 -14.562  -1.418  0.00  0.00    +0.134 C 
ATOM     25  N   UNL     1       0.588 -14.565  -1.286  0.00  0.00    -0.250 N 
ATOM     26  C   UNL     1       0.931 -13.892  -0.179  0.00  0.00    +0.310 C 
ATOM     27  O   UNL     1       2.085 -13.735   0.170  0.00  0.00    -0.252 OA
BRANCH  25  28
ATOM     28  C   UNL     1       1.483 -15.169  -2.179  0.00  0.00    +0.083 A 
ATOM     29  C   UNL     1       1.990 -14.447  -3.250  0.00  0.00    +0.072 A 
ATOM     30  C   UNL     1       2.875 -15.047  -4.131  0.00  0.00    +0.122 A 
ATOM     31  C   UNL     1       3.255 -16.369  -3.943  0.00  0.00    +0.049 A 
ATOM     32  C   UNL     1       2.751 -17.090  -2.877  0.00  0.00    +0.051 A 
ATOM     33  C   UNL     1       1.870 -16.493  -1.990  0.00  0.00    +0.142 A 
BRANCH  33  34
ATOM     34  O   UNL     1       1.379 -17.203  -0.938  0.00  0.00    -0.493 OA
ATOM     35  C   UNL     1       1.818 -18.556  -0.806  0.00  0.00    +0.277 C 
ENDBRANCH  33  34
BRANCH  30  36
ATOM     36  O   UNL     1       3.372 -14.341  -5.181  0.00  0.00    -0.495 OA
ATOM     37  C   UNL     1       4.280 -15.022  -6.050  0.00  0.00    +0.277 C 
ENDBRANCH  30  36
ENDBRANCH  25  28
ENDBRANCH  21  22
ENDBRANCH   2  21
TORSDOF 7
