REMARK  Name = ZINC63351175
REMARK  7 active torsions:
REMARK  status: ('A' for Active; 'I' for Inactive)
REMARK    1  A    between atoms: C_1  and  C_2
REMARK    2  A    between atoms: C_13  and  C_15
REMARK    3  A    between atoms: C_15  and  C_16
REMARK    4  A    between atoms: N_18  and  CA_19
REMARK    5  A    between atoms: CA_19  and  CB_21
REMARK    6  A    between atoms: CA_19  and  C_31
REMARK    7  A    between atoms: CB_21  and  CG_22
REMARK                            x       y       z     vdW  Elec       q    Type
REMARK                         _______ _______ _______ _____ _____    ______ ____
ROOT
ATOM      1  C   UNK A   0       1.115  -1.984   1.060  0.00  0.00    +0.111 C 
ENDROOT
BRANCH   1  13
ATOM      2  C   UNK A   0      -0.019   1.526   0.010  0.00  0.00    +0.013 C 
ATOM      3  C   UNK A   0       0.002  -0.004   0.002  0.00  0.00    +0.034 C 
ATOM      4  C   UNK A   0      -1.414  -0.524   0.009  0.00  0.00    -0.001 A 
ATOM      5  C   UNK A   0      -2.102  -0.540  -1.177  0.00  0.00    +0.019 A 
ATOM      6  C   UNK A   0      -3.414  -1.004  -1.222  0.00  0.00    +0.024 A 
ATOM      7  C   UNK A   0      -4.038  -1.462  -0.047  0.00  0.00    +0.139 A 
ATOM      8  C   UNK A   0      -3.330  -1.442   1.145  0.00  0.00    +0.093 A 
ATOM      9  C   UNK A   0      -2.022  -0.977   1.172  0.00  0.00    +0.139 A 
ATOM     10  O   UNK A   0      -1.363  -0.992   2.364  0.00  0.00    -0.425 OA
ATOM     11  C   UNK A   0      -0.178  -0.354   2.429  0.00  0.00    +0.316 C 
ATOM     12  O   UNK A   0       0.131   0.311   3.390  0.00  0.00    -0.250 OA
ATOM     13  C   UNK A   0       0.747  -0.510   1.241  0.00  0.00    +0.114 C 
ATOM     14  O   UNK A   0      -5.288  -1.848  -0.378  0.00  0.00    -0.459 OA
ATOM     15  C   UNK A   0      -5.515  -1.666  -1.690  0.00  0.00    +0.109 A 
ATOM     16  C   UNK A   0      -4.418  -1.155  -2.273  0.00  0.00    +0.001 A 
ATOM     17  C   UNK A   0      -4.296  -0.819  -3.736  0.00  0.00    +0.039 C 
ATOM     18  C   UNK A   0      -5.438  -1.512  -4.490  0.00  0.00    +0.005 C 
ATOM     19  C   UNK A   0      -6.763  -1.226  -3.777  0.00  0.00    +0.008 C 
ATOM     20  C   UNK A   0      -6.793  -1.971  -2.438  0.00  0.00    +0.075 C 
ENDBRANCH   1  13
BRANCH   1  21
ATOM     21  C   UNK A   0       1.952  -2.439   2.227  0.00  0.00    +0.214 C 
ATOM     22  O   UNK A   0       2.227  -1.662   3.116  0.00  0.00    -0.276 OA
ATOM     23  N   TRP A   1       2.395  -3.711   2.283  0.00  0.00    -0.302 N 
ATOM     24  H   TRP A   1       2.175  -4.333   1.572  0.00  0.00    +0.150 HD
BRANCH  23  25
ATOM     25  CA  TRP A   1       3.209  -4.154   3.418  0.00  0.00    +0.190 C 
BRANCH  25  26
ATOM     26  C   TRP A   1       4.655  -3.814   3.162  0.00  0.00    +0.376 C 
ATOM     27  O   TRP A   1       5.399  -3.574   4.097  0.00  0.00    -0.244 OA
ATOM     28  OXT TRP A   1       5.080  -3.779   2.020  0.00  0.00    -0.244 OA
ENDBRANCH  25  26
BRANCH  25  29
ATOM     29  CB  TRP A   1       3.064  -5.667   3.590  0.00  0.00    +0.067 C 
BRANCH  29  30
ATOM     30  CG  TRP A   1       1.643  -5.996   3.966  0.00  0.00    -0.039 C 
ATOM     31  CD2 TRP A   1       0.644  -6.364   3.131  0.00  0.00    -0.001 A 
ATOM     32  CE3 TRP A   1       0.585  -6.560   1.678  0.00  0.00    +0.010 A 
ATOM     33  CZ3 TRP A   1      -0.584  -6.939   1.114  0.00  0.00    +0.001 A 
ATOM     34  CH2 TRP A   1      -1.739  -7.148   1.881  0.00  0.00    +0.002 A 
ATOM     35  CZ2 TRP A   1      -1.763  -6.988   3.221  0.00  0.00    +0.026 A 
ATOM     36  CE2 TRP A   1      -0.588  -6.592   3.919  0.00  0.00    +0.043 A 
ATOM     37  NE1 TRP A   1      -0.361  -6.373   5.191  0.00  0.00    -0.380 N 
ATOM     38  CD1 TRP A   1       1.045  -5.987   5.356  0.00  0.00    +0.144 C 
ATOM     39  HE1 TRP A   1      -1.012  -6.456   5.905  0.00  0.00    +0.160 HD
ENDBRANCH  29  30
ENDBRANCH  25  29
ENDBRANCH  23  25
ENDBRANCH   1  21
TORSDOF 6
