REMARK  Name = ZINC12659586
REMARK  8 active torsions:
REMARK  status: ('A' for Active; 'I' for Inactive)
REMARK    1  A    between atoms: C_1  and  O_2
REMARK    2  A    between atoms: O_2  and  C_3
REMARK    3  A    between atoms: C_6  and  C_9
REMARK    4  A    between atoms: N_13  and  C_14
REMARK    5  A    between atoms: C_17  and  N_20
REMARK    6  A    between atoms: N_20  and  C_21
REMARK    7  A    between atoms: C_21  and  N_23
REMARK    8  A    between atoms: C_24  and  C_26
REMARK                            x       y       z     vdW  Elec       q    Type
REMARK                         _______ _______ _______ _____ _____    ______ ____
ROOT
ATOM      1  C   UNL     1      -4.094   2.396   0.317  0.00  0.00    +0.068 A 
ATOM      2  C   UNL     1      -3.256   1.902  -0.675  0.00  0.00    +0.029 A 
ATOM      3  C   UNL     1      -2.465   0.800  -0.423  0.00  0.00    +0.025 A 
ATOM      4  C   UNL     1      -2.506   0.184   0.821  0.00  0.00    +0.033 A 
ATOM      5  C   UNL     1      -3.349   0.675   1.811  0.00  0.00    +0.025 A 
ATOM      6  C   UNL     1      -4.136   1.781   1.561  0.00  0.00    +0.029 A 
ENDROOT
BRANCH   1  11
ATOM      7  C   UNL     1      -5.087   4.597   0.881  0.00  0.00    +0.095 A 
ATOM      8  C   UNL     1      -5.940   5.435   0.225  0.00  0.00    +0.165 A 
ATOM      9  N   UNL     1      -6.266   4.887  -0.943  0.00  0.00    -0.137 NA
ATOM     10  N   UNL     1      -5.675   3.753  -1.083  0.00  0.00    -0.060 NA
ATOM     11  N   UNL     1      -4.898   3.516   0.061  0.00  0.00    -0.212 N 
BRANCH   7  15
ATOM     12  C   UNL     1      -3.353   5.221   4.711  0.00  0.00    +0.120 A 
ATOM     13  C   UNL     1      -4.550   5.845   4.383  0.00  0.00    +0.046 A 
ATOM     14  C   UNL     1      -5.115   5.645   3.141  0.00  0.00    +0.013 A 
ATOM     15  C   UNL     1      -4.484   4.814   2.215  0.00  0.00    +0.002 A 
ATOM     16  C   UNL     1      -3.285   4.184   2.551  0.00  0.00    +0.013 A 
ATOM     17  C   UNL     1      -2.723   4.393   3.792  0.00  0.00    +0.046 A 
BRANCH  12  19
ATOM     18  C   UNL     1      -1.568   4.747   6.208  0.00  0.00    +0.277 C 
ATOM     19  O   UNL     1      -2.799   5.420   5.936  0.00  0.00    -0.495 OA
ENDBRANCH  12  19
ENDBRANCH   7  15
ENDBRANCH   1  11
BRANCH   4  20
ATOM     20  N   UNL     1      -1.704  -0.934   1.076  0.00  0.00    -0.297 N 
ATOM     21  H   UNL     1      -2.082  -1.712   1.514  0.00  0.00    +0.154 HD
BRANCH  20  22
ATOM     22  C   UNL     1      -0.408  -0.931   0.708  0.00  0.00    +0.141 C 
ATOM     23  S   UNL     1       0.233   0.398  -0.161  0.00  0.00    -0.018 S 
BRANCH  22  24
ATOM     24  N   UNL     1       0.385  -1.974   1.025  0.00  0.00    -0.267 N 
ATOM     25  C   UNL     1       1.682  -1.971   0.657  0.00  0.00    +0.225 C 
ATOM     26  O   UNL     1       2.135  -1.030   0.041  0.00  0.00    -0.275 OA
ATOM     27  H   UNL     1       0.022  -2.727   1.517  0.00  0.00    +0.157 HD
BRANCH  25  28
ATOM     28  C   UNL     1       2.568  -3.137   1.011  0.00  0.00    +0.048 C 
ATOM     29  C   UNL     1       2.615  -3.299   2.531  0.00  0.00    +0.019 C 
ATOM     30  C   UNL     1       3.515  -4.483   2.891  0.00  0.00    -0.009 C 
ATOM     31  C   UNL     1       4.928  -4.229   2.360  0.00  0.00    +0.007 C 
ATOM     32  C   UNL     1       4.880  -4.067   0.840  0.00  0.00    -0.009 C 
ATOM     33  C   UNL     1       3.981  -2.883   0.480  0.00  0.00    +0.019 C 
ATOM     34  C   UNL     1       4.320  -5.344   0.209  0.00  0.00    +0.007 C 
ATOM     35  C   UNL     1       2.908  -5.597   0.739  0.00  0.00    -0.009 C 
ATOM     36  C   UNL     1       2.955  -5.759   2.260  0.00  0.00    +0.007 C 
ATOM     37  C   UNL     1       2.008  -4.413   0.380  0.00  0.00    +0.019 C 
ENDBRANCH  25  28
ENDBRANCH  22  24
ENDBRANCH  20  22
ENDBRANCH   4  20
TORSDOF 7
