REMARK  Name = ZINC27662601
REMARK  7 active torsions:
REMARK  status: ('A' for Active; 'I' for Inactive)
REMARK    1  A    between atoms: C_1  and  C_2
REMARK    2  A    between atoms: C_5  and  C_8
REMARK    3  A    between atoms: C_10  and  C_13
REMARK    4  A    between atoms: N_15  and  C_16
REMARK    5  A    between atoms: C_17  and  C_25
REMARK    6  A    between atoms: N_27  and  C_28
REMARK    7  A    between atoms: C_28  and  C_29
REMARK                            x       y       z     vdW  Elec       q    Type
REMARK                         _______ _______ _______ _____ _____    ______ ____
ROOT
ATOM      1  C   UNL     1      -4.047   6.302  -3.614  0.00  0.00    +0.085 A 
ATOM      2  C   UNL     1      -4.459   5.162  -2.937  0.00  0.00    +0.069 A 
ATOM      3  C   UNL     1      -5.327   4.237  -3.646  0.00  0.00    -0.023 A 
ATOM      4  C   UNL     1      -5.651   4.603  -4.906  0.00  0.00    -0.004 A 
ATOM      5  S   UNL     1      -4.811   6.141  -5.160  0.00  0.00    -0.077 S 
ATOM      6  C   UNL     1      -6.523   3.856  -5.867  0.00  0.00    +0.043 C 
ATOM      7  C   UNL     1      -6.707   2.425  -5.341  0.00  0.00    +0.005 C 
ATOM      8  C   UNL     1      -7.078   2.488  -3.857  0.00  0.00    +0.005 C 
ATOM      9  C   UNL     1      -5.870   2.949  -3.039  0.00  0.00    +0.037 C 
ENDROOT
BRANCH   1  12
ATOM     10  C   UNL     1      -2.932   8.359  -3.970  0.00  0.00    +0.270 C 
ATOM     11  O   UNL     1      -3.389   8.401  -5.095  0.00  0.00    -0.268 OA
ATOM     12  N   UNL     1      -3.224   7.321  -3.162  0.00  0.00    -0.274 N 
ATOM     13  H   UNL     1      -2.810   7.283  -2.144  0.00  0.00    +0.156 HD
BRANCH  10  16
ATOM     14  C   UNL     1      -0.854  11.280  -3.329  0.00  0.00    +0.168 A 
ATOM     15  C   UNL     1      -1.645  10.600  -4.212  0.00  0.00    +0.086 A 
ATOM     16  C   UNL     1      -2.051   9.449  -3.487  0.00  0.00    +0.169 A 
ATOM     17  N   UNL     1      -1.487   9.540  -2.307  0.00  0.00    -0.073 NA
ATOM     18  O   UNL     1      -0.823  10.545  -2.203  0.00  0.00    -0.354 OA
BRANCH  14  23
ATOM     19  C   UNL     1       1.833  16.285  -4.251  0.00  0.00    +0.044 C 
ATOM     20  C   UNL     1       1.129  14.974  -4.010  0.00  0.00    -0.050 A 
ATOM     21  C   UNL     1       1.261  14.336  -2.789  0.00  0.00    +0.004 A 
ATOM     22  C   UNL     1       0.620  13.136  -2.561  0.00  0.00    +0.012 A 
ATOM     23  C   UNL     1      -0.164  12.566  -3.566  0.00  0.00    +0.020 A 
ATOM     24  C   UNL     1      -0.288  13.212  -4.796  0.00  0.00    +0.012 A 
ATOM     25  C   UNL     1       0.354  14.414  -5.010  0.00  0.00    +0.004 A 
ENDBRANCH  14  23
ENDBRANCH  10  16
ENDBRANCH   1  12
BRANCH   2  26
ATOM     26  C   UNL     1      -4.030   4.898  -1.560  0.00  0.00    +0.247 C 
ATOM     27  O   UNL     1      -4.695   5.308  -0.626  0.00  0.00    -0.270 OA
ATOM     28  N   UNL     1      -2.900   4.202  -1.328  0.00  0.00    -0.307 N 
ATOM     29  H   UNL     1      -2.299   3.831  -2.172  0.00  0.00    +0.149 HD
BRANCH  28  30
ATOM     30  C   UNL     1      -2.471   3.938   0.047  0.00  0.00    +0.141 C 
BRANCH  30  31
ATOM     31  C   UNL     1      -1.188   3.148   0.031  0.00  0.00    -0.012 A 
ATOM     32  C   UNL     1      -1.217   1.761   0.017  0.00  0.00    +0.008 A 
ATOM     33  C   UNL     1      -0.013   1.076   0.008  0.00  0.00    +0.020 A 
ATOM     34  C   UNL     1       1.170   1.792   0.001  0.00  0.00    +0.111 A 
ATOM     35  N   UNL     1       1.160   3.110   0.008  0.00  0.00    -0.263 NA
ATOM     36  C   UNL     1       0.033   3.795   0.023  0.00  0.00    +0.115 A 
ENDBRANCH  30  31
ENDBRANCH  28  30
ENDBRANCH   2  26
TORSDOF 6
