REMARK  Name = ZINC21237980
REMARK  8 active torsions:
REMARK  status: ('A' for Active; 'I' for Inactive)
REMARK    1  A    between atoms: C_4  and  C_7
REMARK    2  A    between atoms: C_7  and  C_9
REMARK    3  A    between atoms: C_7  and  N_16
REMARK    4  A    between atoms: C_17  and  C_19
REMARK    5  A    between atoms: C_19  and  S_20
REMARK    6  A    between atoms: S_20  and  C_21
REMARK    7  A    between atoms: C_24  and  C_27
REMARK    8  A    between atoms: N_25  and  N_26
REMARK                            x       y       z     vdW  Elec       q    Type
REMARK                         _______ _______ _______ _____ _____    ______ ____
ROOT
ATOM      1  N   UNL     1       0.096  -2.881   5.874  0.00  0.00    -0.304 N 
ATOM      2  C   UNL     1       0.074  -1.799   5.071  0.00  0.00    +0.224 C 
ATOM      3  O   UNL     1       0.065  -0.686   5.553  0.00  0.00    -0.275 OA
ATOM      4  H   UNL     1       0.104  -3.891   5.437  0.00  0.00    +0.150 HD
ENDROOT
BRANCH   1   5
ATOM      5  C   UNL     1       0.108  -2.713   7.330  0.00  0.00    +0.134 C 
BRANCH   5   6
ATOM      6  C   UNL     1      -0.470  -3.942   7.982  0.00  0.00    -0.023 A 
ATOM      7  C   UNL     1      -0.171  -5.196   7.482  0.00  0.00    +0.007 A 
ATOM      8  C   UNL     1      -0.697  -6.324   8.084  0.00  0.00    +0.020 A 
ATOM      9  C   UNL     1      -1.532  -6.197   9.180  0.00  0.00    +0.041 A 
ATOM     10  C   UNL     1      -1.836  -4.942   9.676  0.00  0.00    +0.020 A 
ATOM     11  C   UNL     1      -1.305  -3.815   9.077  0.00  0.00    +0.007 A 
ATOM     12 CL   UNL     1      -2.199  -7.613   9.931  0.00  0.00    -0.084 Cl
ENDBRANCH   5   6
BRANCH   5  16
ATOM     13  C   UNL     1       4.127  -2.151   8.665  0.00  0.00    +0.000 A 
ATOM     14  C   UNL     1       3.102  -1.412   9.226  0.00  0.00    +0.000 A 
ATOM     15  C   UNL     1       1.802  -1.594   8.794  0.00  0.00    +0.006 A 
ATOM     16  C   UNL     1       1.526  -2.515   7.801  0.00  0.00    -0.023 A 
ATOM     17  C   UNL     1       2.550  -3.257   7.243  0.00  0.00    +0.006 A 
ATOM     18  C   UNL     1       3.851  -3.072   7.672  0.00  0.00    +0.000 A 
ENDBRANCH   5  16
ENDBRANCH   1   5
BRANCH   2  19
ATOM     19  C   UNL     1       0.062  -1.972   3.574  0.00  0.00    +0.173 C 
BRANCH  19  20
ATOM     20  S   UNL     1       0.034  -0.347   2.779  0.00  0.00    -0.075 S 
BRANCH  20  21
ATOM     21  C   UNL     1       0.023  -0.834   1.086  0.00  0.00    +0.209 A 
ATOM     22  N   UNL     1       0.035  -2.064   0.628  0.00  0.00    -0.121 NA
ATOM     23  N   UNL     1       0.023  -2.052  -0.657  0.00  0.00    -0.132 NA
ATOM     24  C   UNL     1      -0.003  -0.824  -1.093  0.00  0.00    +0.154 A 
ATOM     25  N   UNL     1       0.002  -0.004   0.002  0.00  0.00    -0.228 N 
BRANCH  24  26
ATOM     26  C   UNL     1      -0.030  -0.388  -2.535  0.00  0.00    +0.059 C 
ATOM     27  C   UNL     1      -1.281  -0.948  -3.213  0.00  0.00    +0.011 C 
ATOM     28  C   UNL     1      -1.309  -0.505  -4.678  0.00  0.00    +0.001 C 
ATOM     29  C   UNL     1      -0.063  -1.031  -5.393  0.00  0.00    +0.000 C 
ATOM     30  C   UNL     1       1.189  -0.471  -4.714  0.00  0.00    +0.001 C 
ATOM     31  C   UNL     1       1.217  -0.914  -3.250  0.00  0.00    +0.011 C 
ENDBRANCH  24  26
BRANCH  25  32
ATOM     32  N   UNL     1      -0.016   1.362   0.009  0.00  0.00    -0.295 N 
ATOM     33  H   UNL     1      -0.033   1.917  -0.940  0.00  0.00    +0.163 HD
ATOM     34  H   UNL     1      -0.015   1.907   0.965  0.00  0.00    +0.163 HD
ENDBRANCH  25  32
ENDBRANCH  20  21
ENDBRANCH  19  20
ENDBRANCH   2  19
TORSDOF 8
