REMARK  Name = ZINC27825393
REMARK  4 active torsions:
REMARK  status: ('A' for Active; 'I' for Inactive)
REMARK    1  A    between atoms: C_1  and  C_2
REMARK    2  A    between atoms: C_5  and  C_8
REMARK    3  A    between atoms: C_17  and  N_21
REMARK    4  A    between atoms: C_18  and  C_19
REMARK                            x       y       z     vdW  Elec       q    Type
REMARK                         _______ _______ _______ _____ _____    ______ ____
ROOT
ATOM      1  C   UNL     1       0.059  -4.275  -0.021  0.00  0.00    +0.106 C 
ATOM      2  C   UNL     1       1.272  -4.768   0.688  0.00  0.00    +0.067 A 
ATOM      3  C   UNL     1       1.302  -5.364   1.913  0.00  0.00    +0.235 A 
ATOM      4  N   UNL     1       2.512  -5.718   2.333  0.00  0.00    -0.190 NA
ATOM      5  C   UNL     1       3.589  -5.500   1.605  0.00  0.00    +0.160 A 
ATOM      6  N   UNL     1       4.906  -5.810   1.904  0.00  0.00    -0.337 N 
ATOM      7  S   UNL     1       2.977  -4.756   0.222  0.00  0.00    -0.053 S 
ATOM      8  O   UNL     1       0.124  -5.546   2.597  0.00  0.00    -0.422 OA
ATOM      9  C   UNL     1      -1.032  -5.387   1.931  0.00  0.00    +0.200 C 
ATOM     10  C   UNL     1      -1.152  -4.808   0.713  0.00  0.00    +0.099 C 
ATOM     11  H   UNL     1       5.124  -6.243   2.745  0.00  0.00    +0.144 HD
ATOM     12  H   UNL     1       5.611  -5.593   1.274  0.00  0.00    +0.144 HD
ENDROOT
BRANCH   1  17
ATOM     13  C   UNL     1      -0.018   1.503   0.010  0.00  0.00    +0.044 C 
ATOM     14  C   UNL     1       0.002  -0.004   0.002  0.00  0.00    -0.050 A 
ATOM     15  C   UNL     1       0.006  -0.689  -1.199  0.00  0.00    +0.003 A 
ATOM     16  C   UNL     1       0.025  -2.071  -1.206  0.00  0.00    +0.005 A 
ATOM     17  C   UNL     1       0.040  -2.768  -0.013  0.00  0.00    -0.034 A 
ATOM     18  C   UNL     1       0.037  -2.084   1.188  0.00  0.00    +0.005 A 
ATOM     19  C   UNL     1       0.023  -0.702   1.195  0.00  0.00    +0.003 A 
ENDBRANCH   1  17
BRANCH   9  20
ATOM     20  N   UNL     1      -2.178  -5.847   2.530  0.00  0.00    -0.328 N 
ATOM     21  H   UNL     1      -2.134  -6.268   3.403  0.00  0.00    +0.145 HD
ATOM     22  H   UNL     1      -3.033  -5.750   2.081  0.00  0.00    +0.145 HD
ENDBRANCH   9  20
BRANCH  10  23
ATOM     23  C   UNL     1      -2.446  -4.697   0.109  0.00  0.00    +0.101 C 
ATOM     24  N   UNL     1      -3.472  -4.609  -0.370  0.00  0.00    -0.191 NA
ENDBRANCH  10  23
TORSDOF 3
