REMARK  Name = ZINC13719730
REMARK  4 active torsions:
REMARK  status: ('A' for Active; 'I' for Inactive)
REMARK    1  A    between atoms: C_3  and  S_8
REMARK    2  A    between atoms: S_8  and  N_11
REMARK    3  A    between atoms: N_11  and  C_12
REMARK    4  A    between atoms: C_17  and  C_21
REMARK                            x       y       z     vdW  Elec       q    Type
REMARK                         _______ _______ _______ _____ _____    ______ ____
ROOT
ATOM      1  C   UNL     1       5.484   3.243   1.855  0.00  0.00    +0.202 A 
ATOM      2  N   UNL     1       6.359   3.781   1.033  0.00  0.00    -0.222 NA
ATOM      3  C   UNL     1       7.457   4.431   1.466  0.00  0.00    +0.080 A 
ATOM      4  C   UNL     1       8.468   5.048   0.689  0.00  0.00    +0.030 A 
ATOM      5  C   UNL     1       9.521   5.668   1.276  0.00  0.00    +0.015 A 
ATOM      6  C   UNL     1       9.653   5.723   2.671  0.00  0.00    +0.038 A 
ATOM      7  C   UNL     1       8.673   5.123   3.469  0.00  0.00    +0.030 A 
ATOM      8  C   UNL     1       7.612   4.500   2.873  0.00  0.00    +0.042 A 
ATOM      9  S   UNL     1       6.173   3.637   3.456  0.00  0.00    -0.049 S 
ENDROOT
BRANCH   6  10
ATOM     10  C   UNL     1      10.808   6.401   3.287  0.00  0.00    +0.250 C 
ATOM     11  O   UNL     1      10.914   6.443   4.498  0.00  0.00    -0.270 OA
ATOM     12  N   UNL     1      11.747   6.974   2.508  0.00  0.00    -0.261 N 
ATOM     13  C   UNL     1      12.835   7.613   3.088  0.00  0.00    +0.165 A 
ATOM     14  N   UNL     1      13.116   7.752   4.366  0.00  0.00    -0.233 NA
ATOM     15  C   UNL     1      14.200   8.393   4.761  0.00  0.00    +0.120 A 
ATOM     16  C   UNL     1      15.004   8.898   3.793  0.00  0.00    +0.068 A 
ATOM     17  S   UNL     1      14.118   8.392   2.328  0.00  0.00    -0.061 S 
ATOM     18  H   UNL     1      11.663   6.941   1.542  0.00  0.00    +0.157 HD
ENDBRANCH   6  10
BRANCH   1  19
ATOM     19  N   UNL     1       4.326   2.557   1.556  0.00  0.00    -0.070 NA
BRANCH  19  20
ATOM     20  S   UNL     1       3.891   2.315  -0.023  0.00  0.00    +0.093 S 
ATOM     21  O   UNL     1       4.872   1.456  -0.588  0.00  0.00    -0.148 OA
ATOM     22  O   UNL     1       3.597   3.595  -0.564  0.00  0.00    -0.148 OA
BRANCH  20  25
ATOM     23  C   UNL     1      -0.017   1.380   0.010  0.00  0.00    +0.040 A 
ATOM     24  C   UNL     1       1.171   2.087   0.002  0.00  0.00    +0.031 A 
ATOM     25  C   UNL     1       2.377   1.412  -0.013  0.00  0.00    +0.111 A 
ATOM     26  C   UNL     1       2.397   0.030  -0.021  0.00  0.00    +0.031 A 
ATOM     27  C   UNL     1       1.211  -0.679  -0.014  0.00  0.00    +0.040 A 
ATOM     28  C   UNL     1       0.002  -0.004   0.002  0.00  0.00    +0.124 A 
ATOM     29  F   UNL     1      -1.158  -0.696   0.009  0.00  0.00    -0.205 F 
ENDBRANCH  20  25
ENDBRANCH  19  20
ENDBRANCH   1  19
TORSDOF 4
