REMARK  Name = ZINC02250282
REMARK  6 active torsions:
REMARK  status: ('A' for Active; 'I' for Inactive)
REMARK    1  A    between atoms: C_1  and  O_2
REMARK    2  A    between atoms: O_2  and  C_3
REMARK    3  A    between atoms: C_8  and  C_9
REMARK    4  A    between atoms: C_10  and  C_11
REMARK    5  A    between atoms: C_19  and  C_31
REMARK    6  A    between atoms: C_22  and  C_24
REMARK                            x       y       z     vdW  Elec       q    Type
REMARK                         _______ _______ _______ _____ _____    ______ ____
ROOT
ATOM      1  C   UNL     1      -0.462  -4.994   0.917  0.00  0.00    +0.243 C 
ATOM      2  O   UNL     1      -1.004  -4.461   1.868  0.00  0.00    -0.270 OA
ATOM      3  N   UNL     1      -0.404  -6.338   0.841  0.00  0.00    -0.250 N 
ATOM      4  C   UNL     1      -0.967  -7.120   1.853  0.00  0.00    +0.243 A 
ATOM      5  N   UNL     1      -1.591  -6.649   2.938  0.00  0.00    -0.176 NA
ATOM      6  C   UNL     1      -1.996  -7.649   3.683  0.00  0.00    +0.251 A 
ATOM      7  N   UNL     1      -1.628  -8.807   3.054  0.00  0.00    -0.220 N 
ATOM      8  N   UNL     1      -0.972  -8.438   1.885  0.00  0.00    -0.131 NA
ATOM      9  C   UNL     1      -1.935 -10.131   3.597  0.00  0.00    +0.147 C 
ATOM     10  C   UNL     1      -1.994 -10.014   5.125  0.00  0.00    +0.087 C 
ATOM     11  C   UNL     1      -2.728  -8.772   5.544  0.00  0.00    +0.055 C 
ATOM     12  N   UNL     1      -2.679  -7.662   4.858  0.00  0.00    -0.215 NA
ATOM     13  H   UNL     1       0.028  -6.763   0.083  0.00  0.00    +0.158 HD
ENDROOT
BRANCH  11  14
ATOM     14  C   UNL     1      -3.535  -8.809   6.773  0.00  0.00    -0.003 A 
ATOM     15  C   UNL     1      -3.605  -9.981   7.533  0.00  0.00    +0.011 A 
ATOM     16  C   UNL     1      -4.362 -10.008   8.684  0.00  0.00    +0.020 A 
ATOM     17  C   UNL     1      -5.054  -8.878   9.089  0.00  0.00    +0.041 A 
ATOM     18  C   UNL     1      -4.989  -7.713   8.341  0.00  0.00    +0.020 A 
ATOM     19  C   UNL     1      -4.231  -7.670   7.191  0.00  0.00    +0.011 A 
ATOM     20 CL   UNL     1      -6.006  -8.922  10.540  0.00  0.00    -0.084 Cl
ENDBRANCH  11  14
BRANCH   9  21
ATOM     21  C   UNL     1      -0.856 -11.106   3.200  0.00  0.00    -0.022 A 
ATOM     22  C   UNL     1       0.451 -10.888   3.594  0.00  0.00    +0.008 A 
ATOM     23  C   UNL     1       1.441 -11.782   3.232  0.00  0.00    +0.038 A 
ATOM     24  C   UNL     1       1.123 -12.896   2.474  0.00  0.00    +0.123 A 
ATOM     25  C   UNL     1      -0.187 -13.114   2.081  0.00  0.00    +0.038 A 
ATOM     26  C   UNL     1      -1.176 -12.221   2.449  0.00  0.00    +0.008 A 
ATOM     27  F   UNL     1       2.089 -13.771   2.119  0.00  0.00    -0.205 F 
ENDBRANCH   9  21
BRANCH   1  29
ATOM     28  C   UNL     1       0.070  -2.829  -0.065  0.00  0.00    +0.016 C 
ATOM     29  C   UNL     1       0.127  -4.176  -0.141  0.00  0.00    +0.068 C 
BRANCH  28  35
ATOM     30  C   UNL     1       0.605  -0.606  -1.054  0.00  0.00    +0.127 A 
ATOM     31  C   UNL     1       1.172   0.159  -2.061  0.00  0.00    +0.046 A 
ATOM     32  C   UNL     1       1.785  -0.455  -3.136  0.00  0.00    +0.004 A 
ATOM     33  C   UNL     1       1.839  -1.837  -3.218  0.00  0.00    +0.001 A 
ATOM     34  C   UNL     1       1.281  -2.615  -2.227  0.00  0.00    +0.011 A 
ATOM     35  C   UNL     1       0.662  -2.007  -1.129  0.00  0.00    +0.017 A 
BRANCH  30  37
ATOM     36  C   UNL     1      -0.017   1.425   0.010  0.00  0.00    +0.277 C 
ATOM     37  O   UNL     1       0.002  -0.004   0.002  0.00  0.00    -0.495 OA
ENDBRANCH  30  37
ENDBRANCH  28  35
ENDBRANCH   1  29
TORSDOF 5
