REMARK  Name = ZINC32072164
REMARK  6 active torsions:
REMARK  status: ('A' for Active; 'I' for Inactive)
REMARK    1  A    between atoms: C_1  and  C_2
REMARK    2  A    between atoms: C_3  and  C_25
REMARK    3  A    between atoms: C_11  and  C_13
REMARK    4  A    between atoms: N_15  and  C_16
REMARK    5  A    between atoms: C_19  and  C_22
REMARK    6  A    between atoms: C_22  and  C_24
REMARK                            x       y       z     vdW  Elec       q    Type
REMARK                         _______ _______ _______ _____ _____    ______ ____
ROOT
ATOM      1  C   UNL     1      -0.792   1.615   0.309  0.00  0.00    +0.049 C 
ATOM      2  C   UNL     1      -0.734   0.119   0.131  0.00  0.00    +0.017 A 
ATOM      3  C   UNL     1      -1.071  -0.594  -1.038  0.00  0.00    +0.098 A 
ATOM      4  N   UNL     1      -0.891  -1.880  -0.804  0.00  0.00    -0.169 NA
ATOM      5  N   UNL     1      -0.440  -2.024   0.504  0.00  0.00    -0.237 N 
ATOM      6  C   UNL     1      -0.347  -0.777   1.059  0.00  0.00    +0.128 A 
ATOM      7  N   UNL     1       0.084  -0.586   2.373  0.00  0.00    -0.270 N 
ATOM      8  C   UNL     1       0.682  -1.628   2.993  0.00  0.00    +0.221 C 
ATOM      9  O   UNL     1       0.970  -1.532   4.167  0.00  0.00    -0.275 OA
ATOM     10  C   UNL     1       0.998  -2.902   2.263  0.00  0.00    +0.132 C 
ATOM     11  C   UNL     1      -0.094  -3.242   1.240  0.00  0.00    +0.204 C 
ATOM     12  H   UNL     1      -0.041   0.264   2.825  0.00  0.00    +0.156 HD
ENDROOT
BRANCH   3  13
ATOM     13  C   UNL     1      -1.546   0.001  -2.313  0.00  0.00    +0.003 A 
ATOM     14  C   UNL     1      -2.581  -0.604  -3.023  0.00  0.00    +0.011 A 
ATOM     15  C   UNL     1      -3.019  -0.048  -4.207  0.00  0.00    +0.020 A 
ATOM     16  C   UNL     1      -2.431   1.109  -4.691  0.00  0.00    +0.041 A 
ATOM     17  C   UNL     1      -1.402   1.712  -3.990  0.00  0.00    +0.020 A 
ATOM     18  C   UNL     1      -0.961   1.167  -2.801  0.00  0.00    +0.011 A 
ATOM     19 CL   UNL     1      -2.986   1.803  -6.182  0.00  0.00    -0.084 Cl
ENDBRANCH   3  13
BRANCH  11  20
ATOM     20  C   UNL     1       0.431  -4.280   0.281  0.00  0.00    +0.242 C 
ATOM     21  O   UNL     1       0.510  -4.027  -0.902  0.00  0.00    -0.273 OA
ATOM     22  N   UNL     1       0.814  -5.488   0.739  0.00  0.00    -0.284 N 
ATOM     23  H   UNL     1       0.685  -5.716   1.673  0.00  0.00    +0.155 HD
BRANCH  22  24
ATOM     24  C   UNL     1       1.395  -6.410  -0.129  0.00  0.00    +0.033 A 
ATOM     25  C   UNL     1       1.162  -7.771   0.047  0.00  0.00    +0.024 A 
ATOM     26  C   UNL     1       1.732  -8.682  -0.805  0.00  0.00    +0.013 A 
ATOM     27  C   UNL     1       2.549  -8.241  -1.853  0.00  0.00    +0.017 A 
ATOM     28  C   UNL     1       2.781  -6.870  -2.026  0.00  0.00    +0.013 A 
ATOM     29  C   UNL     1       2.203  -5.966  -1.173  0.00  0.00    +0.024 A 
BRANCH  27  30
ATOM     30  C   UNL     1       3.162  -9.212  -2.768  0.00  0.00    +0.160 C 
ATOM     31  O   UNL     1       2.961 -10.399  -2.617  0.00  0.00    -0.292 OA
ATOM     32  C   UNL     1       4.041  -8.735  -3.896  0.00  0.00    +0.091 C 
ENDBRANCH  27  30
ENDBRANCH  22  24
ENDBRANCH  11  20
TORSDOF 4
