REMARK  Name = ZINC39548331
REMARK  7 active torsions:
REMARK  status: ('A' for Active; 'I' for Inactive)
REMARK    1  A    between atoms: C_1  and  C_2
REMARK    2  A    between atoms: C_2  and  C_30
REMARK    3  A    between atoms: N_5  and  C_9
REMARK    4  A    between atoms: C_9  and  C_10
REMARK    5  A    between atoms: N_12  and  C_13
REMARK    6  A    between atoms: C_13  and  C_15
REMARK    7  A    between atoms: C_13  and  C_21
REMARK                            x       y       z     vdW  Elec       q    Type
REMARK                         _______ _______ _______ _____ _____    ______ ____
ROOT
ATOM      1  C   UNL     1      -2.585  -3.391   1.260  0.00  0.00    +0.232 C 
ATOM      2  O   UNL     1      -1.707  -3.759   0.508  0.00  0.00    -0.274 OA
ATOM      3  N   UNL     1      -3.573  -4.239   1.608  0.00  0.00    -0.300 N 
ATOM      4  H   UNL     1      -4.275  -3.944   2.209  0.00  0.00    +0.150 HD
ENDROOT
BRANCH   1   5
ATOM      5  C   UNL     1      -2.569  -1.986   1.805  0.00  0.00    +0.213 C 
BRANCH   5  10
ATOM      6  C   UNL     1      -0.019   1.526   0.010  0.00  0.00    +0.047 C 
ATOM      7  C   UNL     1       0.002  -0.004   0.002  0.00  0.00    +0.135 C 
ATOM      8  C   UNL     1      -1.403  -0.557   0.139  0.00  0.00    +0.251 C 
ATOM      9  O   UNL     1      -2.332  -0.392  -0.621  0.00  0.00    -0.272 OA
ATOM     10  N   UNL     1      -1.403  -1.272   1.282  0.00  0.00    -0.215 N 
ATOM     11  C   UNL     1      -0.206  -1.247   1.879  0.00  0.00    +0.310 C 
ATOM     12  O   UNL     1       0.040  -1.819   2.924  0.00  0.00    -0.252 OA
ATOM     13  N   UNL     1       0.695  -0.520   1.195  0.00  0.00    -0.281 N 
ATOM     14  H   UNL     1       1.621  -0.365   1.440  0.00  0.00    +0.152 HD
BRANCH   7  15
ATOM     15  C   UNL     1       0.657  -0.517  -1.255  0.00  0.00    -0.015 A 
ATOM     16  C   UNL     1      -0.108  -0.772  -2.378  0.00  0.00    +0.009 A 
ATOM     17  C   UNL     1       0.491  -1.242  -3.531  0.00  0.00    +0.039 A 
ATOM     18  C   UNL     1       1.859  -1.457  -3.561  0.00  0.00    +0.123 A 
ATOM     19  C   UNL     1       2.624  -1.202  -2.436  0.00  0.00    +0.039 A 
ATOM     20  C   UNL     1       2.023  -0.727  -1.285  0.00  0.00    +0.009 A 
ATOM     21  F   UNL     1       2.446  -1.917  -4.688  0.00  0.00    -0.205 F 
ENDBRANCH   7  15
ENDBRANCH   5  10
ENDBRANCH   1   5
BRANCH   3  22
ATOM     22  C   UNL     1      -3.588  -5.604   1.077  0.00  0.00    +0.169 C 
BRANCH  22  23
ATOM     23  C   UNL     1      -5.001  -6.128   1.079  0.00  0.00    +0.131 A 
ATOM     24  C   UNL     1      -5.543  -6.874   0.106  0.00  0.00    +0.055 A 
ATOM     25  C   UNL     1      -6.922  -7.152   0.525  0.00  0.00    +0.020 A 
ATOM     26  C   UNL     1      -7.987  -7.860  -0.032  0.00  0.00    +0.011 A 
ATOM     27  C   UNL     1      -9.178  -7.929   0.636  0.00  0.00    +0.001 A 
ATOM     28  C   UNL     1      -9.333  -7.300   1.863  0.00  0.00    +0.004 A 
ATOM     29  C   UNL     1      -8.292  -6.596   2.429  0.00  0.00    +0.047 A 
ATOM     30  C   UNL     1      -7.073  -6.514   1.768  0.00  0.00    +0.135 A 
ATOM     31  O   UNL     1      -5.898  -5.921   2.058  0.00  0.00    -0.457 OA
ENDBRANCH  22  23
BRANCH  22  32
ATOM     32  C   UNL     1      -2.724  -6.487   1.940  0.00  0.00    -0.020 A 
ATOM     33  C   UNL     1      -2.744  -6.344   3.314  0.00  0.00    +0.006 A 
ATOM     34  C   UNL     1      -1.951  -7.155   4.106  0.00  0.00    +0.000 A 
ATOM     35  C   UNL     1      -1.138  -8.108   3.522  0.00  0.00    +0.000 A 
ATOM     36  C   UNL     1      -1.118  -8.252   2.147  0.00  0.00    +0.000 A 
ATOM     37  C   UNL     1      -1.914  -7.444   1.356  0.00  0.00    +0.006 A 
ENDBRANCH  22  32
ENDBRANCH   3  22
TORSDOF 6
