REMARK  Name = ZINC09215853
REMARK  9 active torsions:
REMARK  status: ('A' for Active; 'I' for Inactive)
REMARK    1  A    between atoms: C_1  and  O_2
REMARK    2  A    between atoms: O_2  and  C_3
REMARK    3  A    between atoms: C_6  and  C_11
REMARK    4  A    between atoms: C_8  and  O_9
REMARK    5  A    between atoms: O_9  and  C_10
REMARK    6  A    between atoms: C_19  and  O_33
REMARK    7  A    between atoms: C_22  and  C_23
REMARK    8  A    between atoms: C_22  and  N_63
REMARK    9  A    between atoms: N_25  and  C_26
REMARK                            x       y       z     vdW  Elec       q    Type
REMARK                         _______ _______ _______ _____ _____    ______ ____
ROOT
ATOM      1  C   UNL     1       4.546   8.193  -0.669  0.00  0.00    -0.031 C 
ATOM      2  C   UNL     1       4.178   9.662  -0.888  0.00  0.00    +0.011 C 
ATOM      3  C   UNL     1       5.427  10.457  -1.263  0.00  0.00    +0.005 C 
ATOM      4  C   UNL     1       6.452  10.369  -0.131  0.00  0.00    +0.000 C 
ATOM      5  C   UNL     1       5.845  10.946   1.150  0.00  0.00    +0.003 C 
ATOM      6  C   UNL     1       4.599  10.143   1.528  0.00  0.00    +0.035 C 
ATOM      7  C   UNL     1       3.571  10.228   0.399  0.00  0.00    +0.066 C 
ATOM      8  C   UNL     1       2.341   9.395   0.776  0.00  0.00    +0.016 C 
ATOM      9  C   UNL     1       2.759   7.933   0.948  0.00  0.00    -0.075 C 
ATOM     10  N   UNL     1       3.321   7.438  -0.327  0.00  0.00    +0.390 N 
ATOM     11  H   UNL     1       2.627   7.575  -1.072  0.00  0.00    -0.080 HD
ENDROOT
BRANCH   1  15
ATOM     12  C   UNL     1       6.198   6.588  -4.272  0.00  0.00    +0.161 A 
ATOM     13  C   UNL     1       4.825   6.711  -4.131  0.00  0.00    +0.049 A 
ATOM     14  C   UNL     1       4.294   7.225  -2.963  0.00  0.00    +0.006 A 
ATOM     15  C   UNL     1       5.130   7.628  -1.938  0.00  0.00    -0.057 A 
ATOM     16  C   UNL     1       6.500   7.507  -2.073  0.00  0.00    +0.051 A 
ATOM     17  C   UNL     1       7.039   6.987  -3.239  0.00  0.00    +0.162 A 
BRANCH  12  19
ATOM     18  C   UNL     1       5.798   5.688  -6.437  0.00  0.00    +0.277 C 
ATOM     19  O   UNL     1       6.722   6.077  -5.419  0.00  0.00    -0.491 OA
ENDBRANCH  12  19
BRANCH  17  20
ATOM     20  O   UNL     1       8.387   6.868  -3.373  0.00  0.00    -0.491 OA
ATOM     21  C   UNL     1       9.189   7.299  -2.271  0.00  0.00    +0.277 C 
ENDBRANCH  17  20
ENDBRANCH   1  15
BRANCH   7  22
ATOM     22  O   UNL     1       3.186  11.590   0.201  0.00  0.00    -0.388 OA
ATOM     23  H   UNL     1       2.791  12.004   0.981  0.00  0.00    +0.210 HD
ENDBRANCH   7  22
BRANCH  10  24
ATOM     24  C   UNL     1       3.630   5.998  -0.217  0.00  0.00    +0.020 C 
BRANCH  24  25
ATOM     25  C   UNL     1       2.337   5.233  -0.095  0.00  0.00    +0.201 C 
ATOM     26  O   UNL     1       1.280   5.827  -0.082  0.00  0.00    -0.278 OA
ATOM     27  N   UNL     1       2.356   3.889  -0.001  0.00  0.00    -0.287 N 
ATOM     28  H   UNL     1       3.202   3.419   0.066  0.00  0.00    +0.155 HD
BRANCH  27  29
ATOM     29  C   UNL     1       1.155   3.170   0.002  0.00  0.00    +0.033 A 
ATOM     30  C   UNL     1       0.070   3.626  -0.735  0.00  0.00    +0.025 A 
ATOM     31  C   UNL     1      -1.114   2.916  -0.731  0.00  0.00    +0.022 A 
ATOM     32  C   UNL     1      -1.222   1.753   0.011  0.00  0.00    +0.041 A 
ATOM     33  C   UNL     1      -0.141   1.293   0.742  0.00  0.00    +0.022 A 
ATOM     34  C   UNL     1       1.046   2.000   0.742  0.00  0.00    +0.025 A 
ATOM     35 CL   UNL     1      -2.714   0.866   0.020  0.00  0.00    -0.084 Cl
ENDBRANCH  27  29
ENDBRANCH  24  25
ENDBRANCH  10  24
TORSDOF 7
