REMARK  Name = ZINC15958442
REMARK  13 active torsions:
REMARK  status: ('A' for Active; 'I' for Inactive)
REMARK    1  A    between atoms: C_1  and  C_2
REMARK    2  A    between atoms: C_5  and  C_36
REMARK    3  A    between atoms: C_6  and  N_8
REMARK    4  A    between atoms: C_9  and  C_11
REMARK    5  A    between atoms: C_11  and  N_73
REMARK    6  A    between atoms: C_14  and  O_35
REMARK    7  A    between atoms: C_21  and  C_23
REMARK    8  A    between atoms: C_25  and  O_33
REMARK    9  A    between atoms: C_26  and  O_31
REMARK   10  A    between atoms: C_27  and  O_29
REMARK   11  A    between atoms: O_29  and  C_30
REMARK   12  A    between atoms: O_31  and  C_32
REMARK   13  A    between atoms: O_33  and  C_34
REMARK                            x       y       z     vdW  Elec       q    Type
REMARK                         _______ _______ _______ _____ _____    ______ ____
ROOT
ATOM      1  C   UNL     1      -1.039  -1.923  -0.985  0.00  0.00    -0.075 C 
ATOM      2  C   UNL     1      -1.319  -2.571   0.373  0.00  0.00    +0.016 C 
ATOM      3  C   UNL     1      -0.220  -2.167   1.358  0.00  0.00    +0.066 C 
ATOM      4  C   UNL     1      -0.511  -2.760   2.737  0.00  0.00    +0.035 C 
ATOM      5  C   UNL     1       0.601  -2.350   3.706  0.00  0.00    +0.003 C 
ATOM      6  C   UNL     1       0.660  -0.825   3.805  0.00  0.00    +0.000 C 
ATOM      7  C   UNL     1       0.938  -0.230   2.422  0.00  0.00    +0.005 C 
ATOM      8  C   UNL     1      -0.180  -0.639   1.463  0.00  0.00    +0.011 C 
ATOM      9  C   UNL     1       0.077  -0.047   0.076  0.00  0.00    -0.031 C 
ATOM     10  N   UNL     1      -1.024  -0.452  -0.825  0.00  0.00    +0.390 N 
ATOM     11  H   UNL     1      -1.917  -0.154  -0.415  0.00  0.00    -0.080 HD
ENDROOT
BRANCH   9  12
ATOM     12  C   UNL     1       0.104   1.457   0.170  0.00  0.00    -0.053 A 
ATOM     13  C   UNL     1      -1.082   2.166   0.210  0.00  0.00    +0.051 A 
ATOM     14  C   UNL     1      -1.061   3.550   0.301  0.00  0.00    +0.165 A 
ATOM     15  C   UNL     1       0.154   4.224   0.341  0.00  0.00    +0.204 A 
ATOM     16  C   UNL     1       1.344   3.507   0.294  0.00  0.00    +0.165 A 
ATOM     17  C   UNL     1       1.314   2.123   0.208  0.00  0.00    +0.051 A 
BRANCH  16  18
ATOM     18  O   UNL     1       2.535   4.162   0.333  0.00  0.00    -0.491 OA
ATOM     19  C   UNL     1       3.717   3.361   0.281  0.00  0.00    +0.277 C 
ENDBRANCH  16  18
BRANCH  15  20
ATOM     20  O   UNL     1       0.179   5.582   0.425  0.00  0.00    -0.488 OA
ATOM     21  C   UNL     1       0.188   6.308  -0.806  0.00  0.00    +0.277 C 
ENDBRANCH  15  20
BRANCH  14  22
ATOM     22  O   UNL     1      -2.228   4.247   0.347  0.00  0.00    -0.491 OA
ATOM     23  C   UNL     1      -3.438   3.489   0.302  0.00  0.00    +0.277 C 
ENDBRANCH  14  22
ENDBRANCH   9  12
BRANCH   3  24
ATOM     24  O   UNL     1       1.042  -2.646   0.888  0.00  0.00    -0.388 OA
ATOM     25  H   UNL     1       1.089  -3.607   0.798  0.00  0.00    +0.210 HD
ENDBRANCH   3  24
BRANCH  10  26
ATOM     26  C   UNL     1      -0.862   0.196  -2.142  0.00  0.00    +0.020 C 
BRANCH  26  28
ATOM     27  N   UNL     1       0.685   0.116  -4.071  0.00  0.00    -0.287 N 
ATOM     28  C   UNL     1       0.410  -0.264  -2.808  0.00  0.00    +0.201 C 
ATOM     29  O   UNL     1       1.185  -0.977  -2.206  0.00  0.00    -0.278 OA
ATOM     30  H   UNL     1       0.099   0.739  -4.529  0.00  0.00    +0.155 HD
BRANCH  27  36
ATOM     31  C   UNL     1       5.238  -1.724  -3.832  0.00  0.00    +0.044 C 
ATOM     32  C   UNL     1       4.037  -1.288  -4.631  0.00  0.00    -0.049 A 
ATOM     33  C   UNL     1       4.053  -1.385  -6.011  0.00  0.00    +0.004 A 
ATOM     34  C   UNL     1       2.954  -0.984  -6.748  0.00  0.00    +0.005 A 
ATOM     35  C   UNL     1       1.835  -0.486  -6.107  0.00  0.00    -0.029 A 
ATOM     36  C   UNL     1       1.816  -0.388  -4.723  0.00  0.00    +0.036 A 
ATOM     37  C   UNL     1       2.924  -0.785  -3.986  0.00  0.00    +0.027 A 
ATOM     38  C   UNL     1       0.637  -0.051  -6.911  0.00  0.00    +0.045 C 
ENDBRANCH  27  36
ENDBRANCH  26  28
ENDBRANCH  10  26
TORSDOF 8
