REMARK  Name = ZINC01009152
REMARK  6 active torsions:
REMARK  status: ('A' for Active; 'I' for Inactive)
REMARK    1  A    between atoms: C_1  and  C_2
REMARK    2  A    between atoms: C_5  and  C_8
REMARK    3  A    between atoms: C_11  and  C_34
REMARK    4  A    between atoms: C_16  and  C_18
REMARK    5  A    between atoms: N_20  and  C_21
REMARK    6  A    between atoms: C_21  and  C_22
REMARK                            x       y       z     vdW  Elec       q    Type
REMARK                         _______ _______ _______ _____ _____    ______ ____
ROOT
ATOM      1  C   UNL     1       1.415   2.070  -0.000  0.00  0.00    +0.104 C 
ATOM      2  C   UNL     1      -0.019   1.529   0.010  0.00  0.00    +0.063 C 
ATOM      3  C   UNL     1       0.002  -0.004   0.002  0.00  0.00    +0.215 C 
ATOM      4  N   UNL     1       0.890  -0.460  -1.071  0.00  0.00    -0.238 N 
ATOM      5  C   UNL     1       1.847   0.326  -1.649  0.00  0.00    +0.119 A 
ATOM      6  C   UNL     1       2.473  -0.402  -2.594  0.00  0.00    +0.078 A 
ATOM      7  C   UNL     1       1.885  -1.688  -2.603  0.00  0.00    +0.149 A 
ATOM      8  N   UNL     1       0.936  -1.712  -1.683  0.00  0.00    -0.164 NA
ATOM      9  N   UNL     1       2.067   1.649  -1.256  0.00  0.00    -0.322 N 
ATOM     10  H   UNL     1       2.682   2.364  -1.823  0.00  0.00    +0.148 HD
ENDROOT
BRANCH   1  15
ATOM     11  C   UNL     1       1.313   7.840   0.294  0.00  0.00    +0.044 C 
ATOM     12  C   UNL     1       1.340   6.336   0.217  0.00  0.00    -0.050 A 
ATOM     13  C   UNL     1       1.591   5.590   1.354  0.00  0.00    +0.004 A 
ATOM     14  C   UNL     1       1.615   4.210   1.283  0.00  0.00    +0.006 A 
ATOM     15  C   UNL     1       1.389   3.575   0.076  0.00  0.00    -0.027 A 
ATOM     16  C   UNL     1       1.143   4.321  -1.061  0.00  0.00    +0.006 A 
ATOM     17  C   UNL     1       1.114   5.701  -0.990  0.00  0.00    +0.004 A 
ENDBRANCH   1  15
BRANCH   7  18
ATOM     18  C   UNL     1       2.267  -2.809  -3.485  0.00  0.00    +0.265 C 
ATOM     19  O   UNL     1       3.161  -2.667  -4.296  0.00  0.00    -0.268 OA
ATOM     20  N   UNL     1       1.623  -3.990  -3.391  0.00  0.00    -0.305 N 
ATOM     21  H   UNL     1       0.814  -4.118  -2.656  0.00  0.00    +0.149 HD
BRANCH  20  22
ATOM     22  C   UNL     1       2.001  -5.102  -4.266  0.00  0.00    +0.157 C 
BRANCH  22  23
ATOM     23  C   UNL     1       1.136  -6.298  -3.961  0.00  0.00    +0.034 A 
ATOM     24  C   UNL     1       0.010  -6.621  -4.617  0.00  0.00    +0.032 A 
ATOM     25  C   UNL     1      -0.508  -7.845  -4.000  0.00  0.00    +0.001 A 
ATOM     26  C   UNL     1      -1.623  -8.652  -4.234  0.00  0.00    +0.030 A 
ATOM     27  C   UNL     1      -1.832  -9.761  -3.461  0.00  0.00    +0.042 A 
ATOM     28  C   UNL     1      -0.944 -10.090  -2.445  0.00  0.00    +0.022 A 
ATOM     29  C   UNL     1       0.162  -9.306  -2.198  0.00  0.00    +0.027 A 
ATOM     30  C   UNL     1       0.394  -8.174  -2.972  0.00  0.00    +0.047 A 
ATOM     31  N   UNL     1       1.384  -7.217  -2.979  0.00  0.00    -0.357 N 
ATOM     32  H   UNL     1       2.275  -7.114  -2.342  0.00  0.00    +0.166 HD
ATOM     33 CL   UNL     1      -3.218 -10.764  -3.753  0.00  0.00    -0.084 Cl
ENDBRANCH  22  23
ENDBRANCH  20  22
ENDBRANCH   7  18
BRANCH   3  34
ATOM     34  C   UNL     1      -1.412  -0.534  -0.243  0.00  0.00    +0.412 C 
ATOM     35  F   UNL     1      -1.877  -0.069  -1.478  0.00  0.00    -0.168 F 
ATOM     36  F   UNL     1      -1.391  -1.933  -0.250  0.00  0.00    -0.168 F 
ATOM     37  F   UNL     1      -2.261  -0.086   0.774  0.00  0.00    -0.168 F 
ENDBRANCH   3  34
TORSDOF 5
