REMARK  Name = ZINC03336212
REMARK  5 active torsions:
REMARK  status: ('A' for Active; 'I' for Inactive)
REMARK    1  A    between atoms: C_1  and  C_2
REMARK    2  A    between atoms: C_5  and  C_8
REMARK    3  A    between atoms: C_10  and  C_33
REMARK    4  A    between atoms: C_14  and  C_16
REMARK    5  A    between atoms: C_16  and  N_17
REMARK                            x       y       z     vdW  Elec       q    Type
REMARK                         _______ _______ _______ _____ _____    ______ ____
ROOT
ATOM      1  C   UNL     1       0.060  -4.254  -0.021  0.00  0.00    +0.050 C 
ATOM      2  C   UNL     1       0.070  -5.008   1.074  0.00  0.00    +0.030 C 
ATOM      3  C   UNL     1       0.089  -6.453   0.627  0.00  0.00    +0.187 C 
ATOM      4  N   UNL     1       0.088  -6.391  -0.843  0.00  0.00    -0.207 N 
ATOM      5  N   UNL     1       0.063  -5.029  -1.173  0.00  0.00    -0.261 N 
ATOM      6  C   UNL     1       0.101  -7.432  -1.699  0.00  0.00    +0.250 C 
ATOM      7  O   UNL     1       0.116  -8.567  -1.272  0.00  0.00    -0.272 OA
ATOM      8  H   UNL     1       0.054  -4.678  -2.077  0.00  0.00    +0.170 HD
ENDROOT
BRANCH   1  13
ATOM      9  C   UNL     1      -0.018   1.503   0.010  0.00  0.00    +0.044 C 
ATOM     10  C   UNL     1       0.002  -0.004   0.002  0.00  0.00    -0.050 A 
ATOM     11  C   UNL     1       0.006  -0.686  -1.201  0.00  0.00    +0.004 A 
ATOM     12  C   UNL     1       0.024  -2.066  -1.215  0.00  0.00    +0.010 A 
ATOM     13  C   UNL     1       0.040  -2.773  -0.013  0.00  0.00    -0.003 A 
ATOM     14  C   UNL     1       0.037  -2.079   1.197  0.00  0.00    +0.010 A 
ATOM     15  C   UNL     1       0.023  -0.699   1.198  0.00  0.00    +0.004 A 
ENDBRANCH   1  13
BRANCH   3  16
ATOM     16  C   UNL     1       1.335  -7.140   1.125  0.00  0.00    +0.131 A 
ATOM     17  C   UNL     1       1.407  -7.970   2.181  0.00  0.00    +0.047 A 
ATOM     18  C   UNL     1       2.756  -8.381   2.287  0.00  0.00    +0.041 A 
ATOM     19  C   UNL     1       3.427  -7.777   1.290  0.00  0.00    +0.195 A 
ATOM     20  O   UNL     1       2.560  -7.032   0.585  0.00  0.00    -0.466 OA
ENDBRANCH   3  16
BRANCH   6  21
ATOM     21  C   UNL     1       0.097  -7.185  -3.186  0.00  0.00    +0.215 C 
BRANCH  21  22
ATOM     22  N   UNL     1       0.114  -8.468  -3.893  0.00  0.00    -0.215 N 
ATOM     23  C   UNL     1       1.238  -9.120  -4.255  0.00  0.00    +0.251 C 
ATOM     24  O   UNL     1       2.383  -8.769  -4.064  0.00  0.00    -0.272 OA
ATOM     25  C   UNL     1       0.770 -10.380  -4.948  0.00  0.00    +0.138 C 
ATOM     26  C   UNL     1       1.255 -11.610  -4.191  0.00  0.00    +0.040 C 
ATOM     27  C   UNL     1       2.765 -11.753  -4.419  0.00  0.00    +0.008 C 
ATOM     28  C   UNL     1       3.001 -12.139  -5.878  0.00  0.00    +0.035 C 
ATOM     29  C   UNL     1       2.273 -11.199  -6.803  0.00  0.00    -0.042 A 
ATOM     30  C   UNL     1       1.242 -10.392  -6.375  0.00  0.00    -0.012 A 
ATOM     31  C   UNL     1       0.605  -9.554  -7.281  0.00  0.00    +0.006 A 
ATOM     32  C   UNL     1       1.000  -9.519  -8.602  0.00  0.00    +0.000 A 
ATOM     33  C   UNL     1       2.039 -10.325  -9.030  0.00  0.00    +0.000 A 
ATOM     34  C   UNL     1       2.671 -11.161  -8.132  0.00  0.00    +0.004 A 
ATOM     35  N   UNL     1      -0.695 -10.290  -4.896  0.00  0.00    -0.281 N 
ATOM     36  C   UNL     1      -0.985  -9.142  -4.256  0.00  0.00    +0.310 C 
ATOM     37  O   UNL     1      -2.116  -8.758  -4.035  0.00  0.00    -0.252 OA
ATOM     38  H   UNL     1      -1.329 -10.933  -5.250  0.00  0.00    +0.152 HD
ENDBRANCH  21  22
ENDBRANCH   6  21
TORSDOF 4
