REMARK  Name = ZINC39686645
REMARK  11 active torsions:
REMARK  status: ('A' for Active; 'I' for Inactive)
REMARK    1  A    between atoms: C_1  and  C_2
REMARK    2  A    between atoms: C_2  and  C_4
REMARK    3  A    between atoms: C_2  and  N_13
REMARK    4  A    between atoms: C_4  and  C_5
REMARK    5  A    between atoms: C_10  and  O_11
REMARK    6  A    between atoms: O_11  and  C_12
REMARK    7  A    between atoms: C_14  and  C_16
REMARK    8  A    between atoms: C_27  and  C_29
REMARK    9  A    between atoms: C_32  and  O_39
REMARK   10  A    between atoms: C_33  and  C_35
REMARK   11  A    between atoms: O_39  and  C_40
REMARK                            x       y       z     vdW  Elec       q    Type
REMARK                         _______ _______ _______ _____ _____    ______ ____
ROOT
ATOM      1  C   UNL     1      -2.203   0.661  -0.476  0.00  0.00    +0.100 C 
ATOM      2  C   UNL     1      -3.166  -0.031  -1.466  0.00  0.00    +0.121 C 
ATOM      3  N   UNL     1      -2.332  -1.047  -2.151  0.00  0.00    -0.296 N 
ATOM      4  C   UNL     1      -1.464  -1.594  -1.081  0.00  0.00    +0.115 C 
ATOM      5  C   UNL     1      -1.089  -0.369  -0.223  0.00  0.00    -0.004 C 
ATOM      6  C   UNL     1      -1.048  -0.751   1.254  0.00  0.00    -0.010 C 
ATOM      7  C   UNL     1       0.104  -1.731   1.491  0.00  0.00    -0.082 C 
ATOM      8  N   UNL     1       1.371  -1.107   1.092  0.00  0.00    +0.379 N 
ATOM      9  C   UNL     1       1.359  -0.827  -0.349  0.00  0.00    -0.082 C 
ATOM     10  C   UNL     1       0.259   0.191  -0.665  0.00  0.00    -0.010 C 
ATOM     11  C   UNL     1      -2.358  -1.396  -3.453  0.00  0.00    +0.247 C 
ATOM     12  O   UNL     1      -1.619  -2.270  -3.863  0.00  0.00    -0.270 OA
ATOM     13  H   UNL     1       1.493  -0.243   1.599  0.00  0.00    -0.086 HD
ATOM     14  H   UNL     1       2.134  -1.731   1.305  0.00  0.00    -0.086 HD
ENDROOT
BRANCH  11  15
ATOM     15  C   UNL     1      -3.283  -0.716  -4.381  0.00  0.00    +0.038 A 
ATOM     16  C   UNL     1      -3.070   0.620  -4.730  0.00  0.00    +0.016 A 
ATOM     17  C   UNL     1      -3.935   1.250  -5.596  0.00  0.00    +0.047 A 
ATOM     18  C   UNL     1      -5.020   0.558  -6.123  0.00  0.00    +0.132 A 
ATOM     19  C   UNL     1      -5.236  -0.770  -5.778  0.00  0.00    +0.097 A 
ATOM     20  C   UNL     1      -4.372  -1.409  -4.916  0.00  0.00    +0.029 A 
BRANCH  19  21
ATOM     21  C   UNL     1      -6.414  -1.515  -6.352  0.00  0.00    +0.421 C 
ATOM     22  F   UNL     1      -6.421  -2.825  -5.862  0.00  0.00    -0.166 F 
ATOM     23  F   UNL     1      -7.599  -0.871  -5.979  0.00  0.00    -0.166 F 
ATOM     24  F   UNL     1      -6.316  -1.539  -7.747  0.00  0.00    -0.166 F 
ENDBRANCH  19  21
BRANCH  18  25
ATOM     25  O   UNL     1      -5.871   1.183  -6.976  0.00  0.00    -0.495 OA
ATOM     26  C   UNL     1      -5.531   2.513  -7.374  0.00  0.00    +0.277 C 
ENDBRANCH  18  25
ENDBRANCH  11  15
BRANCH   1  28
ATOM     27  N   UNL     1      -1.248   2.936  -0.300  0.00  0.00    -0.312 N 
ATOM     28  C   UNL     1      -1.630   1.913  -1.089  0.00  0.00    +0.218 C 
ATOM     29  O   UNL     1      -1.513   2.000  -2.293  0.00  0.00    -0.275 OA
ATOM     30  H   UNL     1      -1.268   2.838   0.665  0.00  0.00    +0.149 HD
BRANCH  27  32
ATOM     31  C   UNL     1       0.721   4.172  -1.060  0.00  0.00    +0.028 C 
ATOM     32  C   UNL     1      -0.800   4.196  -0.899  0.00  0.00    +0.074 C 
BRANCH  32  33
ATOM     33  C   UNL     1      -1.199   5.362   0.008  0.00  0.00    +0.060 C 
BRANCH  33  34
ATOM     34  C   UNL     1      -0.407   5.296   1.289  0.00  0.00    -0.004 A 
ATOM     35  C   UNL     1      -1.021   4.904   2.462  0.00  0.00    +0.007 A 
ATOM     36  C   UNL     1      -0.294   4.844   3.637  0.00  0.00    +0.000 A 
ATOM     37  C   UNL     1       1.048   5.175   3.641  0.00  0.00    +0.004 A 
ATOM     38  C   UNL     1       1.667   5.567   2.470  0.00  0.00    +0.046 A 
ATOM     39  C   UNL     1       0.941   5.623   1.288  0.00  0.00    +0.123 A 
BRANCH  39  40
ATOM     40  O   UNL     1       1.549   6.003   0.134  0.00  0.00    -0.495 OA
ATOM     41  C   UNL     1       2.889   6.488   0.235  0.00  0.00    +0.277 C 
ENDBRANCH  39  40
ENDBRANCH  33  34
ENDBRANCH  32  33
ENDBRANCH  27  32
ENDBRANCH   1  28
TORSDOF 8
