REMARK  Name = ZINC40921717
REMARK  10 active torsions:
REMARK  status: ('A' for Active; 'I' for Inactive)
REMARK    1  A    between atoms: C_1  and  C_2
REMARK    2  A    between atoms: C_2  and  C_3
REMARK    3  A    between atoms: C_3  and  O_4
REMARK    4  A    between atoms: O_4  and  C_5
REMARK    5  A    between atoms: C_5  and  C_7
REMARK    6  A    between atoms: C_8  and  C_32
REMARK    7  A    between atoms: C_15  and  C_17
REMARK    8  A    between atoms: C_20  and  O_23
REMARK    9  A    between atoms: O_23  and  C_24
REMARK   10  A    between atoms: C_24  and  C_25
REMARK                            x       y       z     vdW  Elec       q    Type
REMARK                         _______ _______ _______ _____ _____    ______ ____
ROOT
ATOM      1  C   UNL     1       1.587  -3.949  -2.309  0.00  0.00    +0.082 C 
ATOM      2  C   UNL     1       1.909  -4.499  -3.490  0.00  0.00    +0.020 C 
ATOM      3  N   UNL     1       1.792  -5.846  -3.728  0.00  0.00    -0.286 N 
ATOM      4  C   UNL     1       1.088  -6.599  -2.799  0.00  0.00    +0.240 A 
ATOM      5  N   UNL     1       0.638  -7.819  -2.856  0.00  0.00    -0.092 NA
ATOM      6  N   UNL     1       0.029  -8.122  -1.761  0.00  0.00    -0.021 NA
ATOM      7  N   UNL     1       0.052  -7.121  -0.940  0.00  0.00    -0.042 NA
ATOM      8  N   UNL     1       0.744  -6.098  -1.585  0.00  0.00    -0.201 N 
ATOM      9  C   UNL     1       1.088  -4.752  -1.137  0.00  0.00    +0.181 C 
ATOM     10  C   UNL     1       2.418  -3.607  -4.593  0.00  0.00    +0.061 C 
ATOM     11  H   UNL     1       2.186  -6.255  -4.515  0.00  0.00    +0.155 HD
ENDROOT
BRANCH   9  12
ATOM     12  C   UNL     1       2.163  -4.826  -0.084  0.00  0.00    -0.018 A 
ATOM     13  C   UNL     1       3.388  -5.393  -0.387  0.00  0.00    +0.009 A 
ATOM     14  C   UNL     1       4.375  -5.463   0.577  0.00  0.00    +0.046 A 
ATOM     15  C   UNL     1       4.138  -4.963   1.849  0.00  0.00    +0.121 A 
ATOM     16  C   UNL     1       2.909  -4.394   2.150  0.00  0.00    +0.046 A 
ATOM     17  C   UNL     1       1.926  -4.322   1.182  0.00  0.00    +0.009 A 
BRANCH  15  18
ATOM     18  O   UNL     1       5.107  -5.030   2.799  0.00  0.00    -0.487 OA
BRANCH  18  19
ATOM     19  C   UNL     1       4.793  -4.496   4.086  0.00  0.00    +0.264 C 
BRANCH  19  20
ATOM     20  C   UNL     1       5.979  -4.659   5.001  0.00  0.00    -0.010 A 
ATOM     21  C   UNL     1       6.115  -5.806   5.760  0.00  0.00    +0.008 A 
ATOM     22  C   UNL     1       7.203  -5.956   6.599  0.00  0.00    +0.015 A 
ATOM     23  C   UNL     1       8.157  -4.957   6.679  0.00  0.00    +0.018 A 
ATOM     24  C   UNL     1       8.021  -3.809   5.919  0.00  0.00    +0.015 A 
ATOM     25  C   UNL     1       6.935  -3.662   5.077  0.00  0.00    +0.008 A 
ATOM     26 BR   UNL     1       9.646  -5.161   7.827  0.00  0.00    -0.050 Br
ENDBRANCH  19  20
ENDBRANCH  18  19
ENDBRANCH  15  18
ENDBRANCH   9  12
BRANCH   1  27
ATOM     27  C   UNL     1       1.727  -2.551  -2.157  0.00  0.00    +0.339 C 
ATOM     28  O   UNL     1       0.741  -1.839  -2.144  0.00  0.00    -0.245 OA
BRANCH  27  29
ATOM     29  O   UNL     1       2.955  -2.007  -2.025  0.00  0.00    -0.461 OA
BRANCH  29  30
ATOM     30  C   UNL     1       3.023  -0.588  -1.875  0.00  0.00    +0.232 C 
BRANCH  30  32
ATOM     31  C   UNL     1       4.557   1.362  -1.580  0.00  0.00    +0.007 C 
ATOM     32  C   UNL     1       4.485  -0.158  -1.741  0.00  0.00    +0.038 C 
ENDBRANCH  30  32
ENDBRANCH  29  30
ENDBRANCH  27  29
ENDBRANCH   1  27
TORSDOF 8
