REMARK  Name = ZINC02546462
REMARK  12 active torsions:
REMARK  status: ('A' for Active; 'I' for Inactive)
REMARK    1  A    between atoms: C_1  and  C_2
REMARK    2  A    between atoms: C_3  and  C_34
REMARK    3  A    between atoms: C_5  and  N_25
REMARK    4  A    between atoms: C_6  and  C_7
REMARK    5  A    between atoms: C_7  and  C_9
REMARK    6  A    between atoms: C_7  and  N_19
REMARK    7  A    between atoms: C_12  and  O_17
REMARK    8  A    between atoms: C_13  and  O_15
REMARK    9  A    between atoms: O_15  and  C_16
REMARK   10  A    between atoms: O_17  and  C_18
REMARK   11  A    between atoms: N_19  and  C_20
REMARK   12  A    between atoms: C_26  and  C_28
REMARK                            x       y       z     vdW  Elec       q    Type
REMARK                         _______ _______ _______ _____ _____    ______ ____
ROOT
ATOM      1  C   UNL     1       7.566   1.330  -0.200  0.00  0.00    +0.135 C 
ENDROOT
BRANCH   1   7
ATOM      2  C   UNL     1      10.079  -0.141  -0.087  0.00  0.00    +0.045 C 
ATOM      3  C   UNL     1       8.762  -0.873  -0.065  0.00  0.00    -0.033 A 
ATOM      4  C   UNL     1       8.730  -2.226   0.003  0.00  0.00    -0.008 A 
ATOM      5  S   UNL     1       6.976  -2.558   0.000  0.00  0.00    -0.078 S 
ATOM      6  C   UNL     1       6.399  -0.871  -0.090  0.00  0.00    +0.078 A 
ATOM      7  C   UNL     1       7.570  -0.174  -0.118  0.00  0.00    +0.009 A 
ATOM      8  C   UNL     1       9.878  -3.199   0.065  0.00  0.00    +0.052 C 
BRANCH   6   9
ATOM      9  N   UNL     1       5.089  -0.390  -0.130  0.00  0.00    -0.276 N 
ATOM     10  C   UNL     1       4.053  -1.248  -0.043  0.00  0.00    +0.249 C 
ATOM     11  O   UNL     1       4.258  -2.429   0.164  0.00  0.00    -0.270 OA
ATOM     12  H   UNL     1       4.923   0.562  -0.219  0.00  0.00    +0.156 HD
BRANCH  10  13
ATOM     13  C   UNL     1       2.669  -0.754  -0.200  0.00  0.00    +0.037 A 
ATOM     14  C   UNL     1       1.602  -1.654  -0.225  0.00  0.00    +0.013 A 
ATOM     15  C   UNL     1       0.312  -1.187  -0.371  0.00  0.00    +0.001 A 
ATOM     16  C   UNL     1       0.075   0.171  -0.493  0.00  0.00    +0.000 A 
ATOM     17  C   UNL     1       1.128   1.068  -0.469  0.00  0.00    +0.001 A 
ATOM     18  C   UNL     1       2.422   0.614  -0.323  0.00  0.00    +0.013 A 
ENDBRANCH  10  13
ENDBRANCH   6   9
ENDBRANCH   1   7
BRANCH   1  19
ATOM     19  C   UNL     1       7.284   1.755  -1.619  0.00  0.00    -0.019 A 
ATOM     20  C   UNL     1       5.979   1.935  -2.038  0.00  0.00    +0.009 A 
ATOM     21  C   UNL     1       5.715   2.326  -3.338  0.00  0.00    +0.050 A 
ATOM     22  C   UNL     1       6.760   2.537  -4.223  0.00  0.00    +0.162 A 
ATOM     23  C   UNL     1       8.073   2.354  -3.801  0.00  0.00    +0.162 A 
ATOM     24  C   UNL     1       8.331   1.969  -2.496  0.00  0.00    +0.055 A 
BRANCH  23  25
ATOM     25  O   UNL     1       9.102   2.560  -4.667  0.00  0.00    -0.491 OA
ATOM     26  C   UNL     1      10.424   2.354  -4.164  0.00  0.00    +0.277 C 
ENDBRANCH  23  25
BRANCH  22  27
ATOM     27  O   UNL     1       6.502   2.921  -5.502  0.00  0.00    -0.491 OA
ATOM     28  C   UNL     1       5.130   3.089  -5.865  0.00  0.00    +0.277 C 
ENDBRANCH  22  27
ENDBRANCH   1  19
BRANCH   1  29
ATOM     29  N   UNL     1       6.528   1.865   0.685  0.00  0.00    -0.320 N 
ATOM     30  H   UNL     1       5.666   2.121   0.322  0.00  0.00    +0.148 HD
BRANCH  29  31
ATOM     31  C   UNL     1       6.780   2.006   2.045  0.00  0.00    +0.097 A 
ATOM     32  C   UNL     1       8.046   1.717   2.545  0.00  0.00    +0.041 A 
ATOM     33  C   UNL     1       8.282   1.861   3.900  0.00  0.00    +0.005 A 
ATOM     34  C   UNL     1       7.240   2.291   4.713  0.00  0.00    +0.018 A 
ATOM     35  C   UNL     1       6.010   2.559   4.149  0.00  0.00    +0.084 A 
ATOM     36  N   UNL     1       5.743   2.435   2.821  0.00  0.00    -0.350 N 
ATOM     37  H   UNL     1       4.819   2.650   2.428  0.00  0.00    +0.166 HD
ENDBRANCH  29  31
ENDBRANCH   1  29
TORSDOF 8
