REMARK  Name = ZINC20600501
REMARK  10 active torsions:
REMARK  status: ('A' for Active; 'I' for Inactive)
REMARK    1  A    between atoms: C_1  and  C_2
REMARK    2  A    between atoms: C_2  and  O_3
REMARK    3  A    between atoms: O_3  and  C_4
REMARK    4  A    between atoms: N_9  and  C_12
REMARK    5  A    between atoms: C_12  and  C_13
REMARK    6  A    between atoms: C_16  and  O_19
REMARK    7  A    between atoms: O_19  and  C_20
REMARK    8  A    between atoms: C_20  and  C_21
REMARK    9  A    between atoms: C_28  and  C_30
REMARK   10  A    between atoms: C_33  and  C_36
REMARK                            x       y       z     vdW  Elec       q    Type
REMARK                         _______ _______ _______ _____ _____    ______ ____
ROOT
ATOM      1  O   UNL     1       4.203  -0.676  -1.796  0.00  0.00    -0.492 OA
ENDROOT
BRANCH   1   5
ATOM      2  C   UNL     1       7.861  -2.583  -1.828  0.00  0.00    -0.033 A 
ATOM      3  C   UNL     1       7.717  -1.377  -1.167  0.00  0.00    +0.008 A 
ATOM      4  C   UNL     1       6.493  -0.737  -1.155  0.00  0.00    +0.046 A 
ATOM      5  C   UNL     1       5.408  -1.304  -1.806  0.00  0.00    +0.121 A 
ATOM      6  C   UNL     1       5.553  -2.517  -2.464  0.00  0.00    +0.046 A 
ATOM      7  C   UNL     1       6.781  -3.150  -2.479  0.00  0.00    +0.008 A 
BRANCH   2   8
ATOM      8  C   UNL     1       9.197  -3.279  -1.840  0.00  0.00    +0.119 C 
BRANCH   8  14
ATOM      9  C   UNL     1      11.119  -5.651   2.646  0.00  0.00    +0.403 C 
ATOM     10  O   UNL     1      12.005  -6.471   2.518  0.00  0.00    -0.226 OA
ATOM     11  N   UNL     1      10.285  -5.393   1.619  0.00  0.00    -0.265 N 
ATOM     12  C   UNL     1      10.431  -6.094   0.334  0.00  0.00    +0.126 C 
ATOM     13  C   UNL     1      10.469  -5.051  -0.788  0.00  0.00    +0.104 C 
ATOM     14  N   UNL     1       9.289  -4.182  -0.684  0.00  0.00    -0.295 NA
ATOM     15  C   UNL     1       9.292  -3.426   0.575  0.00  0.00    +0.104 C 
ATOM     16  C   UNL     1       9.206  -4.403   1.753  0.00  0.00    +0.126 C 
BRANCH   9  17
ATOM     17  O   UNL     1      10.969  -4.999   3.815  0.00  0.00    -0.451 OA
BRANCH  17  19
ATOM     18  C   UNL     1      11.577  -4.492   6.118  0.00  0.00    +0.048 C 
ATOM     19  C   UNL     1      11.902  -5.327   4.877  0.00  0.00    +0.230 C 
ENDBRANCH  17  19
ENDBRANCH   9  17
ENDBRANCH   8  14
ENDBRANCH   2   8
ENDBRANCH   1   5
BRANCH   1  20
ATOM     20  C   UNL     1       3.130  -1.319  -2.487  0.00  0.00    +0.234 C 
BRANCH  20  21
ATOM     21  C   UNL     1       1.863  -0.469  -2.366  0.00  0.00    +0.044 C 
ATOM     22  C   UNL     1       0.748  -1.092  -3.209  0.00  0.00    +0.010 C 
ATOM     23  C   UNL     1      -0.510  -0.225  -3.114  0.00  0.00    +0.019 C 
ATOM     24  C   UNL     1      -0.979  -0.170  -1.657  0.00  0.00    +0.108 C 
ATOM     25  N   UNL     1       0.137   0.291  -0.819  0.00  0.00    -0.297 N 
ATOM     26  C   UNL     1       1.423  -0.413  -0.904  0.00  0.00    +0.115 C 
ATOM     27  C   UNL     1      -0.016   1.344   0.009  0.00  0.00    +0.247 C 
ATOM     28  O   UNL     1       0.891   1.672   0.748  0.00  0.00    -0.270 OA
BRANCH  27  29
ATOM     29  C   UNL     1      -1.285   2.102   0.015  0.00  0.00    +0.037 A 
ATOM     30  C   UNL     1      -2.502   1.431   0.145  0.00  0.00    +0.013 A 
ATOM     31  C   UNL     1      -3.683   2.145   0.154  0.00  0.00    +0.013 A 
ATOM     32  C   UNL     1      -3.663   3.522   0.024  0.00  0.00    +0.055 A 
ATOM     33  C   UNL     1      -2.460   4.193  -0.111  0.00  0.00    +0.013 A 
ATOM     34  C   UNL     1      -1.272   3.491  -0.116  0.00  0.00    +0.013 A 
BRANCH  32  35
ATOM     35  C   UNL     1      -4.956   4.295   0.030  0.00  0.00    +0.417 C 
ATOM     36  F   UNL     1      -5.436   4.412  -1.279  0.00  0.00    -0.166 F 
ATOM     37  F   UNL     1      -5.899   3.621   0.813  0.00  0.00    -0.166 F 
ATOM     38  F   UNL     1      -4.735   5.570   0.561  0.00  0.00    -0.166 F 
ENDBRANCH  32  35
ENDBRANCH  27  29
ENDBRANCH  20  21
ENDBRANCH   1  20
TORSDOF 9
