REMARK  Name = ZINC08442676
REMARK  8 active torsions:
REMARK  status: ('A' for Active; 'I' for Inactive)
REMARK    1  A    between atoms: C_1  and  N_60
REMARK    2  A    between atoms: N_4  and  S_7
REMARK    3  A    between atoms: S_7  and  C_10
REMARK    4  A    between atoms: C_13  and  N_16
REMARK    5  A    between atoms: N_16  and  C_17
REMARK    6  A    between atoms: C_17  and  N_19
REMARK    7  A    between atoms: C_20  and  C_22
REMARK    8  A    between atoms: C_23  and  C_24
REMARK                            x       y       z     vdW  Elec       q    Type
REMARK                         _______ _______ _______ _____ _____    ______ ____
ROOT
ATOM      1  N   UNL     1       3.407   0.303   6.228  0.00  0.00    -0.297 N 
ATOM      2  H   UNL     1       4.318   0.361   5.899  0.00  0.00    +0.154 HD
ENDROOT
BRANCH   1   6
ATOM      3  C   UNL     1       0.216   0.486   3.557  0.00  0.00    +0.106 A 
ATOM      4  C   UNL     1       1.337  -0.260   3.242  0.00  0.00    +0.030 A 
ATOM      5  C   UNL     1       2.399  -0.319   4.123  0.00  0.00    +0.025 A 
ATOM      6  C   UNL     1       2.335   0.364   5.331  0.00  0.00    +0.033 A 
ATOM      7  C   UNL     1       1.206   1.108   5.646  0.00  0.00    +0.025 A 
ATOM      8  C   UNL     1       0.149   1.167   4.758  0.00  0.00    +0.030 A 
BRANCH   3   9
ATOM      9  S   UNL     1      -1.134   0.563   2.427  0.00  0.00    +0.061 S 
ATOM     10  O   UNL     1      -2.288   0.877   3.194  0.00  0.00    -0.153 OA
ATOM     11  O   UNL     1      -1.052  -0.601   1.616  0.00  0.00    -0.153 OA
BRANCH   9  15
ATOM     12  C   UNL     1      -1.914   4.376  -1.763  0.00  0.00    -0.096 C 
ATOM     13  C   UNL     1      -0.930   2.311  -0.969  0.00  0.00    -0.062 C 
ATOM     14  C   UNL     1      -0.113   1.697   0.173  0.00  0.00    +0.091 C 
ATOM     15  N   UNL     1      -0.863   1.856   1.428  0.00  0.00    -0.180 NA
ATOM     16  C   UNL     1      -1.371   3.195   1.769  0.00  0.00    +0.091 C 
ATOM     17  C   UNL     1      -2.138   3.750   0.565  0.00  0.00    -0.062 C 
ATOM     18  N   UNL     1      -1.254   3.712  -0.620  0.00  0.00    +0.380 N 
ATOM     19  H   UNL     1      -0.384   4.210  -0.402  0.00  0.00    -0.082 HD
ENDBRANCH   9  15
ENDBRANCH   3   9
ENDBRANCH   1   6
BRANCH   1  20
ATOM     20  C   UNL     1       3.174   0.164   7.548  0.00  0.00    +0.141 C 
ATOM     21  S   UNL     1       1.577  -0.081   8.114  0.00  0.00    -0.018 S 
BRANCH  20  22
ATOM     22  N   UNL     1       4.199   0.217   8.422  0.00  0.00    -0.264 N 
ATOM     23  C   UNL     1       3.966   0.077   9.742  0.00  0.00    +0.242 C 
ATOM     24  O   UNL     1       2.830  -0.097  10.145  0.00  0.00    -0.270 OA
ATOM     25  H   UNL     1       5.103   0.355   8.101  0.00  0.00    +0.157 HD
BRANCH  23  26
ATOM     26  C   UNL     1       5.076   0.135  10.690  0.00  0.00    +0.068 C 
ATOM     27  C   UNL     1       4.842  -0.005  12.015  0.00  0.00    +0.013 C 
BRANCH  27  28
ATOM     28  C   UNL     1       5.957   0.053  12.966  0.00  0.00    -0.017 A 
ATOM     29  C   UNL     1       7.262   0.251  12.522  0.00  0.00    +0.008 A 
ATOM     30  C   UNL     1       8.313   0.306  13.426  0.00  0.00    +0.001 A 
ATOM     31  C   UNL     1       8.117   0.170  14.766  0.00  0.00    +0.008 A 
ATOM     32  C   UNL     1       6.827  -0.033  15.286  0.00  0.00    -0.017 A 
ATOM     33  C   UNL     1       5.722  -0.090  14.403  0.00  0.00    -0.011 A 
ATOM     34  C   UNL     1       4.435  -0.286  14.917  0.00  0.00    +0.009 A 
ATOM     35  C   UNL     1       4.260  -0.414  16.263  0.00  0.00    +0.001 A 
ATOM     36  C   UNL     1       5.344  -0.354  17.135  0.00  0.00    +0.001 A 
ATOM     37  C   UNL     1       6.611  -0.176  16.668  0.00  0.00    +0.008 A 
ENDBRANCH  27  28
ENDBRANCH  23  26
ENDBRANCH  20  22
ENDBRANCH   1  20
TORSDOF 7
