REMARK  Name = ZINC12923115
REMARK  10 active torsions:
REMARK  status: ('A' for Active; 'I' for Inactive)
REMARK    1  A    between atoms: C_1  and  C_2
REMARK    2  A    between atoms: C_7  and  C_9
REMARK    3  A    between atoms: C_7  and  C_27
REMARK    4  A    between atoms: C_7  and  N_59
REMARK    5  A    between atoms: C_9  and  N_10
REMARK    6  A    between atoms: C_11  and  C_13
REMARK    7  A    between atoms: C_17  and  O_25
REMARK    8  A    between atoms: C_19  and  O_23
REMARK    9  A    between atoms: O_23  and  C_24
REMARK   10  A    between atoms: O_25  and  C_26
REMARK                            x       y       z     vdW  Elec       q    Type
REMARK                         _______ _______ _______ _____ _____    ______ ____
ROOT
ATOM      1  N   UNL     1      -2.490   1.124  -3.094  0.00  0.00    -0.311 N 
ATOM      2  C   UNL     1      -3.536   1.528  -3.841  0.00  0.00    +0.260 C 
ATOM      3  O   UNL     1      -3.362   2.297  -4.768  0.00  0.00    -0.269 OA
ATOM      4  H   UNL     1      -2.629   0.511  -2.355  0.00  0.00    +0.149 HD
ENDROOT
BRANCH   2   5
ATOM      5  C   UNL     1      -4.889   1.040  -3.536  0.00  0.00    +0.103 A 
ATOM      6  C   UNL     1      -6.020   1.378  -4.210  0.00  0.00    +0.041 A 
ATOM      7  C   UNL     1      -7.103   0.694  -3.607  0.00  0.00    +0.007 A 
ATOM      8  C   UNL     1      -8.480   0.654  -3.871  0.00  0.00    +0.056 A 
ATOM      9  C   UNL     1      -9.305  -0.122  -3.085  0.00  0.00    +0.124 A 
ATOM     10  C   UNL     1      -8.779  -0.866  -2.030  0.00  0.00    +0.093 A 
ATOM     11  C   UNL     1      -7.426  -0.836  -1.757  0.00  0.00    +0.147 A 
ATOM     12  C   UNL     1      -6.574  -0.056  -2.542  0.00  0.00    +0.089 A 
ATOM     13  N   UNL     1      -5.215   0.169  -2.515  0.00  0.00    -0.348 N 
ATOM     14  H   UNL     1      -4.590  -0.220  -1.883  0.00  0.00    +0.166 HD
BRANCH  11  15
ATOM     15  O   UNL     1      -6.925  -1.565  -0.725  0.00  0.00    -0.493 OA
ATOM     16  C   UNL     1      -7.854  -2.339   0.035  0.00  0.00    +0.277 C 
ENDBRANCH  11  15
BRANCH   9  17
ATOM     17  O   UNL     1     -10.640  -0.162  -3.340  0.00  0.00    -0.495 OA
ATOM     18  C   UNL     1     -11.439  -0.986  -2.489  0.00  0.00    +0.277 C 
ENDBRANCH   9  17
ENDBRANCH   2   5
BRANCH   1  19
ATOM     19  C   UNL     1      -1.142   1.611  -3.398  0.00  0.00    +0.094 C 
BRANCH  19  20
ATOM     20  C   UNL     1      -0.145   1.005  -2.408  0.00  0.00    -0.013 C 
BRANCH  20  27
ATOM     21  C   UNL     1      -1.033   2.670   2.988  0.00  0.00    +0.007 C 
ATOM     22  C   UNL     1      -0.425   2.477   1.597  0.00  0.00    -0.018 C 
ATOM     23  C   UNL     1      -0.156   0.989   1.357  0.00  0.00    -0.015 C 
ATOM     24  C   UNL     1       0.395   0.796  -0.057  0.00  0.00    -0.078 C 
ATOM     25  C   UNL     1      -0.818   2.736  -0.856  0.00  0.00    -0.078 C 
ATOM     26  C   UNL     1      -1.404   2.987   0.535  0.00  0.00    -0.015 C 
ATOM     27  N   UNL     1      -0.604   1.284  -1.032  0.00  0.00    +0.386 N 
ATOM     28  H   UNL     1      -1.493   0.795  -0.871  0.00  0.00    -0.081 HD
ENDBRANCH  20  27
BRANCH  20  29
ATOM     29  C   UNL     1       1.220   1.598  -2.642  0.00  0.00    -0.022 A 
ATOM     30  C   UNL     1       2.325   1.016  -3.167  0.00  0.00    +0.009 A 
ATOM     31  C   UNL     1       3.482   1.762  -3.289  0.00  0.00    +0.008 A 
ATOM     32  C   UNL     1       3.477   3.055  -2.881  0.00  0.00    +0.045 A 
ATOM     33  S   UNL     1       1.798   3.254  -2.306  0.00  0.00    -0.103 S 
ENDBRANCH  20  29
ENDBRANCH  19  20
ENDBRANCH   1  19
TORSDOF 7
