REMARK  Name = ZINC20153726
REMARK  8 active torsions:
REMARK  status: ('A' for Active; 'I' for Inactive)
REMARK    1  A    between atoms: C_1  and  C_2
REMARK    2  A    between atoms: C_4  and  N_23
REMARK    3  A    between atoms: C_9  and  N_12
REMARK    4  A    between atoms: N_12  and  C_13
REMARK    5  A    between atoms: C_13  and  N_15
REMARK    6  A    between atoms: N_15  and  C_16
REMARK    7  A    between atoms: C_16  and  C_17
REMARK    8  A    between atoms: N_26  and  C_29
REMARK                            x       y       z     vdW  Elec       q    Type
REMARK                         _______ _______ _______ _____ _____    ______ ____
ROOT
ATOM      1  C   UNL     1      -1.202   2.084   0.846  0.00  0.00    +0.044 C 
ATOM      2  C   UNL     1       0.073   1.339   0.549  0.00  0.00    -0.038 A 
ATOM      3  C   UNL     1       0.099  -0.024   0.531  0.00  0.00    +0.047 A 
ATOM      4  C   UNL     1       1.296  -0.696   0.247  0.00  0.00    +0.122 A 
ATOM      5  N   UNL     1       2.411  -0.041  -0.006  0.00  0.00    -0.232 NA
ATOM      6  C   UNL     1       2.447   1.297  -0.004  0.00  0.00    +0.073 A 
ATOM      7  C   UNL     1       1.270   2.033   0.276  0.00  0.00    +0.005 A 
ATOM      8  C   UNL     1       1.312   3.436   0.278  0.00  0.00    +0.033 A 
ATOM      9  C   UNL     1       2.500   4.079   0.009  0.00  0.00    +0.033 A 
ATOM     10  C   UNL     1       3.659   3.346  -0.267  0.00  0.00    +0.025 A 
ATOM     11  C   UNL     1       3.642   1.986  -0.275  0.00  0.00    +0.030 A 
ENDROOT
BRANCH   4  12
ATOM     12  N   UNL     1       1.308  -2.083   0.233  0.00  0.00    -0.319 N 
ATOM     13  C   UNL     1       0.827  -2.627   1.511  0.00  0.00    +0.088 C 
ATOM     14  C   UNL     1       0.779  -4.154   1.427  0.00  0.00    -0.060 C 
ATOM     15  N   UNL     1       2.120  -4.667   1.111  0.00  0.00    +0.380 N 
ATOM     16  C   UNL     1       2.600  -4.123  -0.167  0.00  0.00    -0.060 C 
ATOM     17  C   UNL     1       2.648  -2.596  -0.083  0.00  0.00    +0.088 C 
ATOM     18  C   UNL     1       2.131  -6.136   1.096  0.00  0.00    -0.096 C 
ATOM     19  H   UNL     1       2.807  -4.333   1.902  0.00  0.00    -0.082 HD
ENDBRANCH   4  12
BRANCH   9  20
ATOM     20  N   UNL     1       2.547   5.478   0.010  0.00  0.00    -0.297 N 
ATOM     21  H   UNL     1       2.023   6.045   0.793  0.00  0.00    +0.154 HD
BRANCH  20  22
ATOM     22  C   UNL     1       3.236   6.130  -0.948  0.00  0.00    +0.135 C 
ATOM     23  S   UNL     1       3.932   5.257  -2.246  0.00  0.00    -0.019 S 
BRANCH  22  24
ATOM     24  N   UNL     1       3.375   7.469  -0.885  0.00  0.00    -0.324 N 
ATOM     25  H   UNL     1       2.928   8.030  -0.051  0.00  0.00    +0.148 HD
BRANCH  24  26
ATOM     26  C   UNL     1       4.123   8.177  -1.927  0.00  0.00    +0.134 C 
BRANCH  26  27
ATOM     27  C   UNL     1       4.131   9.676  -1.619  0.00  0.00    +0.135 C 
ATOM     28  C   UNL     1       4.806  10.457  -2.768  0.00  0.00    +0.035 C 
ATOM     29  C   UNL     1       5.585  11.582  -2.050  0.00  0.00    +0.031 C 
ATOM     30  C   UNL     1       5.289  11.347  -0.552  0.00  0.00    +0.160 C 
ATOM     31  O   UNL     1       4.948   9.947  -0.459  0.00  0.00    -0.375 OA
ENDBRANCH  26  27
ENDBRANCH  24  26
ENDBRANCH  22  24
ENDBRANCH  20  22
ENDBRANCH   9  20
TORSDOF 6
