REMARK  Name = ZINC38893656
REMARK  12 active torsions:
REMARK  status: ('A' for Active; 'I' for Inactive)
REMARK    1  A    between atoms: C_1  and  C_2
REMARK    2  A    between atoms: C_8  and  N_15
REMARK    3  A    between atoms: C_11  and  C_13
REMARK    4  A    between atoms: C_11  and  C_14
REMARK    5  A    between atoms: C_16  and  C_18
REMARK    6  A    between atoms: N_23  and  C_25
REMARK    7  A    between atoms: C_25  and  C_26
REMARK    8  A    between atoms: C_28  and  C_31
REMARK    9  A    between atoms: C_34  and  O_39
REMARK   10  A    between atoms: C_35  and  O_37
REMARK   11  A    between atoms: O_37  and  C_38
REMARK   12  A    between atoms: O_39  and  C_40
REMARK                            x       y       z     vdW  Elec       q    Type
REMARK                         _______ _______ _______ _____ _____    ______ ____
ROOT
ATOM      1  C   UNL     1       1.482  -0.395   5.111  0.00  0.00    +0.058 C 
ATOM      2  C   UNL     1       2.678   0.155   4.329  0.00  0.00    +0.009 C 
ATOM      3  C   UNL     1       3.593   0.923   5.288  0.00  0.00    -0.018 C 
ATOM      4  C   UNL     1       2.790   2.030   5.974  0.00  0.00    -0.078 C 
ATOM      5  N   UNL     1       1.677   1.438   6.726  0.00  0.00    +0.386 N 
ATOM      6  C   UNL     1       0.757   0.760   5.805  0.00  0.00    -0.065 C 
ATOM      7  H   UNL     1       2.039   0.769   7.389  0.00  0.00    -0.081 HD
ENDROOT
BRANCH   1   9
ATOM      8  N   UNL     1       0.960  -2.140   3.437  0.00  0.00    -0.308 N 
ATOM      9  C   UNL     1       0.536  -1.087   4.163  0.00  0.00    +0.215 C 
ATOM     10  O   UNL     1      -0.607  -0.696   4.054  0.00  0.00    -0.276 OA
ATOM     11  H   UNL     1       1.874  -2.452   3.524  0.00  0.00    +0.149 HD
BRANCH   8  19
ATOM     12  C   UNL     1      -0.018   1.503   0.010  0.00  0.00    +0.044 C 
ATOM     13  C   UNL     1       0.002  -0.004   0.002  0.00  0.00    -0.050 A 
ATOM     14  C   UNL     1       0.006  -0.689  -1.199  0.00  0.00    +0.007 A 
ATOM     15  C   UNL     1       0.026  -2.069  -1.206  0.00  0.00    +0.046 A 
ATOM     16  C   UNL     1       0.042  -2.774  -0.006  0.00  0.00    +0.126 A 
ATOM     17  C   UNL     1       0.035  -2.086   1.194  0.00  0.00    +0.015 A 
ATOM     18  C   UNL     1       0.023  -0.701   1.194  0.00  0.00    +0.012 A 
ATOM     19  C   UNL     1       0.041  -2.812   2.515  0.00  0.00    +0.110 C 
ATOM     20  C   UNL     1       0.497  -4.258   2.308  0.00  0.00    +0.074 C 
ATOM     21  C   UNL     1      -0.290  -4.847   1.130  0.00  0.00    +0.107 C 
ATOM     22  O   UNL     1       0.068  -4.132  -0.053  0.00  0.00    -0.486 OA
ATOM     23  C   UNL     1      -1.791  -4.699   1.387  0.00  0.00    +0.055 C 
ATOM     24  C   UNL     1       0.061  -6.327   0.963  0.00  0.00    +0.055 C 
ENDBRANCH   8  19
ENDBRANCH   1   9
BRANCH   5  25
ATOM     25  C   UNL     1       0.956   2.496   7.446  0.00  0.00    +0.022 C 
BRANCH  25  26
ATOM     26  C   UNL     1       1.862   3.103   8.485  0.00  0.00    +0.211 A 
ATOM     27  N   UNL     1       2.651   4.123   8.304  0.00  0.00    -0.193 NA
ATOM     28  C   UNL     1       3.315   4.399   9.441  0.00  0.00    +0.202 A 
ATOM     29  N   UNL     1       2.944   3.543  10.361  0.00  0.00    -0.056 NA
ATOM     30  O   UNL     1       1.987   2.689   9.753  0.00  0.00    -0.340 OA
BRANCH  28  31
ATOM     31  C   UNL     1       4.303   5.491   9.623  0.00  0.00    +0.026 A 
ATOM     32  C   UNL     1       4.608   6.341   8.561  0.00  0.00    +0.015 A 
ATOM     33  C   UNL     1       5.527   7.355   8.730  0.00  0.00    +0.050 A 
ATOM     34  C   UNL     1       6.150   7.533   9.957  0.00  0.00    +0.162 A 
ATOM     35  C   UNL     1       5.849   6.687  11.022  0.00  0.00    +0.162 A 
ATOM     36  C   UNL     1       4.924   5.672  10.858  0.00  0.00    +0.061 A 
BRANCH  35  37
ATOM     37  O   UNL     1       6.461   6.862  12.224  0.00  0.00    -0.491 OA
ATOM     38  C   UNL     1       6.105   5.957  13.271  0.00  0.00    +0.277 C 
ENDBRANCH  35  37
BRANCH  34  39
ATOM     39  O   UNL     1       7.055   8.534  10.120  0.00  0.00    -0.491 OA
ATOM     40  C   UNL     1       7.316   9.364   8.986  0.00  0.00    +0.277 C 
ENDBRANCH  34  39
ENDBRANCH  28  31
ENDBRANCH  25  26
ENDBRANCH   5  25
TORSDOF 7
