REMARK  Name = ZINC35664229
REMARK  16 active torsions:
REMARK  status: ('A' for Active; 'I' for Inactive)
REMARK    1  A    between atoms: C_1  and  C_2
REMARK    2  A    between atoms: C_2  and  N_3
REMARK    3  A    between atoms: C_4  and  C_25
REMARK    4  A    between atoms: C_5  and  C_20
REMARK    5  A    between atoms: C_6  and  C_11
REMARK    6  A    between atoms: C_14  and  C_17
REMARK    7  A    between atoms: C_17  and  C_18
REMARK    8  A    between atoms: C_17  and  C_19
REMARK    9  A    between atoms: C_20  and  O_22
REMARK   10  A    between atoms: O_22  and  C_23
REMARK   11  A    between atoms: C_23  and  C_24
REMARK   12  A    between atoms: C_25  and  N_26
REMARK   13  A    between atoms: N_35  and  C_36
REMARK   14  A    between atoms: C_36  and  C_37
REMARK   15  A    between atoms: C_36  and  C_38
REMARK   16  A    between atoms: C_36  and  C_39
REMARK                            x       y       z     vdW  Elec       q    Type
REMARK                         _______ _______ _______ _____ _____    ______ ____
ROOT
ATOM      1  N   UNL     1      -1.505  -0.353   0.179  0.00  0.00    -0.261 N 
ATOM      2  C   UNL     1      -1.863  -0.913   1.372  0.00  0.00    +0.010 C 
ATOM      3  C   UNL     1      -2.991  -1.646   1.488  0.00  0.00    +0.076 C 
ATOM      4  C   UNL     1      -3.845  -1.826   0.249  0.00  0.00    +0.143 C 
ATOM      5  N   UNL     1      -3.372  -1.182  -0.987  0.00  0.00    -0.288 N 
ATOM      6  C   UNL     1      -2.224  -0.476  -0.944  0.00  0.00    +0.307 C 
ATOM      7  O   UNL     1      -1.826   0.062  -1.959  0.00  0.00    -0.252 OA
ATOM      8  H   UNL     1      -3.875  -1.261  -1.813  0.00  0.00    +0.151 HD
ENDROOT
BRANCH   4   9
ATOM      9  C   UNL     1      -5.221  -1.291   0.552  0.00  0.00    -0.022 A 
ATOM     10  C   UNL     1      -5.463   0.069   0.496  0.00  0.00    +0.006 A 
ATOM     11  C   UNL     1      -6.725   0.559   0.774  0.00  0.00    +0.004 A 
ATOM     12  C   UNL     1      -7.746  -0.311   1.109  0.00  0.00    -0.045 A 
ATOM     13  C   UNL     1      -7.505  -1.671   1.164  0.00  0.00    +0.004 A 
ATOM     14  C   UNL     1      -6.244  -2.162   0.881  0.00  0.00    +0.006 A 
BRANCH  12  15
ATOM     15  C   UNL     1      -9.122   0.223   1.413  0.00  0.00    +0.013 C 
ATOM     16  C   UNL     1     -10.129  -0.371   0.426  0.00  0.00    +0.012 C 
ATOM     17  C   UNL     1      -9.516  -0.165   2.839  0.00  0.00    +0.012 C 
ENDBRANCH  12  15
ENDBRANCH   4   9
BRANCH   1  19
ATOM     18  C   UNL     1      -0.575   1.892   0.454  0.00  0.00    +0.025 C 
ATOM     19  C   UNL     1      -0.268   0.429   0.125  0.00  0.00    +0.111 C 
ENDBRANCH   1  19
BRANCH   3  20
ATOM     20  C   UNL     1      -3.362  -2.226   2.723  0.00  0.00    +0.339 C 
ATOM     21  O   UNL     1      -2.709  -1.998   3.724  0.00  0.00    -0.245 OA
BRANCH  20  22
ATOM     22  O   UNL     1      -4.441  -3.034   2.792  0.00  0.00    -0.462 OA
BRANCH  22  23
ATOM     23  C   UNL     1      -4.758  -3.586   4.071  0.00  0.00    +0.229 C 
ATOM     24  C   UNL     1      -6.003  -4.468   3.952  0.00  0.00    +0.048 C 
ENDBRANCH  22  23
ENDBRANCH  20  22
ENDBRANCH   3  20
BRANCH   2  25
ATOM     25  C   UNL     1      -0.984  -0.709   2.579  0.00  0.00    -0.026 C 
BRANCH  25  26
ATOM     26  N   UNL     1      -0.156  -1.904   2.790  0.00  0.00    +0.384 N 
ATOM     27  C   UNL     1       0.489  -1.794   4.096  0.00  0.00    -0.077 C 
ATOM     28  C   UNL     1       0.722  -3.180   4.656  0.00  0.00    +0.000 C 
ATOM     29  C   UNL     1       2.138  -3.653   4.279  0.00  0.00    +0.107 C 
ATOM     30  N   UNL     1       2.480  -3.256   2.898  0.00  0.00    -0.287 N 
ATOM     31  C   UNL     1       1.532  -3.348   1.808  0.00  0.00    +0.091 C 
ATOM     32  C   UNL     1       0.730  -2.030   1.697  0.00  0.00    -0.059 C 
ATOM     33  C   UNL     1       3.720  -2.792   2.644  0.00  0.00    +0.303 C 
ATOM     34  O   UNL     1       4.561  -2.792   3.522  0.00  0.00    -0.253 OA
ATOM     35  N   UNL     1       4.027  -2.328   1.416  0.00  0.00    -0.294 N 
ATOM     36  H   UNL     1       3.337  -2.259   0.737  0.00  0.00    +0.151 HD
ATOM     37  H   UNL     1      -0.762  -2.711   2.803  0.00  0.00    -0.081 HD
BRANCH  35  38
ATOM     38  C   UNL     1       5.402  -1.926   1.108  0.00  0.00    +0.028 C 
ATOM     39  C   UNL     1       6.336  -3.123   1.294  0.00  0.00    +0.031 C 
ATOM     40  C   UNL     1       5.478  -1.440  -0.341  0.00  0.00    +0.031 C 
ATOM     41  C   UNL     1       5.826  -0.796   2.047  0.00  0.00    +0.031 C 
ENDBRANCH  35  38
ENDBRANCH  25  26
ENDBRANCH   2  25
TORSDOF 9
