REMARK  Name = ZINC54524272
REMARK  4 active torsions:
REMARK  status: ('A' for Active; 'I' for Inactive)
REMARK    1  A    between atoms: C_1  and  C_2
REMARK    2  A    between atoms: N_14  and  CA_15
REMARK    3  A    between atoms: CA_15  and  C_17
REMARK    4  A    between atoms: CA_15  and  C_20
REMARK                            x       y       z     vdW  Elec       q    Type
REMARK                         _______ _______ _______ _____ _____    ______ ____
ROOT
ATOM      1  C   UNL     1      -0.018   1.503   0.010  0.00  0.00    +0.044 C 
ATOM      2  C   UNL     1       0.002  -0.004   0.002  0.00  0.00    -0.049 A 
ATOM      3  C   UNL     1       0.006  -0.698  -1.199  0.00  0.00    +0.005 A 
ATOM      4  C   UNL     1       0.024  -2.068  -1.235  0.00  0.00    +0.029 A 
ATOM      5  C   UNL     1       0.041  -2.822  -0.038  0.00  0.00    +0.080 A 
ATOM      6  C   UNL     1       0.037  -2.081   1.166  0.00  0.00    +0.041 A 
ATOM      7  C   UNL     1       0.023  -0.709   1.192  0.00  0.00    +0.020 A 
ATOM      8  S   UNL     1       0.061  -3.361   2.397  0.00  0.00    -0.052 S 
ATOM      9  C   UNL     1       0.074  -4.752   1.275  0.00  0.00    +0.167 A 
ATOM     10  N   UNL     1       0.060  -4.165   0.101  0.00  0.00    -0.225 NA
ATOM     11  N   UNL     1       0.095  -6.106   1.569  0.00  0.00    -0.248 N 
ATOM     12  C   UNL     1       0.102  -7.012   0.572  0.00  0.00    +0.306 C 
ATOM     13  O   UNL     1       0.091  -6.642  -0.586  0.00  0.00    -0.252 OA
ATOM     14  N   UNL     1       0.123  -8.329   0.858  0.00  0.00    -0.286 N 
ATOM     15  H   UNL     1       0.104  -6.401   2.493  0.00  0.00    +0.158 HD
ATOM     16  H   UNL     1       0.132  -8.624   1.782  0.00  0.00    +0.151 HD
ENDROOT
BRANCH  14  17
ATOM     17  CA  UNL     1       0.131  -9.314  -0.226  0.00  0.00    +0.191 C 
BRANCH  17  18
ATOM     18  C   UNL     1       0.761 -10.616   0.272  0.00  0.00    +0.020 C 
ATOM     19  C   UNL     1       2.121 -11.009  -0.308  0.00  0.00    +0.006 C 
ATOM     20  C   UNL     1       0.863 -11.777  -0.719  0.00  0.00    +0.006 C 
ENDBRANCH  17  18
BRANCH  17  21
ATOM     21  C   UNL     1      -1.284  -9.580  -0.674  0.00  0.00    +0.376 C 
ATOM     22  O   UNL     1      -2.212  -9.001  -0.137  0.00  0.00    -0.244 OA
ATOM     23  OXT UNL     1      -1.499 -10.375  -1.573  0.00  0.00    -0.244 OA
ENDBRANCH  17  21
ENDBRANCH  14  17
TORSDOF 3
