REMARK  Name = ZINC43741555
REMARK  9 active torsions:
REMARK  status: ('A' for Active; 'I' for Inactive)
REMARK    1  A    between atoms: C_1  and  C_2
REMARK    2  A    between atoms: N_6  and  O_7
REMARK    3  A    between atoms: O_7  and  C_8
REMARK    4  A    between atoms: C_8  and  C_9
REMARK    5  A    between atoms: N_11  and  C_12
REMARK    6  A    between atoms: C_12  and  C_13
REMARK    7  A    between atoms: C_28  and  C_37
REMARK    8  A    between atoms: C_33  and  C_34
REMARK    9  A    between atoms: C_33  and  O_36
REMARK                            x       y       z     vdW  Elec       q    Type
REMARK                         _______ _______ _______ _____ _____    ______ ____
ROOT
ATOM      1  C   UNL     1      -0.019   1.526   0.010  0.00  0.00    +0.016 C 
ATOM      2  C   UNL     1       0.002  -0.004   0.002  0.00  0.00    -0.007 C 
ATOM      3  C   UNL     1       0.630  -0.458  -1.303  0.00  0.00    +0.017 C 
ATOM      4  C   UNL     1       2.155  -0.374  -1.256  0.00  0.00    +0.059 C 
ATOM      5  C   UNL     1       2.620  -1.234  -0.097  0.00  0.00    +0.080 C 
ATOM      6  N   UNL     1       3.565  -2.110  -0.233  0.00  0.00    -0.089 NA
ATOM      7  C   UNL     1       1.940  -1.021   1.193  0.00  0.00    +0.026 C 
ATOM      8  C   UNL     1       0.732  -0.465   1.226  0.00  0.00    -0.062 C 
ATOM      9  C   UNL     1       0.085  -0.249   2.582  0.00  0.00    +0.031 C 
ATOM     10  C   UNL     1      -1.356  -0.762   2.526  0.00  0.00    +0.008 C 
ATOM     11  C   UNL     1      -2.092  -0.073   1.374  0.00  0.00    -0.003 C 
ATOM     12  C   UNL     1      -1.450  -0.496   0.045  0.00  0.00    +0.002 C 
ATOM     13  C   UNL     1      -2.200   0.053  -1.165  0.00  0.00    +0.005 C 
ATOM     14  C   UNL     1      -3.694  -0.302  -1.117  0.00  0.00    +0.011 C 
ATOM     15  C   UNL     1      -4.244   0.255   0.183  0.00  0.00    +0.011 C 
ATOM     16  C   UNL     1      -3.545  -0.512   1.357  0.00  0.00    +0.002 C 
ATOM     17  C   UNL     1      -4.380  -0.095   2.573  0.00  0.00    +0.008 C 
ATOM     18  C   UNL     1      -5.833  -0.137   2.027  0.00  0.00    +0.049 C 
ATOM     19  C   UNL     1      -5.727   0.019   0.450  0.00  0.00    +0.132 C 
ATOM     20  C   UNL     1      -3.931   1.749   0.280  0.00  0.00    +0.015 C 
ENDROOT
BRANCH  19  21
ATOM     21  C   UNL     1      -6.517   1.178   0.003  0.00  0.00    -0.070 C 
ATOM     22  C   UNL     1      -7.146   2.102  -0.354  0.00  0.00    +0.007 C 
ENDBRANCH  19  21
BRANCH  19  23
ATOM     23  O   UNL     1      -6.167  -1.168  -0.213  0.00  0.00    -0.376 OA
ATOM     24  H   UNL     1      -7.104  -1.369  -0.079  0.00  0.00    +0.211 HD
ENDBRANCH  19  23
BRANCH   6  25
ATOM     25  O   UNL     1       3.970  -2.893   0.875  0.00  0.00    -0.384 OA
BRANCH  25  26
ATOM     26  C   UNL     1       5.020  -3.816   0.581  0.00  0.00    +0.358 C 
BRANCH  26  27
ATOM     27  C   UNL     1       5.369  -4.593   1.825  0.00  0.00    +0.254 C 
ATOM     28  O   UNL     1       4.777  -4.376   2.861  0.00  0.00    -0.272 OA
ATOM     29  N   UNL     1       6.340  -5.527   1.786  0.00  0.00    -0.305 N 
ATOM     30  H   UNL     1       6.813  -5.700   0.957  0.00  0.00    +0.149 HD
BRANCH  29  31
ATOM     31  C   UNL     1       6.679  -6.282   2.995  0.00  0.00    +0.178 C 
BRANCH  31  32
ATOM     32  C   UNL     1       7.786  -7.255   2.685  0.00  0.00    +0.122 A 
ATOM     33  C   UNL     1       9.104  -7.008   2.793  0.00  0.00    +0.046 A 
ATOM     34  C   UNL     1       9.776  -8.190   2.405  0.00  0.00    +0.041 A 
ATOM     35  C   UNL     1       8.828  -9.089   2.082  0.00  0.00    +0.195 A 
ATOM     36  O   UNL     1       7.625  -8.519   2.259  0.00  0.00    -0.466 OA
ENDBRANCH  31  32
ENDBRANCH  29  31
ENDBRANCH  26  27
ENDBRANCH  25  26
ENDBRANCH   6  25
TORSDOF 7
