REMARK  Name = ZINC67265316
REMARK  10 active torsions:
REMARK  status: ('A' for Active; 'I' for Inactive)
REMARK    1  A    between atoms: C_1  and  C_2
REMARK    2  A    between atoms: C_2  and  C_3
REMARK    3  A    between atoms: C_2  and  C_4
REMARK    4  A    between atoms: C_4  and  N_5
REMARK    5  A    between atoms: C_8  and  N_11
REMARK    6  A    between atoms: C_12  and  C_14
REMARK    7  A    between atoms: C_16  and  N_24
REMARK    8  A    between atoms: C_18  and  N_20
REMARK    9  A    between atoms: C_21  and  C_23
REMARK   10  A    between atoms: C_25  and  C_27
REMARK                            x       y       z     vdW  Elec       q    Type
REMARK                         _______ _______ _______ _____ _____    ______ ____
ROOT
ATOM      1  C   UNL     1      -2.850  -8.116   0.983  0.00  0.00    +0.040 A 
ATOM      2  C   UNL     1      -1.680  -8.782   0.619  0.00  0.00    +0.036 A 
ATOM      3  C   UNL     1      -1.679 -10.164   0.504  0.00  0.00    +0.036 A 
ATOM      4  C   UNL     1      -2.840 -10.884   0.750  0.00  0.00    +0.046 A 
ATOM      5  C   UNL     1      -4.006 -10.224   1.113  0.00  0.00    +0.036 A 
ATOM      6  C   UNL     1      -4.014  -8.842   1.236  0.00  0.00    +0.036 A 
ENDROOT
BRANCH   5   7
ATOM      7  N   UNL     1      -5.175 -10.953   1.360  0.00  0.00    -0.286 N 
ATOM      8  C   UNL     1      -6.375 -10.435   1.033  0.00  0.00    +0.214 C 
ATOM      9  O   UNL     1      -6.438  -9.379   0.440  0.00  0.00    -0.276 OA
ATOM     10  C   UNL     1      -7.639 -11.167   1.404  0.00  0.00    +0.109 C 
ATOM     11  H   UNL     1      -5.121 -11.832   1.766  0.00  0.00    +0.155 HD
ENDBRANCH   5   7
BRANCH   3  12
ATOM     12  N   UNL     1      -0.505 -10.834   0.139  0.00  0.00    -0.286 N 
ATOM     13  C   UNL     1      -0.229 -12.044   0.663  0.00  0.00    +0.214 C 
ATOM     14  O   UNL     1      -1.036 -12.590   1.387  0.00  0.00    -0.276 OA
ATOM     15  C   UNL     1       1.081 -12.720   0.351  0.00  0.00    +0.109 C 
ATOM     16  H   UNL     1       0.109 -10.427  -0.492  0.00  0.00    +0.155 HD
ENDBRANCH   3  12
BRANCH   1  18
ATOM     17  N   UNL     1      -1.730  -5.941   0.863  0.00  0.00    -0.309 N 
ATOM     18  C   UNL     1      -2.855  -6.642   1.107  0.00  0.00    +0.244 C 
ATOM     19  O   UNL     1      -3.874  -6.063   1.430  0.00  0.00    -0.270 OA
ATOM     20  H   UNL     1      -0.917  -6.403   0.606  0.00  0.00    +0.149 HD
BRANCH  17  24
ATOM     21  N   UNL     1      -0.763  -1.923   0.036  0.00  0.00    +0.380 N 
ATOM     22  C   UNL     1      -0.314  -2.458   1.328  0.00  0.00    -0.077 C 
ATOM     23  C   UNL     1      -0.316  -3.987   1.279  0.00  0.00    +0.003 C 
ATOM     24  C   UNL     1      -1.736  -4.481   0.986  0.00  0.00    +0.070 C 
ATOM     25  C   UNL     1      -2.222  -3.859  -0.326  0.00  0.00    +0.003 C 
ATOM     26  C   UNL     1      -2.149  -2.334  -0.218  0.00  0.00    -0.077 C 
ATOM     27  H   UNL     1      -0.168  -2.278  -0.697  0.00  0.00    -0.082 HD
BRANCH  21  28
ATOM     28  C   UNL     1      -0.685  -0.456   0.062  0.00  0.00    -0.076 C 
BRANCH  28  30
ATOM     29  C   UNL     1       1.531  -0.449  -1.091  0.00  0.00    +0.005 C 
ATOM     30  C   UNL     1       0.778  -0.025   0.171  0.00  0.00    -0.034 C 
ATOM     31  C   UNL     1       0.852   1.496   0.322  0.00  0.00    +0.005 C 
ENDBRANCH  28  30
ENDBRANCH  21  28
ENDBRANCH  17  24
ENDBRANCH   1  18
TORSDOF 6
