REMARK  Name = ZINC14161302
REMARK  9 active torsions:
REMARK  status: ('A' for Active; 'I' for Inactive)
REMARK    1  A    between atoms: C_1  and  C_2
REMARK    2  A    between atoms: C_5  and  C_35
REMARK    3  A    between atoms: C_6  and  N_8
REMARK    4  A    between atoms: N_8  and  C_9
REMARK    5  A    between atoms: C_9  and  N_11
REMARK    6  A    between atoms: N_13  and  C_14
REMARK    7  A    between atoms: C_16  and  C_21
REMARK    8  A    between atoms: C_18  and  C_20
REMARK    9  A    between atoms: N_25  and  C_28
REMARK                            x       y       z     vdW  Elec       q    Type
REMARK                         _______ _______ _______ _____ _____    ______ ____
ROOT
ATOM      1  N   UNL     1       0.822  -2.716   4.687  0.00  0.00    -0.269 N 
ATOM      2  C   UNL     1       0.624  -2.084   5.891  0.00  0.00    +0.192 C 
ATOM      3  N   UNL     1       0.390  -0.789   5.923  0.00  0.00    -0.181 NA
ATOM      4  N   UNL     1       0.670  -2.800   7.056  0.00  0.00    -0.300 N 
ATOM      5  C   UNL     1       1.053  -4.219   7.047  0.00  0.00    +0.126 C 
ATOM      6  C   UNL     1       2.230  -4.415   8.010  0.00  0.00    +0.124 C 
ATOM      7  N   UNL     1       1.899  -3.780   9.293  0.00  0.00    -0.327 N 
ATOM      8  C   UNL     1       1.517  -2.361   9.302  0.00  0.00    +0.124 C 
ATOM      9  C   UNL     1       0.345  -2.163   8.340  0.00  0.00    +0.126 C 
ATOM     10  H   UNL     1       0.342  -3.534   4.484  0.00  0.00    +0.156 HD
ENDROOT
BRANCH   3  11
ATOM     11  C   UNL     1      -0.034  -0.146   4.801  0.00  0.00    +0.253 A 
ATOM     12  N   UNL     1      -0.354  -0.859   3.725  0.00  0.00    -0.216 NA
ATOM     13  C   UNL     1      -0.770  -0.263   2.620  0.00  0.00    +0.044 A 
ATOM     14  C   UNL     1      -0.871   1.120   2.593  0.00  0.00    +0.046 A 
ATOM     15  C   UNL     1      -0.530   1.834   3.732  0.00  0.00    +0.044 A 
ATOM     16  N   UNL     1      -0.126   1.181   4.807  0.00  0.00    -0.216 NA
ATOM     17  C   UNL     1      -0.625   3.338   3.744  0.00  0.00    +0.066 C 
ATOM     18  C   UNL     1      -1.131  -1.078   1.405  0.00  0.00    +0.066 C 
ENDBRANCH   3  11
BRANCH   7  19
ATOM     19  C   UNL     1       1.946  -4.511  10.483  0.00  0.00    +0.030 A 
ATOM     20  C   UNL     1       2.435  -5.811  10.481  0.00  0.00    +0.024 A 
ATOM     21  C   UNL     1       2.481  -6.532  11.658  0.00  0.00    +0.022 A 
ATOM     22  C   UNL     1       2.040  -5.960  12.839  0.00  0.00    +0.041 A 
ATOM     23  C   UNL     1       1.553  -4.664  12.843  0.00  0.00    +0.022 A 
ATOM     24  C   UNL     1       1.510  -3.937  11.670  0.00  0.00    +0.024 A 
ATOM     25 CL   UNL     1       2.099  -6.869  14.317  0.00  0.00    -0.084 Cl
ENDBRANCH   7  19
BRANCH   1  26
ATOM     26  C   UNL     1       1.684  -2.200   3.788  0.00  0.00    +0.141 C 
ATOM     27  S   UNL     1       2.577  -0.790   4.170  0.00  0.00    -0.018 S 
BRANCH  26  28
ATOM     28  N   UNL     1       1.842  -2.793   2.588  0.00  0.00    -0.296 N 
ATOM     29  H   UNL     1       1.302  -3.564   2.353  0.00  0.00    +0.154 HD
BRANCH  28  35
ATOM     30  C   UNL     1       6.147  -0.573   1.751  0.00  0.00    +0.044 C 
ATOM     31  C   UNL     1       4.880  -1.216   1.248  0.00  0.00    -0.049 A 
ATOM     32  C   UNL     1       4.649  -1.317  -0.112  0.00  0.00    +0.004 A 
ATOM     33  C   UNL     1       3.489  -1.906  -0.577  0.00  0.00    +0.005 A 
ATOM     34  C   UNL     1       2.556  -2.397   0.316  0.00  0.00    -0.029 A 
ATOM     35  C   UNL     1       2.785  -2.298   1.682  0.00  0.00    +0.036 A 
ATOM     36  C   UNL     1       3.954  -1.710   2.146  0.00  0.00    +0.027 A 
ATOM     37  C   UNL     1       1.291  -3.039  -0.192  0.00  0.00    +0.045 C 
ENDBRANCH  28  35
ENDBRANCH  26  28
ENDBRANCH   1  26
TORSDOF 5
