REMARK  Name = ZINC21812628
REMARK  6 active torsions:
REMARK  status: ('A' for Active; 'I' for Inactive)
REMARK    1  A    between atoms: C_1  and  C_2
REMARK    2  A    between atoms: C_4  and  N_8
REMARK    3  A    between atoms: N_5  and  C_7
REMARK    4  A    between atoms: N_8  and  S_9
REMARK    5  A    between atoms: S_9  and  C_12
REMARK    6  A    between atoms: C_14  and  N_20
REMARK                            x       y       z     vdW  Elec       q    Type
REMARK                         _______ _______ _______ _____ _____    ______ ____
ROOT
ATOM      1  S   UNL     1      -4.875   2.430   2.169  0.00  0.00    +0.076 S 
ATOM      2  O   UNL     1      -6.056   2.869   2.825  0.00  0.00    -0.150 OA
ATOM      3  O   UNL     1      -4.422   3.004   0.951  0.00  0.00    -0.150 OA
ENDROOT
BRANCH   1   4
ATOM      4  C   UNL     1      -5.076   0.706   1.869  0.00  0.00    +0.145 A 
ATOM      5  C   UNL     1      -6.250   0.074   2.234  0.00  0.00    +0.057 A 
ATOM      6  C   UNL     1      -6.409  -1.284   1.998  0.00  0.00    +0.062 A 
ATOM      7  C   UNL     1      -5.386  -2.007   1.394  0.00  0.00    +0.147 A 
ATOM      8  C   UNL     1      -4.213  -1.370   1.031  0.00  0.00    +0.080 A 
ATOM      9  C   UNL     1      -4.061  -0.013   1.263  0.00  0.00    +0.153 A 
ATOM     10  F   UNL     1      -2.916   0.608   0.903  0.00  0.00    -0.203 F 
ATOM     11  F   UNL     1      -5.537  -3.329   1.163  0.00  0.00    -0.203 F 
BRANCH   6  12
ATOM     12  N   UNL     1      -7.597  -1.925   2.367  0.00  0.00    -0.356 N 
ATOM     13  H   UNL     1      -7.722  -3.002   2.179  0.00  0.00    +0.142 HD
ATOM     14  H   UNL     1      -8.406  -1.353   2.845  0.00  0.00    +0.142 HD
ENDBRANCH   6  12
ENDBRANCH   1   4
BRANCH   1  15
ATOM     15  N   UNL     1      -3.639   2.597   3.259  0.00  0.00    -0.200 N 
ATOM     16  H   UNL     1      -2.718   3.125   2.970  0.00  0.00    +0.175 HD
BRANCH  15  20
ATOM     17  C   UNL     1      -5.528   0.414   7.327  0.00  0.00    +0.067 C 
ATOM     18  C   UNL     1      -4.582   1.097   6.374  0.00  0.00    +0.062 A 
ATOM     19  C   UNL     1      -4.879   1.486   5.064  0.00  0.00    +0.069 A 
ATOM     20  C   UNL     1      -3.765   2.069   4.540  0.00  0.00    +0.136 A 
ATOM     21  N   UNL     1      -2.803   2.036   5.490  0.00  0.00    -0.252 N 
ATOM     22  N   UNL     1      -3.341   1.423   6.628  0.00  0.00    -0.175 NA
ATOM     23  C   UNL     1      -1.438   2.552   5.352  0.00  0.00    +0.174 C 
ENDBRANCH  15  20
ENDBRANCH   1  15
TORSDOF 4
