REMARK  Name = ZINC38597985
REMARK  9 active torsions:
REMARK  status: ('A' for Active; 'I' for Inactive)
REMARK    1  A    between atoms: C_1  and  O_2
REMARK    2  A    between atoms: O_2  and  C_3
REMARK    3  A    between atoms: C_8  and  N_9
REMARK    4  A    between atoms: C_10  and  C_12
REMARK    5  A    between atoms: N_14  and  C_15
REMARK    6  A    between atoms: C_15  and  C_16
REMARK    7  A    between atoms: C_16  and  C_18
REMARK    8  A    between atoms: C_16  and  N_23
REMARK    9  A    between atoms: N_26  and  C_29
REMARK                            x       y       z     vdW  Elec       q    Type
REMARK                         _______ _______ _______ _____ _____    ______ ____
ROOT
ATOM      1  C   UNL     1      -1.118  -8.569   1.412  0.00  0.00    +0.017 C 
ENDROOT
BRANCH   1   2
ATOM      2  N   UNL     1      -1.661  -8.890   0.085  0.00  0.00    +0.389 N 
ATOM      3  C   UNL     1      -3.069  -8.479   0.022  0.00  0.00    -0.059 C 
ATOM      4  C   UNL     1      -3.604  -8.708  -1.396  0.00  0.00    +0.086 C 
ATOM      5  N   UNL     1      -3.363 -10.112  -1.764  0.00  0.00    -0.333 N 
ATOM      6  C   UNL     1      -2.009 -10.656  -1.577  0.00  0.00    +0.086 C 
ATOM      7  C   UNL     1      -1.550 -10.335  -0.151  0.00  0.00    -0.059 C 
ATOM      8  H   UNL     1      -1.136  -8.394  -0.621  0.00  0.00    -0.081 HD
BRANCH   5   9
ATOM      9  C   UNL     1      -4.393 -10.907  -2.278  0.00  0.00    +0.030 A 
ATOM     10  C   UNL     1      -5.632 -10.345  -2.557  0.00  0.00    +0.026 A 
ATOM     11  C   UNL     1      -6.647 -11.132  -3.064  0.00  0.00    +0.040 A 
ATOM     12  C   UNL     1      -6.430 -12.480  -3.296  0.00  0.00    +0.124 A 
ATOM     13  C   UNL     1      -5.195 -13.042  -3.019  0.00  0.00    +0.040 A 
ATOM     14  C   UNL     1      -4.176 -12.258  -2.516  0.00  0.00    +0.026 A 
ATOM     15  F   UNL     1      -7.425 -13.248  -3.792  0.00  0.00    -0.205 F 
ENDBRANCH   5   9
ENDBRANCH   1   2
BRANCH   1  16
ATOM     16  C   UNL     1      -1.818  -9.400   2.455  0.00  0.00    +0.093 A 
ATOM     17  C   UNL     1      -1.255  -9.905   3.568  0.00  0.00    +0.043 A 
ATOM     18  C   UNL     1      -2.267 -10.613   4.255  0.00  0.00    +0.041 A 
ATOM     19  C   UNL     1      -3.389 -10.499   3.522  0.00  0.00    +0.195 A 
ATOM     20  O   UNL     1      -3.113  -9.759   2.436  0.00  0.00    -0.469 OA
ENDBRANCH   1  16
BRANCH   1  21
ATOM     21  C   UNL     1      -1.340  -7.085   1.708  0.00  0.00    +0.097 C 
BRANCH  21  24
ATOM     22  C   UNL     1      -0.658  -4.934   0.788  0.00  0.00    +0.299 C 
ATOM     23  O   UNL     1      -1.182  -4.394   1.740  0.00  0.00    -0.265 OA
ATOM     24  N   UNL     1      -0.682  -6.277   0.678  0.00  0.00    -0.309 N 
ATOM     25  H   UNL     1      -0.263  -6.709  -0.083  0.00  0.00    +0.149 HD
BRANCH  22  27
ATOM     26  N   UNL     1       0.036  -2.768  -0.152  0.00  0.00    -0.275 N 
ATOM     27  C   UNL     1       0.013  -4.111  -0.262  0.00  0.00    +0.303 C 
ATOM     28  O   UNL     1       0.537  -4.651  -1.214  0.00  0.00    -0.265 OA
ATOM     29  H   UNL     1      -0.305  -2.341   0.649  0.00  0.00    +0.155 HD
BRANCH  26  35
ATOM     30  C   UNL     1       1.053  -0.716  -0.932  0.00  0.00    +0.141 A 
ATOM     31  C   UNL     1       1.569   0.048  -1.966  0.00  0.00    +0.049 A 
ATOM     32  C   UNL     1       1.584  -0.451  -3.255  0.00  0.00    +0.024 A 
ATOM     33  C   UNL     1       1.083  -1.714  -3.517  0.00  0.00    +0.043 A 
ATOM     34  C   UNL     1       0.566  -2.483  -2.491  0.00  0.00    +0.047 A 
ATOM     35  C   UNL     1       0.554  -1.990  -1.193  0.00  0.00    +0.077 A 
ATOM     36 CL   UNL     1       1.103  -2.335  -5.138  0.00  0.00    -0.083 Cl
BRANCH  30  38
ATOM     37  C   UNL     1       1.567   1.089   0.530  0.00  0.00    +0.277 C 
ATOM     38  O   UNL     1       1.038  -0.225   0.336  0.00  0.00    -0.493 OA
ENDBRANCH  30  38
ENDBRANCH  26  35
ENDBRANCH  22  27
ENDBRANCH  21  24
ENDBRANCH   1  21
TORSDOF 8
