REMARK  Name = ZINC39426047
REMARK  7 active torsions:
REMARK  status: ('A' for Active; 'I' for Inactive)
REMARK    1  A    between atoms: C_1  and  C_2
REMARK    2  A    between atoms: C_2  and  C_32
REMARK    3  A    between atoms: C_6  and  C_21
REMARK    4  A    between atoms: C_8  and  C_19
REMARK    5  A    between atoms: C_9  and  N_18
REMARK    6  A    between atoms: C_14  and  S_16
REMARK    7  A    between atoms: S_16  and  C_17
REMARK                            x       y       z     vdW  Elec       q    Type
REMARK                         _______ _______ _______ _____ _____    ______ ____
ROOT
ATOM      1  C   UNL     1      -0.869   1.750  -0.301  0.00  0.00    +0.011 C 
ATOM      2  C   UNL     1      -0.600   0.243  -0.289  0.00  0.00    -0.023 C 
ATOM      3  C   UNL     1      -1.895  -0.507   0.033  0.00  0.00    +0.058 C 
ATOM      4  C   UNL     1      -1.619  -1.990   0.093  0.00  0.00    +0.027 C 
ATOM      5  C   UNL     1      -0.417  -2.457   0.494  0.00  0.00    +0.025 C 
ATOM      6  C   UNL     1      -0.148  -3.939   0.567  0.00  0.00    +0.100 C 
ATOM      7  C   UNL     1      -1.148  -4.712  -0.241  0.00  0.00    +0.077 C 
ATOM      8  C   UNL     1      -2.326  -4.153  -0.622  0.00  0.00    +0.108 C 
ATOM      9  N   UNL     1      -2.618  -2.853  -0.273  0.00  0.00    -0.237 N 
ATOM     10  C   UNL     1      -3.939  -2.412  -0.293  0.00  0.00    +0.194 A 
ATOM     11  N   UNL     1      -5.032  -3.020  -0.726  0.00  0.00    -0.124 NA
ATOM     12  N   UNL     1      -6.167  -2.474  -0.671  0.00  0.00    -0.133 NA
ATOM     13  C   UNL     1      -6.335  -1.256  -0.175  0.00  0.00    +0.160 A 
ATOM     14  S   UNL     1      -4.645  -0.865   0.267  0.00  0.00    -0.024 S 
ATOM     15  C   UNL     1       0.619  -1.578   0.853  0.00  0.00    +0.162 C 
ATOM     16  O   UNL     1       1.685  -2.032   1.220  0.00  0.00    -0.292 OA
ATOM     17  C   UNL     1       0.434  -0.087   0.791  0.00  0.00    +0.086 C 
ATOM     18  C   UNL     1      -0.073  -0.196  -1.657  0.00  0.00    +0.011 C 
ENDROOT
BRANCH   6  19
ATOM     19  C   UNL     1      -0.225  -4.385   2.004  0.00  0.00    +0.002 A 
ATOM     20  C   UNL     1      -1.399  -4.224   2.717  0.00  0.00    +0.046 A 
ATOM     21  C   UNL     1      -1.469  -4.633   4.037  0.00  0.00    +0.020 A 
ATOM     22  C   UNL     1      -0.365  -5.204   4.643  0.00  0.00    +0.003 A 
ATOM     23  C   UNL     1       0.808  -5.366   3.931  0.00  0.00    +0.020 A 
ATOM     24  C   UNL     1       0.877  -4.962   2.609  0.00  0.00    +0.046 A 
ATOM     25 CL   UNL     1       2.349  -5.172   1.713  0.00  0.00    -0.083 Cl
ATOM     26 CL   UNL     1      -2.785  -3.506   1.956  0.00  0.00    -0.083 Cl
ENDBRANCH   6  19
BRANCH   8  27
ATOM     27  N   UNL     1      -3.228  -4.886  -1.355  0.00  0.00    -0.345 N 
ATOM     28  H   UNL     1      -3.093  -5.838  -1.479  0.00  0.00    +0.144 HD
ATOM     29  H   UNL     1      -4.000  -4.450  -1.750  0.00  0.00    +0.144 HD
ENDBRANCH   8  27
BRANCH  13  30
ATOM     30  S   UNL     1      -7.803  -0.298   0.003  0.00  0.00    -0.100 S 
ATOM     31  C   UNL     1      -9.109  -1.367  -0.662  0.00  0.00    +0.092 C 
ENDBRANCH  13  30
BRANCH   7  32
ATOM     32  C   UNL     1      -0.856  -6.063  -0.618  0.00  0.00    +0.099 C 
ATOM     33  N   UNL     1      -0.624  -7.134  -0.917  0.00  0.00    -0.191 NA
ENDBRANCH   7  32
TORSDOF 4
