REMARK  Name = ZINC00940867
REMARK  6 active torsions:
REMARK  status: ('A' for Active; 'I' for Inactive)
REMARK    1  A    between atoms: C_1  and  C_2
REMARK    2  A    between atoms: C_4  and  C_27
REMARK    3  A    between atoms: N_8  and  S_9
REMARK    4  A    between atoms: S_9  and  C_12
REMARK    5  A    between atoms: C_15  and  N_18
REMARK    6  A    between atoms: C_19  and  C_21
REMARK                            x       y       z     vdW  Elec       q    Type
REMARK                         _______ _______ _______ _____ _____    ______ ____
ROOT
ATOM      1  C   UNL     1       2.402   0.043  -0.040  0.00  0.00    +0.109 A 
ATOM      2  C   UNL     1       1.217  -0.669  -0.024  0.00  0.00    +0.030 A 
ATOM      3  C   UNL     1       0.009   0.000  -0.002  0.00  0.00    +0.025 A 
ATOM      4  C   UNL     1      -0.015   1.389   0.003  0.00  0.00    +0.034 A 
ATOM      5  C   UNL     1       1.178   2.100  -0.013  0.00  0.00    +0.025 A 
ATOM      6  C   UNL     1       2.383   1.425  -0.035  0.00  0.00    +0.030 A 
ENDROOT
BRANCH   4   7
ATOM      7  N   UNL     1      -1.236   2.069   0.019  0.00  0.00    -0.281 N 
ATOM      8  C   UNL     1      -1.353   3.229   0.696  0.00  0.00    +0.255 C 
ATOM      9  O   UNL     1      -0.375   3.728   1.222  0.00  0.00    -0.269 OA
ATOM     10  H   UNL     1      -2.000   1.706  -0.457  0.00  0.00    +0.155 HD
BRANCH   8  11
ATOM     11  C   UNL     1      -2.656   3.889   0.797  0.00  0.00    +0.075 A 
ATOM     12  C   UNL     1      -2.988   5.073   1.439  0.00  0.00    +0.022 A 
ATOM     13  C   UNL     1      -4.301   5.470   1.378  0.00  0.00    +0.024 A 
ATOM     14  C   UNL     1      -5.197   4.699   0.706  0.00  0.00    +0.056 A 
ATOM     15  S   UNL     1      -4.228   3.385   0.121  0.00  0.00    -0.077 S 
ATOM     16 BR   UNL     1      -7.048   4.993   0.460  0.00  0.00    -0.043 Br
ENDBRANCH   8  11
ENDBRANCH   4   7
BRANCH   1  17
ATOM     17  S   UNL     1       3.942  -0.814  -0.067  0.00  0.00    +0.075 S 
ATOM     18  O   UNL     1       4.911   0.074   0.472  0.00  0.00    -0.150 OA
ATOM     19  O   UNL     1       3.699  -2.102   0.484  0.00  0.00    -0.150 OA
BRANCH  17  27
ATOM     20  C   UNL     1       4.112   3.688  -2.347  0.00  0.00    +0.066 C 
ATOM     21  C   UNL     1       4.512   2.313  -2.815  0.00  0.00    +0.044 A 
ATOM     22  C   UNL     1       5.142   2.144  -4.038  0.00  0.00    +0.046 A 
ATOM     23  C   UNL     1       5.494   0.862  -4.430  0.00  0.00    +0.044 A 
ATOM     24  N   UNL     1       5.220  -0.156  -3.631  0.00  0.00    -0.219 NA
ATOM     25  C   UNL     1       4.617   0.040  -2.467  0.00  0.00    +0.235 A 
ATOM     26  N   UNL     1       4.262   1.252  -2.065  0.00  0.00    -0.219 NA
ATOM     27  N   UNL     1       4.345  -1.048  -1.656  0.00  0.00    -0.184 N 
ATOM     28  C   UNL     1       6.181   0.630  -5.751  0.00  0.00    +0.066 C 
ATOM     29  H   UNL     1       4.390  -1.946  -2.018  0.00  0.00    +0.177 HD
ENDBRANCH  17  27
ENDBRANCH   1  17
TORSDOF 4
