REMARK  Name = ZINC48743648
REMARK  11 active torsions:
REMARK  status: ('A' for Active; 'I' for Inactive)
REMARK    1  A    between atoms: C_1  and  C_2
REMARK    2  A    between atoms: C_4  and  C_25
REMARK    3  A    between atoms: C_7  and  N_8
REMARK    4  A    between atoms: C_9  and  C_11
REMARK    5  A    between atoms: N_13  and  C_14
REMARK    6  A    between atoms: C_14  and  C_15
REMARK    7  A    between atoms: C_15  and  C_17
REMARK    8  A    between atoms: C_15  and  N_22
REMARK    9  A    between atoms: N_22  and  C_23
REMARK   10  A    between atoms: N_22  and  C_24
REMARK   11  A    between atoms: N_27  and  C_28
REMARK                            x       y       z     vdW  Elec       q    Type
REMARK                         _______ _______ _______ _____ _____    ______ ____
ROOT
ATOM      1  N   UNL     1      -0.149  -0.080   2.402  0.00  0.00    -0.278 N 
ATOM      2  C   UNL     1      -0.211  -0.744   3.573  0.00  0.00    +0.303 C 
ATOM      3  O   UNL     1      -0.226  -1.958   3.583  0.00  0.00    -0.265 OA
ATOM      4  H   UNL     1      -0.080   0.887   2.396  0.00  0.00    +0.155 HD
ENDROOT
BRANCH   1  11
ATOM      5  C   UNL     1      -1.472   1.121   0.194  0.00  0.00    +0.045 C 
ATOM      6  C   UNL     1      -0.821  -0.234   0.092  0.00  0.00    -0.029 A 
ATOM      7  C   UNL     1      -0.852  -0.925  -1.099  0.00  0.00    +0.018 A 
ATOM      8  C   UNL     1      -0.247  -2.181  -1.192  0.00  0.00    +0.037 A 
ATOM      9  C   UNL     1       0.387  -2.733  -0.076  0.00  0.00    +0.015 A 
ATOM     10  C   UNL     1       0.415  -2.037   1.112  0.00  0.00    +0.024 A 
ATOM     11  C   UNL     1      -0.183  -0.784   1.200  0.00  0.00    +0.037 A 
BRANCH   8  12
ATOM     12  C   UNL     1      -0.279  -2.924  -2.467  0.00  0.00    +0.244 C 
ATOM     13  O   UNL     1      -0.832  -2.443  -3.437  0.00  0.00    -0.270 OA
ATOM     14  N   UNL     1       0.304  -4.136  -2.555  0.00  0.00    -0.314 N 
ATOM     15  C   UNL     1       0.273  -4.873  -3.821  0.00  0.00    +0.128 C 
ATOM     16  H   UNL     1       0.745  -4.519  -1.781  0.00  0.00    +0.149 HD
ENDBRANCH   8  12
ENDBRANCH   1  11
BRANCH   2  17
ATOM     17  C   UNL     1      -0.262   0.014   4.859  0.00  0.00    +0.299 C 
ATOM     18  O   UNL     1      -0.248   1.227   4.849  0.00  0.00    -0.265 OA
ATOM     19  N   UNL     1      -0.325  -0.650   6.031  0.00  0.00    -0.309 N 
ATOM     20  H   UNL     1      -0.336  -1.620   6.039  0.00  0.00    +0.149 HD
BRANCH  19  21
ATOM     21  C   UNL     1      -0.375   0.094   7.292  0.00  0.00    +0.094 C 
BRANCH  21  22
ATOM     22  C   UNL     1      -0.313  -0.887   8.465  0.00  0.00    -0.014 C 
BRANCH  22  23
ATOM     23  C   UNL     1       0.995  -1.633   8.428  0.00  0.00    -0.022 A 
ATOM     24  C   UNL     1       1.254  -2.880   7.961  0.00  0.00    +0.009 A 
ATOM     25  C   UNL     1       2.547  -3.365   8.029  0.00  0.00    +0.008 A 
ATOM     26  C   UNL     1       3.517  -2.581   8.559  0.00  0.00    +0.045 A 
ATOM     27  S   UNL     1       2.608  -1.103   8.979  0.00  0.00    -0.103 S 
ENDBRANCH  22  23
BRANCH  22  28
ATOM     28  N   UNL     1      -0.419  -0.146   9.729  0.00  0.00    +0.382 N 
ATOM     29  C   UNL     1      -1.740   0.491   9.815  0.00  0.00    -0.096 C 
ATOM     30  C   UNL     1      -0.248  -1.073  10.856  0.00  0.00    -0.096 C 
ATOM     31  H   UNL     1       0.299   0.562   9.764  0.00  0.00    -0.082 HD
ENDBRANCH  22  28
ENDBRANCH  21  22
ENDBRANCH  19  21
ENDBRANCH   2  17
TORSDOF 7
