REMARK  Name = ZINC61414646
REMARK  3 active torsions:
REMARK  status: ('A' for Active; 'I' for Inactive)
REMARK    1  A    between atoms: C_6  and  C_7
REMARK    2  A    between atoms: C_7  and  C_9
REMARK    3  A    between atoms: C_7  and  N_15
REMARK                            x       y       z     vdW  Elec       q    Type
REMARK                         _______ _______ _______ _____ _____    ______ ____
ROOT
ATOM      1  C   UNL     1      -0.017   1.389   0.010  0.00  0.00    +0.008 A 
ATOM      2  C   UNL     1       1.141   2.106   0.003  0.00  0.00    +0.030 A 
ATOM      3  C   UNL     1       2.375   1.434  -0.013  0.00  0.00    +0.089 A 
ATOM      4  C   UNL     1       2.394   0.016  -0.021  0.00  0.00    +0.089 A 
ATOM      5  C   UNL     1       1.178  -0.689  -0.013  0.00  0.00    +0.035 A 
ATOM      6  C   UNL     1       0.002  -0.004   0.002  0.00  0.00    -0.024 A 
ATOM      7  N   UNL     1       3.567  -0.628  -0.035  0.00  0.00    -0.252 NA
ATOM      8  C   UNL     1       4.686   0.058  -0.042  0.00  0.00    +0.131 A 
ATOM      9  C   UNL     1       4.667   1.455  -0.034  0.00  0.00    +0.131 A 
ATOM     10  N   UNL     1       3.529   2.110  -0.020  0.00  0.00    -0.252 NA
ENDROOT
BRANCH   6  11
ATOM     11  C   UNL     1      -1.299  -0.764   0.011  0.00  0.00    +0.119 C 
BRANCH  11  12
ATOM     12  C   UNL     1      -1.843  -0.812   1.415  0.00  0.00    +0.012 A 
ATOM     13  C   UNL     1      -1.774  -1.816   2.324  0.00  0.00    +0.014 A 
ATOM     14  C   UNL     1      -2.352  -1.636   3.567  0.00  0.00    +0.023 A 
ATOM     15  C   UNL     1      -2.971  -0.461   3.840  0.00  0.00    +0.055 A 
ATOM     16  S   UNL     1      -2.740   0.441   2.317  0.00  0.00    -0.084 S 
ATOM     17 BR   UNL     1      -3.846   0.084   5.426  0.00  0.00    -0.043 Br
ENDBRANCH  11  12
BRANCH  11  18
ATOM     18  N   UNL     1      -2.266  -0.090  -0.866  0.00  0.00    -0.320 NA
ATOM     19  H   UNL     1      -3.125  -0.616  -0.928  0.00  0.00    +0.119 HD
ATOM     20  H   UNL     1      -2.440   0.853  -0.554  0.00  0.00    +0.119 HD
ENDBRANCH  11  18
ENDBRANCH   6  11
TORSDOF 3
