REMARK  Name = ZINC02411007
REMARK  5 active torsions:
REMARK  status: ('A' for Active; 'I' for Inactive)
REMARK    1  A    between atoms: C_9  and  S_22
REMARK    2  A    between atoms: C_10  and  N_21
REMARK    3  A    between atoms: N_11  and  N_14
REMARK    4  A    between atoms: C_15  and  C_16
REMARK    5  A    between atoms: S_22  and  C_25
REMARK                            x       y       z     vdW  Elec       q    Type
REMARK                         _______ _______ _______ _____ _____    ______ ____
ROOT
ATOM      1  C   UNL     1       4.695   0.099  -0.040  0.00  0.00    +0.002 A 
ATOM      2  C   UNL     1       4.673   1.493  -0.032  0.00  0.00    +0.002 A 
ATOM      3  C   UNL     1       3.496   2.174  -0.018  0.00  0.00    +0.030 A 
ATOM      4  C   UNL     1       2.278   1.468  -0.011  0.00  0.00    +0.092 A 
ATOM      5  C   UNL     1       2.301   0.050  -0.019  0.00  0.00    +0.090 A 
ATOM      6  C   UNL     1       3.540  -0.618  -0.034  0.00  0.00    +0.030 A 
ATOM      7  N   UNL     1       1.159  -0.646  -0.012  0.00  0.00    -0.240 NA
ATOM      8  C   UNL     1       0.002  -0.004   0.002  0.00  0.00    +0.137 A 
ATOM      9  C   UNL     1      -1.354  -0.411   0.013  0.00  0.00    +0.162 A 
ATOM     10  C   UNL     1      -2.127   0.701   0.026  0.00  0.00    +0.148 A 
ATOM     11  N   UNL     1      -1.348   1.833   0.030  0.00  0.00    -0.197 N 
ATOM     12  C   UNL     1      -0.018   1.464   0.010  0.00  0.00    +0.184 A 
ATOM     13  N   UNL     1       1.115   2.131   0.003  0.00  0.00    -0.224 NA
ENDROOT
BRANCH  10  14
ATOM     14  N   UNL     1      -3.511   0.697   0.040  0.00  0.00    -0.341 N 
ATOM     15  H   UNL     1      -3.994  -0.144   0.041  0.00  0.00    +0.144 HD
ATOM     16  H   UNL     1      -3.998   1.536   0.049  0.00  0.00    +0.144 HD
ENDBRANCH  10  14
BRANCH   9  17
ATOM     17  S   UNL     1      -1.935  -2.075   0.009  0.00  0.00    +0.030 S 
ATOM     18  O   UNL     1      -3.249  -2.045  -0.529  0.00  0.00    -0.164 OA
ATOM     19  O   UNL     1      -0.898  -2.866  -0.556  0.00  0.00    -0.164 OA
BRANCH  17  20
ATOM     20  C   UNL     1      -2.090  -2.576   1.691  0.00  0.00    +0.094 A 
ATOM     21  C   UNL     1      -1.022  -3.173   2.336  0.00  0.00    +0.029 A 
ATOM     22  C   UNL     1      -1.142  -3.561   3.656  0.00  0.00    +0.022 A 
ATOM     23  C   UNL     1      -2.334  -3.364   4.330  0.00  0.00    +0.041 A 
ATOM     24  C   UNL     1      -3.404  -2.772   3.683  0.00  0.00    +0.022 A 
ATOM     25  C   UNL     1      -3.281  -2.379   2.364  0.00  0.00    +0.029 A 
ATOM     26 CL   UNL     1      -2.487  -3.857   5.988  0.00  0.00    -0.084 Cl
ENDBRANCH  17  20
ENDBRANCH   9  17
BRANCH  11  27
ATOM     27  N   UNL     1      -1.827   3.149   0.044  0.00  0.00    -0.171 NA
ATOM     28  C   UNL     1      -2.065   3.766  -1.076  0.00  0.00    +0.148 C 
BRANCH  28  29
ATOM     29  C   UNL     1      -2.567   5.144  -1.062  0.00  0.00    +0.032 A 
ATOM     30  C   UNL     1      -2.881   5.969  -2.128  0.00  0.00    +0.017 A 
ATOM     31  C   UNL     1      -3.339   7.238  -1.859  0.00  0.00    +0.008 A 
ATOM     32  C   UNL     1      -3.469   7.638  -0.567  0.00  0.00    +0.046 A 
ATOM     33  S   UNL     1      -2.940   6.192   0.335  0.00  0.00    -0.096 S 
ENDBRANCH  28  29
ENDBRANCH  11  27
TORSDOF 5
