REMARK  Name = ZINC04833256
REMARK  9 active torsions:
REMARK  status: ('A' for Active; 'I' for Inactive)
REMARK    1  A    between atoms: C_1  and  O_2
REMARK    2  A    between atoms: O_2  and  C_3
REMARK    3  A    between atoms: C_6  and  C_11
REMARK    4  A    between atoms: C_8  and  O_9
REMARK    5  A    between atoms: O_9  and  C_10
REMARK    6  A    between atoms: N_13  and  C_14
REMARK    7  A    between atoms: C_14  and  C_16
REMARK    8  A    between atoms: C_14  and  N_20
REMARK    9  A    between atoms: N_20  and  C_21
REMARK                            x       y       z     vdW  Elec       q    Type
REMARK                         _______ _______ _______ _____ _____    ______ ____
ROOT
ATOM      1  C   UNL     1      -1.549  -0.866  -0.411  0.00  0.00    +0.246 C 
ATOM      2  O   UNL     1      -2.632  -0.318  -0.343  0.00  0.00    -0.270 OA
ATOM      3  N   UNL     1      -1.462  -2.205  -0.281  0.00  0.00    -0.290 N 
ATOM      4  H   UNL     1      -0.598  -2.642  -0.335  0.00  0.00    +0.151 HD
ENDROOT
BRANCH   1   8
ATOM      5  C   UNL     1       1.966   1.434  -1.059  0.00  0.00    +0.162 A 
ATOM      6  C   UNL     1       2.053   0.054  -0.924  0.00  0.00    +0.050 A 
ATOM      7  C   UNL     1       0.916  -0.694  -0.714  0.00  0.00    +0.017 A 
ATOM      8  C   UNL     1      -0.330  -0.066  -0.636  0.00  0.00    +0.040 A 
ATOM      9  C   UNL     1      -0.418   1.322  -0.771  0.00  0.00    +0.062 A 
ATOM     10  C   UNL     1       0.726   2.067  -0.981  0.00  0.00    +0.162 A 
BRANCH   5  12
ATOM     11  C   UNL     1       4.326   1.454  -1.334  0.00  0.00    +0.277 C 
ATOM     12  O   UNL     1       3.090   2.167  -1.266  0.00  0.00    -0.491 OA
ENDBRANCH   5  12
BRANCH  10  13
ATOM     13  O   UNL     1       0.644   3.418  -1.114  0.00  0.00    -0.491 OA
ATOM     14  C   UNL     1      -0.658   4.000  -1.024  0.00  0.00    +0.277 C 
ENDBRANCH  10  13
ENDBRANCH   1   8
BRANCH   3  15
ATOM     15  C   UNL     1      -2.673  -2.999  -0.058  0.00  0.00    +0.211 C 
BRANCH  15  16
ATOM     16  C   UNL     1      -2.648  -4.232  -0.964  0.00  0.00    +0.225 C 
ATOM     17 CL   UNL     1      -1.195  -5.229  -0.582  0.00  0.00    -0.080 Cl
ATOM     18 CL   UNL     1      -4.138  -5.210  -0.690  0.00  0.00    -0.080 Cl
ATOM     19 CL   UNL     1      -2.581  -3.709  -2.688  0.00  0.00    -0.080 Cl
ENDBRANCH  15  16
BRANCH  15  20
ATOM     20  N   UNL     1      -2.727  -3.424   1.343  0.00  0.00    -0.309 N 
ATOM     21  H   UNL     1      -2.156  -4.144   1.654  0.00  0.00    +0.149 HD
BRANCH  20  22
ATOM     22  C   UNL     1      -3.596  -2.796   2.227  0.00  0.00    +0.098 A 
ATOM     23  C   UNL     1      -4.330  -1.692   1.804  0.00  0.00    +0.041 A 
ATOM     24  C   UNL     1      -5.196  -1.080   2.692  0.00  0.00    +0.005 A 
ATOM     25  C   UNL     1      -5.291  -1.587   3.982  0.00  0.00    +0.018 A 
ATOM     26  C   UNL     1      -4.529  -2.683   4.335  0.00  0.00    +0.084 A 
ATOM     27  N   UNL     1      -3.672  -3.313   3.487  0.00  0.00    -0.350 N 
ATOM     28  H   UNL     1      -3.117  -4.127   3.777  0.00  0.00    +0.166 HD
ENDBRANCH  20  22
ENDBRANCH  15  20
ENDBRANCH   3  15
TORSDOF 7
