REMARK  Name = ZINC20159521
REMARK  9 active torsions:
REMARK  status: ('A' for Active; 'I' for Inactive)
REMARK    1  A    between atoms: C_1  and  C_2
REMARK    2  A    between atoms: C_2  and  C_17
REMARK    3  A    between atoms: N_3  and  N_4
REMARK    4  A    between atoms: C_5  and  C_7
REMARK    5  A    between atoms: N_9  and  C_16
REMARK    6  A    between atoms: C_20  and  N_23
REMARK    7  A    between atoms: C_24  and  C_26
REMARK    8  A    between atoms: C_26  and  C_27
REMARK    9  A    between atoms: C_27  and  C_28
REMARK                            x       y       z     vdW  Elec       q    Type
REMARK                         _______ _______ _______ _____ _____    ______ ____
ROOT
ATOM      1  C   UNL     1       5.821  -1.993  -0.083  0.00  0.00    -0.002 A 
ATOM      2  C   UNL     1       6.132  -3.344   0.096  0.00  0.00    +0.011 A 
ATOM      3  C   UNL     1       7.447  -3.754   0.079  0.00  0.00    +0.024 A 
ATOM      4  C   UNL     1       8.465  -2.824  -0.103  0.00  0.00    +0.034 A 
ATOM      5  C   UNL     1       8.159  -1.478  -0.276  0.00  0.00    +0.024 A 
ATOM      6  C   UNL     1       6.846  -1.062  -0.266  0.00  0.00    +0.011 A 
ENDROOT
BRANCH   4   7
ATOM      7  N   UNL     1       9.798  -3.243  -0.114  0.00  0.00    -0.280 N 
ATOM      8  C   UNL     1      10.761  -2.436   0.374  0.00  0.00    +0.293 C 
ATOM      9  O   UNL     1      10.463  -1.389   0.909  0.00  0.00    -0.269 OA
ATOM     10  H   UNL     1      10.061  -4.230  -0.520  0.00  0.00    +0.155 HD
BRANCH   8  11
ATOM     11  C   UNL     1      12.210  -2.836   0.255  0.00  0.00    +0.393 C 
ATOM     12  F   UNL     1      12.323  -4.224   0.385  0.00  0.00    -0.188 F 
ATOM     13  F   UNL     1      12.701  -2.442  -0.994  0.00  0.00    -0.188 F 
BRANCH  11  14
ATOM     14  C   UNL     1      13.019  -2.152   1.359  0.00  0.00    +0.411 C 
ATOM     15  F   UNL     1      12.906  -0.764   1.229  0.00  0.00    -0.189 F 
ATOM     16  F   UNL     1      12.528  -2.545   2.609  0.00  0.00    -0.189 F 
BRANCH  14  17
ATOM     17  C   UNL     1      14.490  -2.558   1.239  0.00  0.00    +0.461 C 
ATOM     18  F   UNL     1      14.981  -2.164  -0.011  0.00  0.00    -0.165 F 
ATOM     19  F   UNL     1      15.230  -1.933   2.248  0.00  0.00    -0.165 F 
ATOM     20  F   UNL     1      14.603  -3.946   1.369  0.00  0.00    -0.165 F 
ENDBRANCH  14  17
ENDBRANCH  11  14
ENDBRANCH   8  11
ENDBRANCH   4   7
BRANCH   1  22
ATOM     21  C   UNL     1       3.310  -2.558   0.127  0.00  0.00    +0.068 C 
ATOM     22  C   UNL     1       4.414  -1.552  -0.072  0.00  0.00    +0.063 C 
ATOM     23  N   UNL     1       4.127  -0.296  -0.233  0.00  0.00    -0.184 NA
BRANCH  23  24
ATOM     24  N   UNL     1       2.791   0.124  -0.222  0.00  0.00    -0.203 N 
ATOM     25  C   UNL     1       2.492   1.428  -0.389  0.00  0.00    +0.265 C 
ATOM     26  O   UNL     1       3.384   2.240  -0.549  0.00  0.00    -0.268 OA
ATOM     27  H   UNL     1       1.984  -0.611  -0.077  0.00  0.00    +0.178 HD
BRANCH  25  28
ATOM     28  C   UNL     1       1.091   1.868  -0.378  0.00  0.00    +0.064 A 
ATOM     29  C   UNL     1      -0.011   1.081  -0.211  0.00  0.00    +0.099 A 
ATOM     30  N   UNL     1      -1.130   1.842  -0.267  0.00  0.00    -0.349 N 
ATOM     31  C   UNL     1      -0.802   3.168  -0.463  0.00  0.00    +0.050 A 
ATOM     32  C   UNL     1       0.598   3.247  -0.546  0.00  0.00    +0.012 A 
ATOM     33  C   UNL     1       1.217   4.478  -0.750  0.00  0.00    +0.011 A 
ATOM     34  C   UNL     1       0.449   5.616  -0.870  0.00  0.00    +0.001 A 
ATOM     35  C   UNL     1      -0.933   5.539  -0.789  0.00  0.00    +0.002 A 
ATOM     36  C   UNL     1      -1.559   4.328  -0.587  0.00  0.00    +0.026 A 
ATOM     37  C   UNL     1      -2.496   1.331  -0.132  0.00  0.00    +0.149 C 
ENDBRANCH  25  28
ENDBRANCH  23  24
ENDBRANCH   1  22
TORSDOF 7
