REMARK  Name = ZINC54217679
REMARK  5 active torsions:
REMARK  status: ('A' for Active; 'I' for Inactive)
REMARK    1  A    between atoms: C_1  and  C_2
REMARK    2  A    between atoms: C_7  and  C_10
REMARK    3  A    between atoms: C_11  and  C_13
REMARK    4  A    between atoms: C_18  and  N_19
REMARK    5  A    between atoms: N_19  and  N_20
REMARK                            x       y       z     vdW  Elec       q    Type
REMARK                         _______ _______ _______ _____ _____    ______ ____
ROOT
ATOM      1  C   UNL     1       2.967  -4.437  -1.159  0.00  0.00    +0.062 A 
ATOM      2  C   UNL     1       2.068  -5.074  -2.019  0.00  0.00    +0.015 A 
ATOM      3  C   UNL     1       2.329  -5.126  -3.370  0.00  0.00    +0.004 A 
ATOM      4  C   UNL     1       3.480  -4.550  -3.885  0.00  0.00    +0.040 A 
ATOM      5  C   UNL     1       4.378  -3.917  -3.049  0.00  0.00    +0.146 A 
ATOM      6  C   UNL     1       4.128  -3.849  -1.681  0.00  0.00    +0.089 A 
ATOM      7  F   UNL     1       5.498  -3.358  -3.559  0.00  0.00    -0.203 F 
ENDROOT
BRANCH   1  16
ATOM      8  C   UNL     1      -0.747  -0.606   2.202  0.00  0.00    +0.007 C 
ATOM      9  C   UNL     1      -0.333  -2.000   1.726  0.00  0.00    -0.011 C 
ATOM     10  C   UNL     1       0.159  -1.920   0.279  0.00  0.00    +0.022 C 
ATOM     11  C   UNL     1       0.540  -3.322  -0.205  0.00  0.00    +0.108 C 
ATOM     12  N   UNL     1       1.514  -3.898   0.732  0.00  0.00    -0.295 N 
ATOM     13  C   UNL     1       1.178  -3.941   2.162  0.00  0.00    +0.074 C 
ATOM     14  C   UNL     1       0.790  -2.531   2.619  0.00  0.00    +0.025 C 
ATOM     15  C   UNL     1       0.005  -4.897   2.385  0.00  0.00    +0.028 C 
ATOM     16  C   UNL     1       2.693  -4.378   0.289  0.00  0.00    +0.249 C 
ATOM     17  O   UNL     1       3.530  -4.762   1.082  0.00  0.00    -0.270 OA
ENDBRANCH   1  16
BRANCH   6  18
ATOM     18  N   UNL     1       5.028  -3.208  -0.837  0.00  0.00    -0.280 N 
ATOM     19  H   UNL     1       4.703  -2.714  -0.068  0.00  0.00    +0.166 HD
BRANCH  18  20
ATOM     20  N   UNL     1       6.369  -3.274  -1.091  0.00  0.00    -0.256 NA
ATOM     21  H   UNL     1       6.893  -2.763  -0.396  0.00  0.00    +0.140 HD
ATOM     22  H   UNL     1       6.679  -4.232  -1.146  0.00  0.00    +0.140 HD
ENDBRANCH  18  20
ENDBRANCH   6  18
TORSDOF 3
