REMARK  Name = ZINC34903822
REMARK  11 active torsions:
REMARK  status: ('A' for Active; 'I' for Inactive)
REMARK    1  A    between atoms: C_1  and  C_2
REMARK    2  A    between atoms: C_2  and  C_3
REMARK    3  A    between atoms: C_2  and  C_4
REMARK    4  A    between atoms: C_2  and  C_5
REMARK    5  A    between atoms: C_8  and  C_11
REMARK    6  A    between atoms: C_17  and  C_19
REMARK    7  A    between atoms: N_21  and  C_22
REMARK    8  A    between atoms: C_25  and  N_28
REMARK    9  A    between atoms: C_29  and  C_31
REMARK   10  A    between atoms: C_34  and  O_37
REMARK   11  A    between atoms: O_37  and  C_38
REMARK                            x       y       z     vdW  Elec       q    Type
REMARK                         _______ _______ _______ _____ _____    ______ ____
ROOT
ATOM      1  C   UNL     1       3.994  -1.198  -7.429  0.00  0.00    +0.234 C 
ATOM      2  O   UNL     1       2.947  -0.601  -7.293  0.00  0.00    -0.274 OA
ATOM      3  N   UNL     1       4.518  -1.367  -8.659  0.00  0.00    -0.311 N 
ATOM      4  H   UNL     1       5.356  -1.845  -8.768  0.00  0.00    +0.149 HD
ENDROOT
BRANCH   1  11
ATOM      5  C   UNL     1       2.696  -1.860  -4.732  0.00  0.00    +0.247 C 
ATOM      6  O   UNL     1       2.142  -2.644  -5.479  0.00  0.00    -0.270 OA
ATOM      7  N   UNL     1       3.947  -1.440  -5.005  0.00  0.00    -0.286 N 
ATOM      8  C   UNL     1       4.780  -0.597  -4.127  0.00  0.00    +0.109 C 
ATOM      9  C   UNL     1       6.238  -0.909  -4.547  0.00  0.00    +0.021 C 
ATOM     10  C   UNL     1       6.091  -1.078  -6.082  0.00  0.00    +0.033 C 
ATOM     11  C   UNL     1       4.709  -1.750  -6.223  0.00  0.00    +0.162 C 
BRANCH   5  15
ATOM     12  C   UNL     1       0.688  -0.450  -1.265  0.00  0.00    -0.042 A 
ATOM     13  C   UNL     1       0.326  -1.662  -1.825  0.00  0.00    +0.005 A 
ATOM     14  C   UNL     1       0.974  -2.126  -2.951  0.00  0.00    +0.013 A 
ATOM     15  C   UNL     1       1.997  -1.369  -3.526  0.00  0.00    +0.037 A 
ATOM     16  C   UNL     1       2.357  -0.147  -2.956  0.00  0.00    +0.013 A 
ATOM     17  C   UNL     1       1.698   0.308  -1.833  0.00  0.00    +0.005 A 
BRANCH  12  19
ATOM     18  C   UNL     1      -0.694   1.391  -0.343  0.00  0.00    +0.015 C 
ATOM     19  C   UNL     1      -0.024   0.051  -0.035  0.00  0.00    -0.013 C 
ATOM     20  C   UNL     1       0.986   0.234   1.100  0.00  0.00    +0.015 C 
ATOM     21  C   UNL     1      -1.087  -0.965   0.388  0.00  0.00    +0.015 C 
ENDBRANCH  12  19
ENDBRANCH   5  15
ENDBRANCH   1  11
BRANCH   3  22
ATOM     22  C   UNL     1       3.823  -0.831  -9.832  0.00  0.00    +0.073 C 
ATOM     23  C   UNL     1       4.212   0.636 -10.029  0.00  0.00    +0.024 C 
ATOM     24  C   UNL     1       3.486   1.196 -11.253  0.00  0.00    +0.024 C 
ATOM     25  C   UNL     1       3.883   0.393 -12.493  0.00  0.00    +0.073 C 
ATOM     26  C   UNL     1       3.494  -1.074 -12.297  0.00  0.00    +0.024 C 
ATOM     27  C   UNL     1       4.220  -1.634 -11.072  0.00  0.00    +0.024 C 
BRANCH  25  28
ATOM     28  N   UNL     1       5.331   0.491 -12.696  0.00  0.00    -0.308 N 
ATOM     29  C   UNL     1       5.852   0.322 -13.928  0.00  0.00    +0.244 C 
ATOM     30  O   UNL     1       5.120   0.088 -14.870  0.00  0.00    -0.270 OA
ATOM     31  H   UNL     1       5.914   0.678 -11.944  0.00  0.00    +0.149 HD
BRANCH  29  32
ATOM     32  C   UNL     1       7.310   0.421 -14.132  0.00  0.00    +0.037 A 
ATOM     33  C   UNL     1       8.153   0.684 -13.049  0.00  0.00    +0.016 A 
ATOM     34  C   UNL     1       9.513   0.775 -13.244  0.00  0.00    +0.046 A 
ATOM     35  C   UNL     1      10.048   0.606 -14.516  0.00  0.00    +0.120 A 
ATOM     36  C   UNL     1       9.213   0.345 -15.596  0.00  0.00    +0.046 A 
ATOM     37  C   UNL     1       7.852   0.246 -15.408  0.00  0.00    +0.016 A 
BRANCH  35  38
ATOM     38  O   UNL     1      11.389   0.698 -14.704  0.00  0.00    -0.495 OA
ATOM     39  C   UNL     1      11.871   0.514 -16.037  0.00  0.00    +0.277 C 
ENDBRANCH  35  38
ENDBRANCH  29  32
ENDBRANCH  25  28
ENDBRANCH   3  22
TORSDOF 7
