REMARK  Name = ZINC06787368
REMARK  9 active torsions:
REMARK  status: ('A' for Active; 'I' for Inactive)
REMARK    1  A    between atoms: C_1  and  C_2
REMARK    2  A    between atoms: C_4  and  C_21
REMARK    3  A    between atoms: N_6  and  C_7
REMARK    4  A    between atoms: C_7  and  C_8
REMARK    5  A    between atoms: N_10  and  N_11
REMARK    6  A    between atoms: C_14  and  C_19
REMARK    7  A    between atoms: C_14  and  C_20
REMARK    8  A    between atoms: C_15  and  C_17
REMARK    9  A    between atoms: C_15  and  C_18
REMARK                            x       y       z     vdW  Elec       q    Type
REMARK                         _______ _______ _______ _____ _____    ______ ____
ROOT
ATOM      1  C   UNL     1      -1.331   1.515   5.534  0.00  0.00    +0.254 C 
ATOM      2  O   UNL     1      -0.188   1.835   5.288  0.00  0.00    -0.272 OA
ATOM      3  N   UNL     1      -1.672   1.139   6.783  0.00  0.00    -0.206 N 
ATOM      4  H   UNL     1      -2.587   0.884   6.980  0.00  0.00    +0.177 HD
ENDROOT
BRANCH   3   5
ATOM      5  N   UNL     1      -0.705   1.119   7.796  0.00  0.00    -0.189 NA
ATOM      6  C   UNL     1      -1.047   0.860   9.001  0.00  0.00    +0.034 C 
ATOM      7  C   UNL     1      -2.460   0.455   9.355  0.00  0.00    +0.039 C 
ATOM      8  C   UNL     1      -2.980   1.406  10.437  0.00  0.00    -0.068 C 
ATOM      9  C   UNL     1      -0.624   1.873  11.215  0.00  0.00    -0.068 C 
ATOM     10  C   UNL     1      -0.057   0.940  10.142  0.00  0.00    +0.039 C 
ATOM     11  C   UNL     1       0.183   1.633  12.511  0.00  0.00    -0.010 C 
ATOM     12  C   UNL     1      -0.386   3.328  10.794  0.00  0.00    -0.010 C 
ATOM     13  C   UNL     1      -4.245   0.765  11.050  0.00  0.00    -0.010 C 
ATOM     14  C   UNL     1      -3.408   2.726   9.785  0.00  0.00    -0.010 C 
ATOM     15  N   UNL     1      -2.047   1.622  11.579  0.00  0.00    +0.386 N 
ATOM     16  H   UNL     1      -2.077   0.785  12.174  0.00  0.00    -0.084 HD
ATOM     17  H   UNL     1      -2.384   2.433  12.112  0.00  0.00    -0.084 HD
ENDBRANCH   3   5
BRANCH   1  18
ATOM     18  C   UNL     1      -2.372   1.537   4.444  0.00  0.00    +0.241 C 
BRANCH  18  24
ATOM     19  C   UNL     1      -2.162   4.475   3.478  0.00  0.00    +0.065 C 
ATOM     20  C   UNL     1      -1.657   3.252   2.757  0.00  0.00    +0.037 A 
ATOM     21  C   UNL     1      -1.020   3.235   1.564  0.00  0.00    +0.056 A 
ATOM     22  C   UNL     1      -0.726   1.903   1.252  0.00  0.00    +0.165 A 
ATOM     23  N   UNL     1      -1.163   1.149   2.228  0.00  0.00    -0.167 NA
ATOM     24  N   UNL     1      -1.755   1.977   3.190  0.00  0.00    -0.259 N 
BRANCH  22  25
ATOM     25  C   UNL     1      -0.021   1.421   0.010  0.00  0.00    +0.436 C 
ATOM     26  F   UNL     1      -0.003   0.022  -0.002  0.00  0.00    -0.164 F 
ATOM     27  F   UNL     1       1.291   1.905   0.001  0.00  0.00    -0.164 F 
ATOM     28  F   UNL     1      -0.699   1.889  -1.121  0.00  0.00    -0.164 F 
ENDBRANCH  22  25
ENDBRANCH  18  24
ENDBRANCH   1  18
TORSDOF 4
