REMARK  Name = ZINC39885771
REMARK  8 active torsions:
REMARK  status: ('A' for Active; 'I' for Inactive)
REMARK    1  A    between atoms: C_1  and  C_2
REMARK    2  A    between atoms: C_5  and  C_8
REMARK    3  A    between atoms: C_8  and  S_9
REMARK    4  A    between atoms: S_9  and  C_10
REMARK    5  A    between atoms: C_16  and  C_18
REMARK    6  A    between atoms: C_18  and  N_19
REMARK    7  A    between atoms: C_23  and  C_24
REMARK    8  A    between atoms: C_27  and  C_30
REMARK                            x       y       z     vdW  Elec       q    Type
REMARK                         _______ _______ _______ _____ _____    ______ ____
ROOT
ATOM      1  C   UNL     1       4.137  -8.723  -1.052  0.00  0.00    +0.160 A 
ATOM      2  N   UNL     1       2.892  -9.175  -1.093  0.00  0.00    -0.133 NA
ATOM      3  N   UNL     1       2.608 -10.372  -0.814  0.00  0.00    -0.125 NA
ATOM      4  C   UNL     1       3.534 -11.249  -0.463  0.00  0.00    +0.189 A 
ATOM      5  S   UNL     1       4.993 -10.215  -0.555  0.00  0.00    -0.024 S 
ATOM      6  N   UNL     1       3.410 -12.594  -0.123  0.00  0.00    -0.262 N 
ATOM      7  C   UNL     1       2.196 -13.181  -0.126  0.00  0.00    +0.237 C 
ATOM      8  O   UNL     1       1.212 -12.537  -0.424  0.00  0.00    -0.274 OA
ATOM      9  H   UNL     1       4.197 -13.109   0.115  0.00  0.00    +0.157 HD
ENDROOT
BRANCH   1  10
ATOM     10  S   UNL     1       4.770  -7.115  -1.394  0.00  0.00    -0.092 S 
BRANCH  10  11
ATOM     11  C   UNL     1       3.298  -6.148  -1.830  0.00  0.00    +0.111 C 
BRANCH  11  16
ATOM     12  C   UNL     1       4.852  -0.719  -3.058  0.00  0.00    +0.044 C 
ATOM     13  C   UNL     1       4.447  -2.135  -2.738  0.00  0.00    -0.050 A 
ATOM     14  C   UNL     1       4.404  -3.085  -3.741  0.00  0.00    +0.003 A 
ATOM     15  C   UNL     1       4.033  -4.384  -3.447  0.00  0.00    +0.005 A 
ATOM     16  C   UNL     1       3.704  -4.732  -2.150  0.00  0.00    -0.037 A 
ATOM     17  C   UNL     1       3.748  -3.782  -1.147  0.00  0.00    +0.005 A 
ATOM     18  C   UNL     1       4.123  -2.484  -1.440  0.00  0.00    +0.003 A 
ENDBRANCH  11  16
ENDBRANCH  10  11
ENDBRANCH   1  10
BRANCH   7  19
ATOM     19  C   UNL     1       2.062 -14.636   0.241  0.00  0.00    +0.211 C 
BRANCH  19  20
ATOM     20  N   UNL     1       0.654 -15.032   0.163  0.00  0.00    -0.246 N 
ATOM     21  C   UNL     1      -0.112 -14.909   1.234  0.00  0.00    +0.259 C 
ATOM     22  O   UNL     1       0.322 -14.475   2.285  0.00  0.00    -0.269 OA
ATOM     23  C   UNL     1      -1.523 -15.325   1.089  0.00  0.00    +0.077 C 
ATOM     24  C   UNL     1      -2.526 -15.313   2.002  0.00  0.00    +0.028 C 
ATOM     25  S   UNL     1      -1.544 -15.849  -0.620  0.00  0.00    -0.061 S 
ATOM     26  C   UNL     1       0.167 -15.508  -1.001  0.00  0.00    +0.121 C 
ATOM     27  S   UNL     1       0.991 -15.732  -2.485  0.00  0.00    -0.027 S 
BRANCH  24  28
ATOM     28  C   UNL     1      -3.813 -15.952   1.688  0.00  0.00    -0.024 A 
ATOM     29  C   UNL     1      -3.949 -16.732   0.534  0.00  0.00    +0.008 A 
ATOM     30  C   UNL     1      -5.159 -17.327   0.247  0.00  0.00    +0.004 A 
ATOM     31  C   UNL     1      -6.238 -17.154   1.097  0.00  0.00    -0.050 A 
ATOM     32  C   UNL     1      -6.112 -16.385   2.240  0.00  0.00    +0.004 A 
ATOM     33  C   UNL     1      -4.907 -15.788   2.545  0.00  0.00    +0.008 A 
ATOM     34  C   UNL     1      -7.557 -17.808   0.775  0.00  0.00    +0.044 C 
ENDBRANCH  24  28
ENDBRANCH  19  20
ENDBRANCH   7  19
TORSDOF 6
