REMARK  Name = ZINC12367990
REMARK  7 active torsions:
REMARK  status: ('A' for Active; 'I' for Inactive)
REMARK    1  A    between atoms: C_2  and  C_10
REMARK    2  A    between atoms: C_5  and  O_8
REMARK    3  A    between atoms: N_11  and  N_12
REMARK    4  A    between atoms: N_12  and  C_13
REMARK    5  A    between atoms: C_13  and  N_15
REMARK    6  A    between atoms: N_15  and  C_16
REMARK    7  A    between atoms: C_16  and  C_17
REMARK                            x       y       z     vdW  Elec       q    Type
REMARK                         _______ _______ _______ _____ _____    ______ ____
ROOT
ATOM      1  C   UNL     1      -2.528   4.679   0.021  0.00  0.00    +0.138 C 
ATOM      2  N   UNL     1      -3.646   4.022  -0.040  0.00  0.00    -0.188 NA
ENDROOT
BRANCH   1   4
ATOM      3  C   UNL     1      -0.045   4.616  -0.133  0.00  0.00    +0.028 A 
ATOM      4  C   UNL     1      -1.283   4.064  -0.473  0.00  0.00    -0.003 A 
ATOM      5  C   UNL     1      -1.337   2.923  -1.278  0.00  0.00    +0.028 A 
ATOM      6  C   UNL     1      -0.170   2.350  -1.738  0.00  0.00    +0.061 A 
ATOM      7  C   UNL     1       1.059   2.906  -1.402  0.00  0.00    +0.145 A 
ATOM      8  C   UNL     1       1.117   4.040  -0.602  0.00  0.00    +0.061 A 
ATOM      9 BR   UNL     1       2.792   4.791  -0.148  0.00  0.00    -0.046 Br
ATOM     10 BR   UNL     1      -0.241   0.806  -2.827  0.00  0.00    -0.046 Br
BRANCH   7  11
ATOM     11  O   UNL     1       2.206   2.339  -1.857  0.00  0.00    -0.505 OA
ATOM     12  H   UNL     1       2.573   1.665  -1.269  0.00  0.00    +0.292 HD
ENDBRANCH   7  11
ENDBRANCH   1   4
BRANCH   2  13
ATOM     13  N   UNL     1      -3.635   2.621  -0.048  0.00  0.00    -0.218 N 
ATOM     14  H   UNL     1      -2.802   2.142   0.087  0.00  0.00    +0.176 HD
BRANCH  13  15
ATOM     15  C   UNL     1      -4.781   1.939  -0.243  0.00  0.00    +0.150 C 
ATOM     16  S   UNL     1      -4.768   0.227  -0.253  0.00  0.00    -0.017 S 
BRANCH  15  17
ATOM     17  N   UNL     1      -5.938   2.605  -0.431  0.00  0.00    -0.323 N 
ATOM     18  H   UNL     1      -5.945   3.575  -0.426  0.00  0.00    +0.148 HD
BRANCH  17  19
ATOM     19  C   UNL     1      -7.183   1.864  -0.643  0.00  0.00    +0.134 C 
BRANCH  19  20
ATOM     20  C   UNL     1      -8.338   2.850  -0.829  0.00  0.00    +0.135 C 
ATOM     21  C   UNL     1      -9.681   2.093  -0.930  0.00  0.00    +0.035 C 
ATOM     22  C   UNL     1     -10.485   2.894  -1.978  0.00  0.00    +0.031 C 
ATOM     23  C   UNL     1      -9.533   4.039  -2.387  0.00  0.00    +0.160 C 
ATOM     24  O   UNL     1      -8.210   3.544  -2.089  0.00  0.00    -0.375 OA
ENDBRANCH  19  20
ENDBRANCH  17  19
ENDBRANCH  15  17
ENDBRANCH  13  15
ENDBRANCH   2  13
TORSDOF 7
