REMARK  Name = ZINC30956125
REMARK  14 active torsions:
REMARK  status: ('A' for Active; 'I' for Inactive)
REMARK    1  A    between atoms: C_1  and  C_2
REMARK    2  A    between atoms: C_5  and  C_8
REMARK    3  A    between atoms: N_10  and  C_11
REMARK    4  A    between atoms: C_11  and  C_13
REMARK    5  A    between atoms: C_11  and  C_16
REMARK    6  A    between atoms: C_13  and  C_14
REMARK    7  A    between atoms: C_13  and  C_15
REMARK    8  A    between atoms: N_18  and  N_19
REMARK    9  A    between atoms: C_20  and  C_21
REMARK   10  A    between atoms: C_23  and  O_32
REMARK   11  A    between atoms: C_24  and  O_28
REMARK   12  A    between atoms: O_28  and  C_29
REMARK   13  A    between atoms: C_29  and  C_30
REMARK   14  A    between atoms: O_32  and  C_33
REMARK                            x       y       z     vdW  Elec       q    Type
REMARK                         _______ _______ _______ _____ _____    ______ ____
ROOT
ATOM      1  C   UNL     1      -0.585  -2.211  -0.029  0.00  0.00    +0.253 C 
ATOM      2  O   UNL     1       0.377  -2.064  -0.753  0.00  0.00    -0.272 OA
ATOM      3  N   UNL     1      -1.333  -3.329  -0.120  0.00  0.00    -0.205 N 
ATOM      4  H   UNL     1      -2.233  -3.441   0.502  0.00  0.00    +0.177 HD
ENDROOT
BRANCH   3   5
ATOM      5  N   UNL     1      -0.965  -4.348  -1.009  0.00  0.00    -0.188 NA
ATOM      6  C   UNL     1      -1.734  -5.380  -1.167  0.00  0.00    +0.138 C 
BRANCH   6   7
ATOM      7  C   UNL     1      -3.172  -5.282  -0.857  0.00  0.00    -0.001 A 
ATOM      8  C   UNL     1      -3.954  -6.439  -0.786  0.00  0.00    +0.059 A 
ATOM      9  C   UNL     1      -5.300  -6.342  -0.489  0.00  0.00    +0.163 A 
ATOM     10  C   UNL     1      -5.879  -5.093  -0.275  0.00  0.00    +0.177 A 
ATOM     11  C   UNL     1      -5.105  -3.944  -0.351  0.00  0.00    +0.064 A 
ATOM     12  C   UNL     1      -3.758  -4.033  -0.641  0.00  0.00    +0.028 A 
ATOM     13 BR   UNL     1      -5.896  -2.252  -0.058  0.00  0.00    -0.046 Br
BRANCH   9  14
ATOM     14  O   UNL     1      -6.062  -7.466  -0.413  0.00  0.00    -0.491 OA
ATOM     15  C   UNL     1      -5.404  -8.713  -0.644  0.00  0.00    +0.277 C 
ENDBRANCH   9  14
BRANCH  10  16
ATOM     16  O   UNL     1      -7.205  -5.000   0.011  0.00  0.00    -0.475 OA
BRANCH  16  17
ATOM     17  C   UNL     1      -8.099  -4.862  -1.095  0.00  0.00    +0.317 C 
BRANCH  17  18
ATOM     18  C   UNL     1      -9.482  -4.776  -0.600  0.00  0.00    -0.065 C 
ATOM     19  C   UNL     1     -10.586  -4.708  -0.205  0.00  0.00    +0.007 C 
ENDBRANCH  17  18
ENDBRANCH  16  17
ENDBRANCH  10  16
ENDBRANCH   6   7
ENDBRANCH   3   5
BRANCH   1  20
ATOM     20  C   UNL     1      -0.944  -1.145   0.974  0.00  0.00    +0.163 C 
BRANCH  20  23
ATOM     21  C   UNL     1      -0.696   1.278   1.056  0.00  0.00    +0.245 C 
ATOM     22  O   UNL     1      -1.747   1.335   1.663  0.00  0.00    -0.270 OA
ATOM     23  N   UNL     1      -0.209   0.084   0.663  0.00  0.00    -0.300 N 
ATOM     24  H   UNL     1       0.740   0.032   0.110  0.00  0.00    +0.150 HD
BRANCH  21  29
ATOM     25  C   UNL     1       2.192   6.104  -0.162  0.00  0.00    +0.044 C 
ATOM     26  C   UNL     1       1.435   4.840   0.156  0.00  0.00    -0.050 A 
ATOM     27  C   UNL     1       0.241   4.909   0.852  0.00  0.00    +0.004 A 
ATOM     28  C   UNL     1      -0.456   3.756   1.147  0.00  0.00    +0.013 A 
ATOM     29  C   UNL     1       0.046   2.518   0.742  0.00  0.00    +0.037 A 
ATOM     30  C   UNL     1       1.253   2.455   0.045  0.00  0.00    +0.013 A 
ATOM     31  C   UNL     1       1.938   3.617  -0.249  0.00  0.00    +0.004 A 
ENDBRANCH  21  29
ENDBRANCH  20  23
BRANCH  20  32
ATOM     32  C   UNL     1      -0.571  -1.620   2.380  0.00  0.00    +0.012 C 
ATOM     33  C   UNL     1      -0.937  -0.538   3.397  0.00  0.00    +0.009 C 
ATOM     34  C   UNL     1      -1.337  -2.904   2.703  0.00  0.00    +0.009 C 
ENDBRANCH  20  32
ENDBRANCH   1  20
TORSDOF 10
