REMARK  Name = ZINC04546270
REMARK  7 active torsions:
REMARK  status: ('A' for Active; 'I' for Inactive)
REMARK    1  A    between atoms: C_1  and  C_2
REMARK    2  A    between atoms: C_15  and  O_30
REMARK    3  A    between atoms: C_18  and  C_29
REMARK    4  A    between atoms: C_23  and  C_24
REMARK    5  A    between atoms: C_23  and  O_28
REMARK    6  A    between atoms: C_24  and  C_26
REMARK    7  A    between atoms: C_26  and  O_27
REMARK                            x       y       z     vdW  Elec       q    Type
REMARK                         _______ _______ _______ _____ _____    ______ ____
ROOT
ATOM      1  C   UNL     1      -1.900   1.354   0.634  0.00  0.00    +0.016 C 
ATOM      2  C   UNL     1      -1.520   0.821  -0.748  0.00  0.00    -0.005 C 
ATOM      3  C   UNL     1      -1.529  -0.696  -0.686  0.00  0.00    +0.019 C 
ATOM      4  C   UNL     1      -2.944  -1.258  -0.814  0.00  0.00    +0.080 C 
ATOM      5  C   UNL     1      -3.513  -0.761  -2.129  0.00  0.00    +0.156 C 
ATOM      6  O   UNL     1      -4.037  -1.513  -2.923  0.00  0.00    -0.293 OA
ATOM      7  C   UNL     1      -3.394   0.678  -2.389  0.00  0.00    +0.046 C 
ATOM      8  C   UNL     1      -2.475   1.398  -1.747  0.00  0.00    -0.060 C 
ATOM      9  C   UNL     1      -2.410   2.885  -2.043  0.00  0.00    +0.032 C 
ATOM     10  C   UNL     1      -0.956   3.270  -2.322  0.00  0.00    +0.008 C 
ATOM     11  C   UNL     1      -0.084   2.836  -1.140  0.00  0.00    -0.001 C 
ATOM     12  C   UNL     1      -0.092   1.305  -1.031  0.00  0.00    +0.031 C 
ATOM     13  C   UNL     1       0.844   0.809   0.067  0.00  0.00    +0.119 C 
ATOM     14  C   UNL     1       2.268   1.360  -0.109  0.00  0.00    +0.041 C 
ATOM     15  C   UNL     1       2.164   2.873  -0.115  0.00  0.00    +0.009 C 
ATOM     16  C   UNL     1       1.351   3.271  -1.376  0.00  0.00    +0.002 C 
ATOM     17  C   UNL     1       1.588   4.784  -1.433  0.00  0.00    +0.008 C 
ATOM     18  C   UNL     1       3.096   4.914  -1.087  0.00  0.00    +0.043 C 
ATOM     19  C   UNL     1       3.470   3.644  -0.283  0.00  0.00    +0.131 C 
ATOM     20  C   UNL     1       1.440   3.349   1.147  0.00  0.00    +0.015 C 
ENDROOT
BRANCH  19  21
ATOM     21  C   UNL     1       4.029   4.024   1.064  0.00  0.00    +0.190 C 
ATOM     22  O   UNL     1       3.729   5.081   1.565  0.00  0.00    -0.292 OA
BRANCH  21  23
ATOM     23  C   UNL     1       4.961   3.086   1.786  0.00  0.00    +0.233 C 
BRANCH  23  24
ATOM     24  O   UNL     1       5.351   3.666   3.032  0.00  0.00    -0.387 OA
ATOM     25  H   UNL     1       5.953   3.116   3.551  0.00  0.00    +0.210 HD
ENDBRANCH  23  24
ENDBRANCH  21  23
ENDBRANCH  19  21
BRANCH  19  26
ATOM     26  O   UNL     1       4.418   2.859  -1.009  0.00  0.00    -0.380 OA
ATOM     27  H   UNL     1       5.269   3.298  -1.147  0.00  0.00    +0.211 HD
ENDBRANCH  19  26
BRANCH  13  28
ATOM     28  O   UNL     1       0.336   1.229   1.335  0.00  0.00    -0.391 OA
ATOM     29  H   UNL     1       0.868   0.938   2.088  0.00  0.00    +0.210 HD
ENDBRANCH  13  28
TORSDOF 5
