REMARK  Name = ZINC13124156
REMARK  5 active torsions:
REMARK  status: ('A' for Active; 'I' for Inactive)
REMARK    1  A    between atoms: C_6  and  C_7
REMARK    2  A    between atoms: C_10  and  C_28
REMARK    3  A    between atoms: C_15  and  C_17
REMARK    4  A    between atoms: N_19  and  C_20
REMARK    5  A    between atoms: C_20  and  C_21
REMARK                            x       y       z     vdW  Elec       q    Type
REMARK                         _______ _______ _______ _____ _____    ______ ____
ROOT
ATOM      1  C   UNL     1      -1.293  -0.775   0.010  0.00  0.00    +0.104 C 
ATOM      2  C   UNL     1      -1.616  -1.254  -1.409  0.00  0.00    +0.063 C 
ATOM      3  C   UNL     1      -2.966  -1.979  -1.421  0.00  0.00    +0.215 C 
ATOM      4  N   UNL     1      -2.977  -2.979  -0.349  0.00  0.00    -0.238 N 
ATOM      5  C   UNL     1      -2.125  -2.954   0.719  0.00  0.00    +0.119 A 
ATOM      6  C   UNL     1      -2.405  -4.014   1.503  0.00  0.00    +0.078 A 
ATOM      7  C   UNL     1      -3.470  -4.721   0.901  0.00  0.00    +0.149 A 
ATOM      8  N   UNL     1      -3.806  -4.091  -0.211  0.00  0.00    -0.164 NA
ATOM      9  N   UNL     1      -1.163  -1.953   0.889  0.00  0.00    -0.322 N 
ATOM     10  H   UNL     1      -0.451  -2.030   1.544  0.00  0.00    +0.148 HD
ENDROOT
BRANCH   1  16
ATOM     11  C   UNL     1      -0.017   1.378   0.010  0.00  0.00    +0.008 A 
ATOM     12  C   UNL     1       1.170   2.086   0.002  0.00  0.00    +0.038 A 
ATOM     13  C   UNL     1       2.379   1.410  -0.013  0.00  0.00    +0.123 A 
ATOM     14  C   UNL     1       2.396   0.026  -0.021  0.00  0.00    +0.038 A 
ATOM     15  C   UNL     1       1.208  -0.680  -0.013  0.00  0.00    +0.008 A 
ATOM     16  C   UNL     1       0.002  -0.004   0.002  0.00  0.00    -0.027 A 
ATOM     17  F   UNL     1       3.540   2.101  -0.021  0.00  0.00    -0.205 F 
ENDBRANCH   1  16
BRANCH   7  18
ATOM     18  C   UNL     1      -4.098  -5.952   1.424  0.00  0.00    +0.264 C 
ATOM     19  O   UNL     1      -3.701  -6.443   2.463  0.00  0.00    -0.268 OA
ATOM     20  N   UNL     1      -5.112  -6.530   0.749  0.00  0.00    -0.308 N 
ATOM     21  H   UNL     1      -5.428  -6.139  -0.080  0.00  0.00    +0.149 HD
BRANCH  20  22
ATOM     22  C   UNL     1      -5.735  -7.750   1.267  0.00  0.00    +0.136 C 
BRANCH  22  23
ATOM     23  C   UNL     1      -6.849  -8.196   0.319  0.00  0.00    +0.135 C 
ATOM     24  C   UNL     1      -7.591  -9.411   0.917  0.00  0.00    +0.035 C 
ATOM     25  C   UNL     1      -7.846 -10.292  -0.336  0.00  0.00    +0.031 C 
ATOM     26  C   UNL     1      -6.574  -9.994  -1.168  0.00  0.00    +0.160 C 
ATOM     27  O   UNL     1      -6.288  -8.604  -0.934  0.00  0.00    -0.375 OA
ENDBRANCH  22  23
ENDBRANCH  20  22
ENDBRANCH   7  18
BRANCH   3  28
ATOM     28  C   UNL     1      -3.165  -2.670  -2.772  0.00  0.00    +0.412 C 
ATOM     29  F   UNL     1      -2.138  -3.596  -2.978  0.00  0.00    -0.168 F 
ATOM     30  F   UNL     1      -4.398  -3.331  -2.780  0.00  0.00    -0.168 F 
ATOM     31  F   UNL     1      -3.142  -1.713  -3.792  0.00  0.00    -0.168 F 
ENDBRANCH   3  28
TORSDOF 5
