REMARK  Name = ZINC01811156
REMARK  10 active torsions:
REMARK  status: ('A' for Active; 'I' for Inactive)
REMARK    1  A    between atoms: C_1  and  C_2
REMARK    2  A    between atoms: C_2  and  C_3
REMARK    3  A    between atoms: C_2  and  O_4
REMARK    4  A    between atoms: O_4  and  C_5
REMARK    5  A    between atoms: C_5  and  C_7
REMARK    6  A    between atoms: C_11  and  N_12
REMARK    7  A    between atoms: C_13  and  C_15
REMARK    8  A    between atoms: C_20  and  C_35
REMARK    9  A    between atoms: C_23  and  C_26
REMARK   10  A    between atoms: C_29  and  N_32
REMARK                            x       y       z     vdW  Elec       q    Type
REMARK                         _______ _______ _______ _____ _____    ______ ____
ROOT
ATOM      1  C   UNL     1      -1.379   5.152  -1.539  0.00  0.00    +0.149 A 
ATOM      2  C   UNL     1      -1.173   5.004  -0.149  0.00  0.00    +0.078 A 
ATOM      3  C   UNL     1      -0.928   3.700   0.089  0.00  0.00    +0.119 A 
ATOM      4  N   UNL     1      -0.973   3.034  -1.103  0.00  0.00    -0.238 N 
ATOM      5  N   UNL     1      -1.258   3.963  -2.103  0.00  0.00    -0.164 NA
ATOM      6  C   UNL     1      -0.750   1.592  -1.237  0.00  0.00    +0.215 C 
ATOM      7  C   UNL     1      -0.013   1.086   0.008  0.00  0.00    +0.063 C 
ATOM      8  C   UNL     1      -0.726   1.578   1.272  0.00  0.00    +0.104 C 
ATOM      9  N   UNL     1      -0.667   3.053   1.300  0.00  0.00    -0.322 N 
ATOM     10  H   UNL     1      -0.427   3.576   2.238  0.00  0.00    +0.148 HD
ENDROOT
BRANCH   8  11
ATOM     11  C   UNL     1      -0.038   1.022   2.491  0.00  0.00    -0.027 A 
ATOM     12  C   UNL     1       1.124   1.608   2.957  0.00  0.00    +0.008 A 
ATOM     13  C   UNL     1       1.753   1.101   4.078  0.00  0.00    +0.033 A 
ATOM     14  C   UNL     1       1.226   0.001   4.728  0.00  0.00    +0.126 A 
ATOM     15  C   UNL     1       0.067  -0.589   4.260  0.00  0.00    +0.033 A 
ATOM     16  C   UNL     1      -0.565  -0.078   3.141  0.00  0.00    +0.008 A 
BRANCH  14  17
ATOM     17  N   UNL     1       1.903  -0.546   5.925  0.00  0.00    +0.056 N 
ATOM     18  O   UNL     1       1.439  -1.516   6.498  0.00  0.00    -0.126 OA
ATOM     19  O   UNL     1       2.924  -0.027   6.338  0.00  0.00    -0.126 OA
ENDBRANCH  14  17
ENDBRANCH   8  11
BRANCH   1  21
ATOM     20  N   UNL     1      -1.854   6.421  -3.577  0.00  0.00    -0.274 N 
ATOM     21  C   UNL     1      -1.678   6.417  -2.241  0.00  0.00    +0.269 C 
ATOM     22  O   UNL     1      -1.766   7.455  -1.613  0.00  0.00    -0.268 OA
ATOM     23  H   UNL     1      -1.775   5.483  -4.145  0.00  0.00    +0.156 HD
BRANCH  20  28
ATOM     24  C   UNL     1      -2.346   7.812  -5.592  0.00  0.00    +0.091 A 
ATOM     25  C   UNL     1      -2.627   9.170  -6.030  0.00  0.00    -0.021 A 
ATOM     26  C   UNL     1      -2.651  10.097  -5.049  0.00  0.00    -0.004 A 
ATOM     27  S   UNL     1      -2.315   9.194  -3.563  0.00  0.00    -0.077 S 
ATOM     28  C   UNL     1      -2.135   7.607  -4.235  0.00  0.00    +0.087 A 
ATOM     29  C   UNL     1      -2.911  11.564  -5.199  0.00  0.00    +0.043 C 
ATOM     30  C   UNL     1      -2.780  11.930  -6.685  0.00  0.00    +0.005 C 
ATOM     31  C   UNL     1      -3.578  10.918  -7.513  0.00  0.00    +0.005 C 
ATOM     32  C   UNL     1      -2.882   9.556  -7.481  0.00  0.00    +0.037 C 
BRANCH  24  33
ATOM     33  C   UNL     1      -2.288   6.703  -6.546  0.00  0.00    +0.342 C 
ATOM     34  O   UNL     1      -3.295   6.073  -6.808  0.00  0.00    -0.245 OA
BRANCH  33  35
ATOM     35  O   UNL     1      -1.118   6.380  -7.135  0.00  0.00    -0.458 OA
BRANCH  35  37
ATOM     36  C   UNL     1      -1.432   5.792  -9.477  0.00  0.00    +0.052 C 
ATOM     37  C   UNL     1      -1.135   5.270  -8.070  0.00  0.00    +0.171 C 
ATOM     38  C   UNL     1       0.228   4.575  -8.061  0.00  0.00    +0.052 C 
ENDBRANCH  35  37
ENDBRANCH  33  35
ENDBRANCH  24  33
ENDBRANCH  20  28
ENDBRANCH   1  21
BRANCH   6  39
ATOM     39  C   UNL     1       0.096   1.317  -2.481  0.00  0.00    +0.412 C 
ATOM     40  F   UNL     1       0.319  -0.059  -2.600  0.00  0.00    -0.168 F 
ATOM     41  F   UNL     1      -0.579   1.780  -3.616  0.00  0.00    -0.168 F 
ATOM     42  F   UNL     1       1.323   1.980  -2.366  0.00  0.00    -0.168 F 
ENDBRANCH   6  39
TORSDOF 8
