REMARK  Name = ZINC02431986
REMARK  7 active torsions:
REMARK  status: ('A' for Active; 'I' for Inactive)
REMARK    1  A    between atoms: C_1  and  C_2
REMARK    2  A    between atoms: C_5  and  S_9
REMARK    3  A    between atoms: C_7  and  C_8
REMARK    4  A    between atoms: S_9  and  C_12
REMARK    5  A    between atoms: N_23  and  C_26
REMARK    6  A    between atoms: C_24  and  N_25
REMARK    7  A    between atoms: C_26  and  C_27
REMARK                            x       y       z     vdW  Elec       q    Type
REMARK                         _______ _______ _______ _____ _____    ______ ____
ROOT
ATOM      1  C   UNL     1      -2.434   1.045   0.020  0.00  0.00    +0.160 A 
ATOM      2  C   UNL     1      -3.420   2.060   0.030  0.00  0.00    +0.135 A 
ATOM      3  C   UNL     1      -2.688   3.333   0.033  0.00  0.00    +0.163 A 
ATOM      4  N   UNL     1      -3.353   4.466   0.042  0.00  0.00    -0.226 NA
ATOM      5  C   UNL     1      -4.692   4.453   0.049  0.00  0.00    +0.092 A 
ATOM      6  C   UNL     1      -5.412   5.662   0.059  0.00  0.00    +0.030 A 
ATOM      7  C   UNL     1      -6.772   5.641   0.067  0.00  0.00    +0.002 A 
ATOM      8  C   UNL     1      -7.470   4.434   0.065  0.00  0.00    +0.002 A 
ATOM      9  C   UNL     1      -6.810   3.245   0.055  0.00  0.00    +0.030 A 
ATOM     10  C   UNL     1      -5.402   3.226   0.047  0.00  0.00    +0.090 A 
ATOM     11  N   UNL     1      -4.743   2.062   0.036  0.00  0.00    -0.240 NA
ATOM     12  N   UNL     1      -1.348   3.007   0.030  0.00  0.00    -0.309 N 
ATOM     13  C   UNL     1      -1.218   1.641   0.017  0.00  0.00    +0.126 A 
ENDROOT
BRANCH   1  14
ATOM     14  S   UNL     1      -2.735  -0.691   0.012  0.00  0.00    +0.030 S 
ATOM     15  O   UNL     1      -4.034  -0.875  -0.533  0.00  0.00    -0.164 OA
ATOM     16  O   UNL     1      -1.581  -1.301  -0.548  0.00  0.00    -0.164 OA
BRANCH  14  21
ATOM     17  C   UNL     1      -3.011  -2.480   5.768  0.00  0.00    +0.044 C 
ATOM     18  C   UNL     1      -2.942  -2.033   4.330  0.00  0.00    -0.047 A 
ATOM     19  C   UNL     1      -4.090  -1.623   3.678  0.00  0.00    +0.005 A 
ATOM     20  C   UNL     1      -4.027  -1.214   2.359  0.00  0.00    +0.027 A 
ATOM     21  C   UNL     1      -2.816  -1.213   1.693  0.00  0.00    +0.094 A 
ATOM     22  C   UNL     1      -1.669  -1.628   2.343  0.00  0.00    +0.031 A 
ATOM     23  C   UNL     1      -1.731  -2.034   3.663  0.00  0.00    -0.046 A 
ATOM     24  C   UNL     1      -0.480  -2.482   4.374  0.00  0.00    +0.044 C 
ENDBRANCH  14  21
ENDBRANCH   1  14
BRANCH  13  25
ATOM     25  N   UNL     1      -0.011   0.966   0.007  0.00  0.00    -0.343 N 
ATOM     26  H   UNL     1       0.002  -0.004   0.002  0.00  0.00    +0.144 HD
ATOM     27  H   UNL     1       0.822   1.462   0.002  0.00  0.00    +0.144 HD
ENDBRANCH  13  25
BRANCH  12  28
ATOM     28  C   UNL     1      -0.241   3.966   0.037  0.00  0.00    +0.156 C 
BRANCH  28  29
ATOM     29  C   UNL     1       0.142   4.314  -1.403  0.00  0.00    +0.138 C 
ATOM     30  C   UNL     1       1.277   5.369  -1.418  0.00  0.00    +0.035 C 
ATOM     31  C   UNL     1       1.919   5.091  -2.804  0.00  0.00    +0.031 C 
ATOM     32  C   UNL     1       1.749   3.563  -2.943  0.00  0.00    +0.160 C 
ATOM     33  O   UNL     1       0.691   3.163  -2.064  0.00  0.00    -0.375 OA
ENDBRANCH  28  29
ENDBRANCH  12  28
TORSDOF 5
