REMARK  Name = ZINC40180275
REMARK  6 active torsions:
REMARK  status: ('A' for Active; 'I' for Inactive)
REMARK    1  A    between atoms: C_1  and  C_2
REMARK    2  A    between atoms: N_4  and  C_5
REMARK    3  A    between atoms: C_8  and  N_11
REMARK    4  A    between atoms: C_12  and  C_14
REMARK    5  A    between atoms: C_17  and  N_20
REMARK    6  A    between atoms: C_21  and  C_25
REMARK                            x       y       z     vdW  Elec       q    Type
REMARK                         _______ _______ _______ _____ _____    ______ ____
ROOT
ATOM      1  C   UNL     1       1.203  -8.302  -2.231  0.00  0.00    +0.037 A 
ATOM      2  C   UNL     1       1.181  -9.212  -1.172  0.00  0.00    +0.015 A 
ATOM      3  C   UNL     1       1.205 -10.565  -1.429  0.00  0.00    +0.028 A 
ATOM      4  C   UNL     1       1.252 -11.025  -2.740  0.00  0.00    +0.068 A 
ATOM      5  C   UNL     1       1.275 -10.121  -3.797  0.00  0.00    +0.028 A 
ATOM      6  C   UNL     1       1.245  -8.767  -3.548  0.00  0.00    +0.015 A 
ENDROOT
BRANCH   4   7
ATOM      7  N   UNL     1       1.277 -12.399  -2.997  0.00  0.00    -0.212 N 
ATOM      8  C   UNL     1       2.090 -13.057  -3.884  0.00  0.00    +0.095 A 
ATOM      9  C   UNL     1       1.766 -14.378  -3.798  0.00  0.00    +0.165 A 
ATOM     10  N   UNL     1       0.797 -14.525  -2.897  0.00  0.00    -0.137 NA
ATOM     11  N   UNL     1       0.480 -13.384  -2.394  0.00  0.00    -0.060 NA
BRANCH   8  12
ATOM     12  C   UNL     1       3.115 -12.451  -4.762  0.00  0.00    +0.002 A 
ATOM     13  C   UNL     1       3.719 -11.245  -4.406  0.00  0.00    +0.011 A 
ATOM     14  C   UNL     1       4.675 -10.685  -5.228  0.00  0.00    +0.020 A 
ATOM     15  C   UNL     1       5.035 -11.319  -6.406  0.00  0.00    +0.041 A 
ATOM     16  C   UNL     1       4.440 -12.516  -6.765  0.00  0.00    +0.020 A 
ATOM     17  C   UNL     1       3.487 -13.088  -5.947  0.00  0.00    +0.011 A 
ATOM     18 CL   UNL     1       6.238 -10.608  -7.436  0.00  0.00    -0.084 Cl
ENDBRANCH   8  12
ENDBRANCH   4   7
BRANCH   1  20
ATOM     19  N   UNL     1       1.138  -6.403  -0.689  0.00  0.00    -0.282 N 
ATOM     20  C   UNL     1       1.177  -6.850  -1.960  0.00  0.00    +0.248 C 
ATOM     21  O   UNL     1       1.192  -6.059  -2.883  0.00  0.00    -0.270 OA
ATOM     22  H   UNL     1       1.056  -7.032   0.044  0.00  0.00    +0.155 HD
BRANCH  19  26
ATOM     23  C   UNL     1       1.365  -2.313   0.089  0.00  0.00    +0.033 A 
ATOM     24  C   UNL     1       0.697  -2.769  -1.040  0.00  0.00    +0.025 A 
ATOM     25  C   UNL     1       0.621  -4.123  -1.298  0.00  0.00    +0.025 A 
ATOM     26  C   UNL     1       1.214  -5.030  -0.428  0.00  0.00    +0.034 A 
ATOM     27  C   UNL     1       1.883  -4.574   0.701  0.00  0.00    +0.025 A 
ATOM     28  C   UNL     1       1.963  -3.219   0.955  0.00  0.00    +0.025 A 
BRANCH  23  32
ATOM     29  C   UNL     1       2.679   1.071   1.089  0.00  0.00    +0.109 C 
ATOM     30  C   UNL     1       2.554  -0.420   0.907  0.00  0.00    +0.214 C 
ATOM     31  O   UNL     1       3.454  -1.152   1.260  0.00  0.00    -0.276 OA
ATOM     32  N   UNL     1       1.441  -0.939   0.351  0.00  0.00    -0.286 N 
ATOM     33  H   UNL     1       0.693  -0.362   0.132  0.00  0.00    +0.155 HD
ENDBRANCH  23  32
ENDBRANCH  19  26
ENDBRANCH   1  20
TORSDOF 5
