REMARK  Name = ZINC11744320
REMARK  5 active torsions:
REMARK  status: ('A' for Active; 'I' for Inactive)
REMARK    1  A    between atoms: C_1  and  C_2
REMARK    2  A    between atoms: N_4  and  C_5
REMARK    3  A    between atoms: C_5  and  C_6
REMARK    4  A    between atoms: C_9  and  C_11
REMARK    5  A    between atoms: C_17  and  C_19
REMARK                            x       y       z     vdW  Elec       q    Type
REMARK                         _______ _______ _______ _____ _____    ______ ____
ROOT
ATOM      1  C   UNL     1       2.184   1.101  -0.013  0.00  0.00    +0.087 A 
ATOM      2  C   UNL     1       1.778  -0.206  -0.016  0.00  0.00    +0.077 A 
ATOM      3  S   UNL     1       0.002  -0.004   0.002  0.00  0.00    -0.060 S 
ATOM      4  C   UNL     1      -0.022   1.783   0.012  0.00  0.00    +0.165 A 
ATOM      5  N   UNL     1       1.267   2.066   0.001  0.00  0.00    -0.224 NA
ATOM      6  N   UNL     1      -1.111   2.646   0.022  0.00  0.00    -0.264 N 
ATOM      7  C   UNL     1      -2.364   2.151   0.026  0.00  0.00    +0.222 C 
ATOM      8  O   UNL     1      -2.542   0.951   0.021  0.00  0.00    -0.275 OA
ATOM      9  H   UNL     1      -0.969   3.606   0.026  0.00  0.00    +0.157 HD
ENDROOT
BRANCH   7  10
ATOM     10  C   UNL     1      -3.545   3.087   0.037  0.00  0.00    +0.078 C 
ATOM     11  C   UNL     1      -3.495   3.959   1.295  0.00  0.00    +0.032 C 
ATOM     12  C   UNL     1      -4.728   4.865   1.331  0.00  0.00    +0.110 C 
ATOM     13  N   UNL     1      -5.943   4.040   1.333  0.00  0.00    -0.285 N 
ATOM     14  C   UNL     1      -6.036   3.229   0.112  0.00  0.00    +0.110 C 
ATOM     15  C   UNL     1      -4.842   2.275   0.040  0.00  0.00    +0.032 C 
ATOM     16  C   UNL     1      -7.067   4.818   1.496  0.00  0.00    +0.291 A 
ATOM     17  N   UNL     1      -7.269   5.643   2.491  0.00  0.00    -0.195 NA
ATOM     18  C   UNL     1      -8.482   6.240   2.323  0.00  0.00    +0.111 A 
ATOM     19  C   UNL     1      -9.201   7.184   3.057  0.00  0.00    +0.031 A 
ATOM     20  C   UNL     1     -10.437   7.598   2.611  0.00  0.00    +0.002 A 
ATOM     21  C   UNL     1     -10.970   7.082   1.440  0.00  0.00    +0.004 A 
ATOM     22  C   UNL     1     -10.269   6.147   0.705  0.00  0.00    +0.048 A 
ATOM     23  C   UNL     1      -9.024   5.720   1.138  0.00  0.00    +0.157 A 
ATOM     24  O   UNL     1      -8.114   4.845   0.653  0.00  0.00    -0.424 OA
ENDBRANCH   7  10
BRANCH   1  28
ATOM     25  C   UNL     1       6.317   1.587  -0.051  0.00  0.00    +0.007 A 
ATOM     26  C   UNL     1       5.599   2.737  -0.037  0.00  0.00    +0.013 A 
ATOM     27  C   UNL     1       4.221   2.670  -0.030  0.00  0.00    +0.018 A 
ATOM     28  C   UNL     1       3.624   1.438  -0.025  0.00  0.00    +0.038 A 
ATOM     29  S   UNL     1       5.035   0.345  -0.046  0.00  0.00    -0.090 S 
BRANCH  25  30
ATOM     30  C   UNL     1       7.813   1.404  -0.068  0.00  0.00    +0.146 C 
BRANCH  30  34
ATOM     31  C   UNL     1      10.143   1.105   2.955  0.00  0.00    +0.109 C 
ATOM     32  C   UNL     1       9.629   1.174   1.540  0.00  0.00    +0.210 C 
ATOM     33  O   UNL     1      10.402   1.084   0.609  0.00  0.00    -0.276 OA
ATOM     34  N   UNL     1       8.312   1.336   1.308  0.00  0.00    -0.311 N 
ATOM     35  H   UNL     1       7.694   1.409   2.052  0.00  0.00    +0.149 HD
ENDBRANCH  30  34
ENDBRANCH  25  30
ENDBRANCH   1  28
TORSDOF 4
