REMARK  Name = ZINC17098090
REMARK  9 active torsions:
REMARK  status: ('A' for Active; 'I' for Inactive)
REMARK    1  A    between atoms: C_1  and  C_2
REMARK    2  A    between atoms: C_3  and  C_31
REMARK    3  A    between atoms: C_5  and  N_16
REMARK    4  A    between atoms: C_6  and  C_7
REMARK    5  A    between atoms: N_9  and  C_10
REMARK    6  A    between atoms: C_17  and  C_19
REMARK    7  A    between atoms: C_22  and  C_30
REMARK    8  A    between atoms: C_23  and  C_29
REMARK    9  A    between atoms: C_25  and  C_27
REMARK                            x       y       z     vdW  Elec       q    Type
REMARK                         _______ _______ _______ _____ _____    ______ ____
ROOT
ATOM      1  C   UNL     1      -1.222  -0.801   0.742  0.00  0.00    +0.045 C 
ATOM      2  C   UNL     1       0.037  -0.015   0.481  0.00  0.00    -0.027 A 
ATOM      3  C   UNL     1      -0.002   1.302   0.209  0.00  0.00    -0.008 A 
ATOM      4  S   UNL     1       1.714   1.725  -0.012  0.00  0.00    -0.078 S 
ATOM      5  C   UNL     1       2.432   0.172   0.257  0.00  0.00    +0.084 A 
ATOM      6  C   UNL     1       1.336  -0.644   0.512  0.00  0.00    +0.068 A 
ATOM      7  C   UNL     1      -1.207   2.201   0.109  0.00  0.00    +0.052 C 
ENDROOT
BRANCH   6   8
ATOM      8  C   UNL     1       1.492  -2.073   0.798  0.00  0.00    +0.247 C 
ATOM      9  O   UNL     1       1.477  -2.881  -0.112  0.00  0.00    -0.270 OA
ATOM     10  N   UNL     1       1.652  -2.493   2.069  0.00  0.00    -0.308 N 
ATOM     11  H   UNL     1       1.664  -1.849   2.794  0.00  0.00    +0.149 HD
BRANCH  10  12
ATOM     12  C   UNL     1       1.808  -3.921   2.355  0.00  0.00    +0.073 C 
ATOM     13  C   UNL     1       0.428  -4.572   2.469  0.00  0.00    +0.022 C 
ATOM     14  C   UNL     1       0.591  -6.064   2.767  0.00  0.00    +0.002 C 
ATOM     15  C   UNL     1       1.348  -6.240   4.085  0.00  0.00    +0.000 C 
ATOM     16  C   UNL     1       2.728  -5.589   3.971  0.00  0.00    +0.002 C 
ATOM     17  C   UNL     1       2.565  -4.098   3.672  0.00  0.00    +0.022 C 
ENDBRANCH  10  12
ENDBRANCH   6   8
BRANCH   5  18
ATOM     18  N   UNL     1       3.774  -0.173   0.225  0.00  0.00    -0.279 N 
ATOM     19  C   UNL     1       4.705   0.764  -0.043  0.00  0.00    +0.222 C 
ATOM     20  O   UNL     1       4.368   1.910  -0.257  0.00  0.00    -0.275 OA
ATOM     21  H   UNL     1       4.044  -1.089   0.396  0.00  0.00    +0.155 HD
BRANCH  19  22
ATOM     22  C   UNL     1       6.164   0.389  -0.077  0.00  0.00    +0.093 C 
ATOM     23  C   UNL     1       7.000   1.519   0.528  0.00  0.00    +0.044 C 
ATOM     24  C   UNL     1       7.001   2.708  -0.387  0.00  0.00    -0.073 C 
ATOM     25  C   UNL     1       6.662   2.663  -1.636  0.00  0.00    -0.073 C 
ATOM     26  C   UNL     1       6.212   1.417  -2.340  0.00  0.00    +0.046 C 
ATOM     27  C   UNL     1       6.609   0.181  -1.530  0.00  0.00    +0.118 C 
ATOM     28  C   UNL     1       6.725   3.941  -2.432  0.00  0.00    +0.039 C 
ATOM     29  C   UNL     1       7.423   4.038   0.182  0.00  0.00    +0.039 C 
BRANCH  27  30
ATOM     30  C   UNL     1       5.933  -1.041  -2.097  0.00  0.00    +0.360 C 
ATOM     31  O   UNL     1       5.171  -1.682  -1.412  0.00  0.00    -0.246 OA
ATOM     32  O   UNL     1       6.176  -1.416  -3.363  0.00  0.00    -0.246 OA
ENDBRANCH  27  30
ENDBRANCH  19  22
ENDBRANCH   5  18
TORSDOF 5
