REMARK  Name = ZINC24358570
REMARK  6 active torsions:
REMARK  status: ('A' for Active; 'I' for Inactive)
REMARK    1  A    between atoms: C_6  and  C_10
REMARK    2  A    between atoms: C_10  and  S_11
REMARK    3  A    between atoms: S_11  and  C_12
REMARK    4  A    between atoms: C_15  and  C_18
REMARK    5  A    between atoms: N_20  and  N_21
REMARK    6  A    between atoms: C_22  and  C_24
REMARK                            x       y       z     vdW  Elec       q    Type
REMARK                         _______ _______ _______ _____ _____    ______ ____
ROOT
ATOM      1  C   UNL     1       5.496  12.349   1.149  0.00  0.00    +0.260 C 
ATOM      2  O   UNL     1       5.846  12.963   2.140  0.00  0.00    -0.269 OA
ATOM      3  N   UNL     1       5.755  12.845  -0.077  0.00  0.00    -0.230 N 
ATOM      4  H   UNL     1       5.439  12.290  -0.972  0.00  0.00    +0.173 HD
ENDROOT
BRANCH   1   8
ATOM      5  C   UNL     1       3.459   8.651   1.555  0.00  0.00    +0.008 A 
ATOM      6  C   UNL     1       3.731   9.159   0.287  0.00  0.00    +0.015 A 
ATOM      7  C   UNL     1       4.385  10.357   0.153  0.00  0.00    +0.014 A 
ATOM      8  C   UNL     1       4.788  11.063   1.290  0.00  0.00    +0.038 A 
ATOM      9  C   UNL     1       4.518  10.548   2.562  0.00  0.00    +0.014 A 
ATOM     10  C   UNL     1       3.860   9.352   2.690  0.00  0.00    +0.015 A 
BRANCH   5  11
ATOM     11  S   UNL     1       2.613   7.115   1.724  0.00  0.00    -0.119 S 
BRANCH  11  12
ATOM     12  C   UNL     1       2.304   6.594   0.014  0.00  0.00    +0.131 C 
BRANCH  12  18
ATOM     13  C   UNL     1      -1.240   1.758   0.018  0.00  0.00    +0.005 A 
ATOM     14  C   UNL     1      -0.013   1.076   0.008  0.00  0.00    +0.018 A 
ATOM     15  C   UNL     1       1.149   1.763   0.001  0.00  0.00    +0.092 A 
ATOM     16  N   UNL     1       1.148   3.128   0.007  0.00  0.00    -0.306 N 
ATOM     17  C   UNL     1       2.156   4.054   0.002  0.00  0.00    +0.116 A 
ATOM     18  C   UNL     1       1.576   5.274   0.014  0.00  0.00    +0.070 A 
ATOM     19  N   UNL     1       0.250   5.117   0.026  0.00  0.00    -0.232 NA
ATOM     20  C   UNL     1      -0.034   3.822   0.022  0.00  0.00    +0.138 A 
ATOM     21  C   UNL     1      -1.255   3.119   0.031  0.00  0.00    +0.047 A 
ENDBRANCH  12  18
ENDBRANCH  11  12
ENDBRANCH   5  11
ENDBRANCH   1   8
BRANCH   3  22
ATOM     22  N   UNL     1       6.428  14.066  -0.211  0.00  0.00    -0.234 N 
ATOM     23  C   UNL     1       6.687  14.562  -1.437  0.00  0.00    +0.235 C 
ATOM     24  O   UNL     1       6.338  13.950  -2.424  0.00  0.00    -0.274 OA
ATOM     25  H   UNL     1       6.744  14.621   0.685  0.00  0.00    +0.173 HD
BRANCH  23  26
ATOM     26  C   UNL     1       7.410  15.876  -1.581  0.00  0.00    +0.049 C 
ATOM     27  C   UNL     1       6.601  16.981  -0.899  0.00  0.00    +0.019 C 
ATOM     28  C   UNL     1       7.335  18.315  -1.046  0.00  0.00    -0.009 C 
ATOM     29  C   UNL     1       7.501  18.646  -2.530  0.00  0.00    +0.007 C 
ATOM     30  C   UNL     1       8.310  17.541  -3.212  0.00  0.00    -0.009 C 
ATOM     31  C   UNL     1       7.576  16.207  -3.066  0.00  0.00    +0.019 C 
ATOM     32  C   UNL     1       9.689  17.439  -2.555  0.00  0.00    +0.007 C 
ATOM     33  C   UNL     1       9.523  17.109  -1.071  0.00  0.00    -0.009 C 
ATOM     34  C   UNL     1       8.714  18.214  -0.389  0.00  0.00    +0.007 C 
ATOM     35  C   UNL     1       8.789  15.774  -0.924  0.00  0.00    +0.019 C 
ENDBRANCH  23  26
ENDBRANCH   3  22
TORSDOF 6
