REMARK  Name = ZINC44452746
REMARK  7 active torsions:
REMARK  status: ('A' for Active; 'I' for Inactive)
REMARK    1  A    between atoms: C_1  and  N_2
REMARK    2  A    between atoms: N_2  and  C_3
REMARK    3  A    between atoms: C_7  and  C_9
REMARK    4  A    between atoms: C_13  and  N_14
REMARK    5  A    between atoms: C_15  and  C_17
REMARK    6  A    between atoms: C_26  and  O_27
REMARK    7  A    between atoms: O_27  and  C_28
REMARK                            x       y       z     vdW  Elec       q    Type
REMARK                         _______ _______ _______ _____ _____    ______ ____
ROOT
ATOM      1  C   UNL     1       0.036  -4.152  -2.355  0.00  0.00    +0.069 A 
ATOM      2  C   UNL     1      -1.202  -4.930  -2.353  0.00  0.00    -0.023 A 
ATOM      3  C   UNL     1      -1.013  -6.261  -2.360  0.00  0.00    -0.004 A 
ATOM      4  S   UNL     1       0.751  -6.464  -2.372  0.00  0.00    -0.077 S 
ATOM      5  C   UNL     1       1.227  -4.856  -2.371  0.00  0.00    +0.085 A 
ATOM      6  C   UNL     1      -2.316  -7.013  -2.354  0.00  0.00    +0.043 C 
ATOM      7  C   UNL     1      -3.366  -5.971  -1.908  0.00  0.00    +0.010 C 
ATOM      8  C   UNL     1      -2.703  -4.649  -2.348  0.00  0.00    +0.037 C 
ENDROOT
BRANCH   1  15
ATOM      9  C   UNL     1      -0.018   1.461   0.010  0.00  0.00    +0.133 C 
ATOM     10  N   UNL     1       0.002  -0.004   0.002  0.00  0.00    -0.291 N 
ATOM     11  C   UNL     1       0.024  -0.743   1.267  0.00  0.00    +0.133 C 
ATOM     12  C   UNL     1       0.000  -0.672  -1.169  0.00  0.00    +0.308 C 
ATOM     13  O   UNL     1      -0.018  -0.058  -2.218  0.00  0.00    -0.252 OA
ATOM     14  N   UNL     1       0.018  -2.019  -1.176  0.00  0.00    -0.236 N 
ATOM     15  C   UNL     1       0.016  -2.687  -2.347  0.00  0.00    +0.254 C 
ATOM     16  O   UNL     1      -0.002  -2.073  -3.397  0.00  0.00    -0.270 OA
ATOM     17  H   UNL     1       0.033  -2.509  -0.339  0.00  0.00    +0.159 HD
ENDBRANCH   1  15
BRANCH   5  18
ATOM     18  N   UNL     1       2.516  -4.349  -2.381  0.00  0.00    -0.275 N 
ATOM     19  C   UNL     1       3.570  -5.189  -2.396  0.00  0.00    +0.252 C 
ATOM     20  O   UNL     1       3.389  -6.392  -2.401  0.00  0.00    -0.270 OA
ATOM     21  H   UNL     1       2.661  -3.390  -2.377  0.00  0.00    +0.156 HD
BRANCH  19  22
ATOM     22  C   UNL     1       4.943  -4.650  -2.407  0.00  0.00    +0.079 A 
ATOM     23  C   UNL     1       5.144  -3.279  -2.395  0.00  0.00    +0.025 A 
ATOM     24  C   UNL     1       6.452  -2.772  -2.406  0.00  0.00    -0.017 A 
ATOM     25  C   UNL     1       6.693  -1.386  -2.394  0.00  0.00    +0.008 A 
ATOM     26  C   UNL     1       7.973  -0.925  -2.404  0.00  0.00    +0.001 A 
ATOM     27  C   UNL     1       9.053  -1.806  -2.426  0.00  0.00    +0.001 A 
ATOM     28  C   UNL     1       8.859  -3.153  -2.437  0.00  0.00    +0.008 A 
ATOM     29  C   UNL     1       7.551  -3.669  -2.427  0.00  0.00    -0.014 A 
ATOM     30  C   UNL     1       7.320  -5.055  -2.439  0.00  0.00    +0.055 A 
ATOM     31  C   UNL     1       6.043  -5.534  -2.422  0.00  0.00    +0.133 A 
BRANCH  31  32
ATOM     32  O   UNL     1       5.828  -6.874  -2.427  0.00  0.00    -0.494 OA
ATOM     33  C   UNL     1       6.983  -7.716  -2.443  0.00  0.00    +0.277 C 
ENDBRANCH  31  32
ENDBRANCH  19  22
ENDBRANCH   5  18
TORSDOF 4
