REMARK  Name = ZINC57381976
REMARK  5 active torsions:
REMARK  status: ('A' for Active; 'I' for Inactive)
REMARK    1  A    between atoms: C_1  and  C_2
REMARK    2  A    between atoms: C_6  and  C_7
REMARK    3  A    between atoms: N_9  and  N_10
REMARK    4  A    between atoms: C_11  and  C_13
REMARK    5  A    between atoms: C_20  and  C_23
REMARK                            x       y       z     vdW  Elec       q    Type
REMARK                         _______ _______ _______ _____ _____    ______ ____
ROOT
ATOM      1  N   UNL     1       0.059  -0.732   4.900  0.00  0.00    -0.230 N 
ATOM      2  C   UNL     1       0.081  -1.625   5.909  0.00  0.00    +0.267 C 
ATOM      3  O   UNL     1       0.094  -2.817   5.666  0.00  0.00    -0.268 OA
ATOM      4  H   UNL     1       0.049   0.219   5.094  0.00  0.00    +0.173 HD
ENDROOT
BRANCH   2   5
ATOM      5  C   UNL     1       0.088  -1.160   7.299  0.00  0.00    +0.076 A 
ATOM      6  C   UNL     1       0.115  -1.901   8.466  0.00  0.00    +0.024 A 
ATOM      7  C   UNL     1       0.116  -1.192   9.658  0.00  0.00    -0.036 A 
ATOM      8  C   UNL     1       0.089   0.169   9.562  0.00  0.00    -0.006 A 
ATOM      9  S   UNL     1       0.073   0.509   7.927  0.00  0.00    -0.088 S 
ATOM     10  C   UNL     1       0.082   1.149  10.698  0.00  0.00    +0.043 C 
ATOM     11  C   UNL     1      -0.270   0.395  11.988  0.00  0.00    +0.009 C 
ATOM     12  C   UNL     1       0.596  -0.865  12.074  0.00  0.00    -0.009 C 
ATOM     13  C   UNL     1       0.144  -1.878  11.022  0.00  0.00    +0.039 C 
ATOM     14  C   UNL     1       0.456  -1.483  13.466  0.00  0.00    +0.008 C 
ENDBRANCH   2   5
BRANCH   1  17
ATOM     15  C   UNL     1       0.031  -0.283   2.562  0.00  0.00    +0.267 C 
ATOM     16  O   UNL     1       0.017   0.910   2.805  0.00  0.00    -0.268 OA
ATOM     17  N   UNL     1       0.052  -1.176   3.571  0.00  0.00    -0.230 N 
ATOM     18  H   UNL     1       0.063  -2.126   3.378  0.00  0.00    +0.173 HD
BRANCH  15  24
ATOM     19  C   UNL     1      -0.018   1.503   0.010  0.00  0.00    +0.045 C 
ATOM     20  C   UNL     1       0.002  -0.004   0.002  0.00  0.00    -0.031 A 
ATOM     21  C   UNL     1       0.007  -0.729  -1.166  0.00  0.00    +0.011 A 
ATOM     22  C   UNL     1       0.025  -2.083  -1.101  0.00  0.00    +0.046 A 
ATOM     23  S   UNL     1       0.037  -2.416   0.545  0.00  0.00    -0.092 S 
ATOM     24  C   UNL     1       0.023  -0.748   1.172  0.00  0.00    +0.078 A 
ENDBRANCH  15  24
ENDBRANCH   1  17
TORSDOF 3
