REMARK  Name = ZINC15087238
REMARK  5 active torsions:
REMARK  status: ('A' for Active; 'I' for Inactive)
REMARK    1  A    between atoms: C_1  and  C_2
REMARK    2  A    between atoms: C_2  and  C_31
REMARK    3  A    between atoms: N_7  and  C_9
REMARK    4  A    between atoms: C_12  and  S_15
REMARK    5  A    between atoms: S_15  and  N_18
REMARK                            x       y       z     vdW  Elec       q    Type
REMARK                         _______ _______ _______ _____ _____    ______ ____
ROOT
ATOM      1  C   UNL     1      -0.624   1.767  -1.466  0.00  0.00    +0.037 C 
ATOM      2  C   UNL     1       0.006   1.409  -0.118  0.00  0.00    +0.060 C 
ATOM      3  C   UNL     1       1.407   1.928  -0.065  0.00  0.00    +0.040 A 
ATOM      4  C   UNL     1       2.465   1.277   0.544  0.00  0.00    +0.029 A 
ATOM      5  C   UNL     1       3.673   1.968   0.503  0.00  0.00    +0.106 A 
ATOM      6  S   UNL     1       5.075   1.333   1.251  0.00  0.00    -0.031 S 
ATOM      7  N   UNL     1       3.707   3.153  -0.144  0.00  0.00    -0.273 N 
ATOM      8  S   UNL     1       2.098   3.369  -0.682  0.00  0.00    -0.008 S 
ATOM      9  C   UNL     1       2.194  -0.048   1.178  0.00  0.00    +0.006 A 
ATOM     10  C   UNL     1       3.112  -0.652   2.020  0.00  0.00    +0.010 A 
ATOM     11  C   UNL     1       2.791  -1.855   2.625  0.00  0.00    +0.001 A 
ATOM     12  C   UNL     1       1.562  -2.445   2.387  0.00  0.00    +0.002 A 
ATOM     13  C   UNL     1       0.646  -1.852   1.538  0.00  0.00    +0.023 A 
ATOM     14  C   UNL     1       0.955  -0.651   0.916  0.00  0.00    +0.036 A 
ATOM     15  N   UNL     1       0.047  -0.055   0.037  0.00  0.00    -0.334 N 
ATOM     16  C   UNL     1      -0.815   2.025   1.016  0.00  0.00    +0.037 C 
ATOM     17  H   UNL     1      -0.561  -0.610  -0.475  0.00  0.00    +0.147 HD
ENDROOT
BRANCH   7  18
ATOM     18  C   UNL     1       4.801   4.003  -0.329  0.00  0.00    +0.054 A 
ATOM     19  C   UNL     1       4.677   5.362  -0.070  0.00  0.00    +0.028 A 
ATOM     20  C   UNL     1       5.761   6.199  -0.250  0.00  0.00    +0.031 A 
ATOM     21  C   UNL     1       6.966   5.687  -0.697  0.00  0.00    +0.109 A 
ATOM     22  C   UNL     1       7.090   4.335  -0.961  0.00  0.00    +0.031 A 
ATOM     23  C   UNL     1       6.012   3.492  -0.778  0.00  0.00    +0.028 A 
BRANCH  21  24
ATOM     24  S   UNL     1       8.344   6.759  -0.930  0.00  0.00    +0.074 S 
ATOM     25  O   UNL     1       8.128   7.887  -0.094  0.00  0.00    -0.150 OA
ATOM     26  O   UNL     1       9.509   5.950  -0.833  0.00  0.00    -0.150 OA
BRANCH  24  27
ATOM     27  N   UNL     1       8.279   7.308  -2.491  0.00  0.00    -0.194 N 
ATOM     28  C   UNL     1       7.226   8.112  -2.899  0.00  0.00    +0.177 A 
ATOM     29  N   UNL     1       6.191   8.540  -2.202  0.00  0.00    -0.232 NA
ATOM     30  C   UNL     1       5.271   9.312  -2.750  0.00  0.00    +0.120 A 
ATOM     31  C   UNL     1       5.405   9.650  -4.054  0.00  0.00    +0.068 A 
ATOM     32  S   UNL     1       6.928   8.810  -4.461  0.00  0.00    -0.059 S 
ATOM     33  H   UNL     1       8.977   7.066  -3.120  0.00  0.00    +0.176 HD
ENDBRANCH  24  27
ENDBRANCH  21  24
ENDBRANCH   7  18
TORSDOF 3
