REMARK  Name = ZINC39680063
REMARK  8 active torsions:
REMARK  status: ('A' for Active; 'I' for Inactive)
REMARK    1  A    between atoms: C_1  and  C_2
REMARK    2  A    between atoms: C_3  and  C_37
REMARK    3  A    between atoms: C_9  and  C_13
REMARK    4  A    between atoms: C_13  and  S_14
REMARK    5  A    between atoms: S_14  and  C_15
REMARK    6  A    between atoms: C_26  and  C_30
REMARK    7  A    between atoms: N_33  and  C_34
REMARK    8  A    between atoms: C_34  and  C_35
REMARK                            x       y       z     vdW  Elec       q    Type
REMARK                         _______ _______ _______ _____ _____    ______ ____
ROOT
ATOM      1  C   UNL     1       4.551  -6.622  -0.056  0.00  0.00    +0.206 C 
ATOM      2  N   UNL     1       4.233  -7.367   1.149  0.00  0.00    -0.277 NA
ATOM      3  C   UNL     1       4.642  -8.762   1.142  0.00  0.00    +0.135 C 
ATOM      4  C   UNL     1       4.076  -9.520  -0.068  0.00  0.00    +0.129 C 
ATOM      5  C   UNL     1       2.718 -10.106   0.211  0.00  0.00    -0.046 C 
ATOM      6  C   UNL     1       2.366 -10.248   1.485  0.00  0.00    -0.013 C 
ATOM      7  S   UNL     1       3.739  -9.642   2.489  0.00  0.00    -0.110 S 
ATOM      8  C   UNL     1       1.077 -10.818   2.007  0.00  0.00    +0.045 C 
ATOM      9  C   UNL     1       0.056 -10.861   0.864  0.00  0.00    -0.009 C 
ATOM     10  C   UNL     1       0.727 -11.485  -0.364  0.00  0.00    +0.008 C 
ATOM     11  C   UNL     1       1.777 -10.524  -0.917  0.00  0.00    +0.032 C 
ATOM     12  C   UNL     1      -1.149 -11.706   1.282  0.00  0.00    +0.008 C 
ATOM     13  C   UNL     1       4.045  -8.666  -1.293  0.00  0.00    +0.227 C 
ATOM     14  O   UNL     1       3.823  -9.196  -2.361  0.00  0.00    -0.275 OA
ATOM     15  N   UNL     1       4.220  -7.355  -1.266  0.00  0.00    -0.273 N 
ATOM     16  H   UNL     1       4.579  -6.893   1.970  0.00  0.00    +0.126 HD
ENDROOT
BRANCH   1  17
ATOM     17  S   UNL     1       3.624  -5.063  -0.043  0.00  0.00    -0.115 S 
BRANCH  17  18
ATOM     18  C   UNL     1       1.887  -5.585  -0.037  0.00  0.00    +0.146 C 
BRANCH  18  27
ATOM     19  C   UNL     1      -0.018   1.503   0.010  0.00  0.00    +0.087 C 
ATOM     20  C   UNL     1       0.002  -0.004   0.002  0.00  0.00    +0.119 A 
ATOM     21  C   UNL     1      -1.102  -0.806   0.003  0.00  0.00    +0.118 A 
ATOM     22  C   UNL     1      -0.586  -2.186  -0.007  0.00  0.00    +0.118 A 
ATOM     23  C   UNL     1      -1.171  -3.470  -0.011  0.00  0.00    +0.263 A 
ATOM     24  O   UNL     1      -2.382  -3.607  -0.006  0.00  0.00    -0.267 OA
ATOM     25  N   UNL     1      -0.348  -4.544  -0.020  0.00  0.00    -0.309 N 
ATOM     26  H   UNL     1      -0.720  -5.439  -0.023  0.00  0.00    +0.170 HD
ATOM     27  C   UNL     1       0.997  -4.369  -0.026  0.00  0.00    +0.124 A 
ATOM     28  N   UNL     1       1.547  -3.188  -0.022  0.00  0.00    -0.198 NA
ATOM     29  C   UNL     1       0.804  -2.070  -0.013  0.00  0.00    +0.235 A 
ATOM     30  O   UNL     1       1.106  -0.761  -0.013  0.00  0.00    -0.441 OA
BRANCH  21  31
ATOM     31  C   UNL     1      -2.507  -0.383   0.012  0.00  0.00    +0.391 C 
ATOM     32  O   UNL     1      -2.788   0.808   0.020  0.00  0.00    -0.240 OA
ATOM     33  O   UNL     1      -3.398  -1.222   0.012  0.00  0.00    -0.240 OA
ENDBRANCH  21  31
ENDBRANCH  18  27
ENDBRANCH  17  18
ENDBRANCH   1  17
BRANCH  15  34
ATOM     34  C   UNL     1       4.107  -6.614  -2.524  0.00  0.00    +0.137 C 
BRANCH  34  35
ATOM     35  C   UNL     1       5.451  -6.571  -3.205  0.00  0.00    -0.016 C 
ATOM     36  C   UNL     1       5.575  -6.998  -4.437  0.00  0.00    +0.005 C 
ENDBRANCH  34  35
ENDBRANCH  15  34
TORSDOF 6
