REMARK  Name = ZINC30982458
REMARK  7 active torsions:
REMARK  status: ('A' for Active; 'I' for Inactive)
REMARK    1  A    between atoms: C_6  and  C_7
REMARK    2  A    between atoms: C_9  and  C_12
REMARK    3  A    between atoms: C_12  and  N_13
REMARK    4  A    between atoms: C_16  and  C_19
REMARK    5  A    between atoms: N_21  and  C_22
REMARK    6  A    between atoms: C_25  and  S_28
REMARK    7  A    between atoms: S_28  and  N_31
REMARK                            x       y       z     vdW  Elec       q    Type
REMARK                         _______ _______ _______ _____ _____    ______ ____
ROOT
ATOM      1  N   UNL     1      -7.192   3.038  -8.011  0.00  0.00    +0.386 N 
ATOM      2  C   UNL     1      -6.360   1.867  -8.317  0.00  0.00    -0.077 C 
ATOM      3  C   UNL     1      -5.590   1.445  -7.063  0.00  0.00    -0.006 C 
ATOM      4  C   UNL     1      -4.714   2.609  -6.592  0.00  0.00    +0.072 C 
ATOM      5  C   UNL     1      -5.599   3.829  -6.327  0.00  0.00    -0.006 C 
ATOM      6  C   UNL     1      -6.368   4.182  -7.602  0.00  0.00    -0.077 C 
ATOM      7  H   UNL     1      -7.843   2.774  -7.165  0.00  0.00    -0.081 HD
ENDROOT
BRANCH   4   8
ATOM      8  C   UNL     1      -3.999   2.220  -5.324  0.00  0.00    +0.220 C 
ATOM      9  O   UNL     1      -4.173   1.120  -4.842  0.00  0.00    -0.275 OA
ATOM     10  N   UNL     1      -3.167   3.094  -4.724  0.00  0.00    -0.285 N 
ATOM     11  H   UNL     1      -3.075   4.120  -5.110  0.00  0.00    +0.155 HD
BRANCH  10  12
ATOM     12  C   UNL     1      -2.420   2.696  -3.610  0.00  0.00    +0.034 A 
ATOM     13  C   UNL     1      -1.965   1.388  -3.507  0.00  0.00    +0.025 A 
ATOM     14  C   UNL     1      -1.228   0.999  -2.406  0.00  0.00    +0.030 A 
ATOM     15  C   UNL     1      -0.943   1.911  -1.406  0.00  0.00    +0.106 A 
ATOM     16  C   UNL     1      -1.398   3.212  -1.502  0.00  0.00    +0.030 A 
ATOM     17  C   UNL     1      -2.131   3.609  -2.604  0.00  0.00    +0.025 A 
BRANCH  15  18
ATOM     18  S   UNL     1      -0.003   1.410  -0.002  0.00  0.00    +0.061 S 
ATOM     19  O   UNL     1      -0.336   2.304   1.050  0.00  0.00    -0.153 OA
ATOM     20  O   UNL     1      -0.164   0.003   0.114  0.00  0.00    -0.153 OA
BRANCH  18  21
ATOM     21  N   UNL     1       1.592   1.675  -0.361  0.00  0.00    -0.177 NA
ATOM     22  C   UNL     1       2.402   0.625  -0.993  0.00  0.00    +0.109 C 
ATOM     23  C   UNL     1       3.051   1.203  -2.260  0.00  0.00    +0.017 C 
ATOM     24  C   UNL     1       3.835   2.466  -1.893  0.00  0.00    +0.003 C 
ATOM     25  C   UNL     1       2.878   3.514  -1.321  0.00  0.00    +0.017 C 
ATOM     26  C   UNL     1       2.226   2.963  -0.048  0.00  0.00    +0.109 C 
ENDBRANCH  18  21
ENDBRANCH  15  18
ENDBRANCH  10  12
ENDBRANCH   4   8
BRANCH   1  27
ATOM     27  C   UNL     1      -8.049   3.386  -9.152  0.00  0.00    +0.022 C 
BRANCH  27  30
ATOM     28  C   UNL     1     -10.052   6.246  -8.297  0.00  0.00    +0.202 A 
ATOM     29  N   UNL     1      -8.901   5.724  -8.778  0.00  0.00    -0.193 NA
ATOM     30  C   UNL     1      -9.055   4.425  -8.726  0.00  0.00    +0.211 A 
ATOM     31  O   UNL     1     -10.274   4.192  -8.229  0.00  0.00    -0.340 OA
ATOM     32  N   UNL     1     -10.829   5.242  -7.984  0.00  0.00    -0.056 NA
BRANCH  28  38
ATOM     33  C   UNL     1      -9.438   8.652  -8.523  0.00  0.00    +0.014 A 
ATOM     34  C   UNL     1      -9.743   9.991  -8.391  0.00  0.00    +0.039 A 
ATOM     35  C   UNL     1     -10.971  10.377  -7.878  0.00  0.00    +0.123 A 
ATOM     36  C   UNL     1     -11.901   9.421  -7.503  0.00  0.00    +0.039 A 
ATOM     37  C   UNL     1     -11.607   8.080  -7.636  0.00  0.00    +0.014 A 
ATOM     38  C   UNL     1     -10.373   7.687  -8.151  0.00  0.00    +0.023 A 
ATOM     39  F   UNL     1     -11.263  11.690  -7.745  0.00  0.00    -0.205 F 
ENDBRANCH  28  38
ENDBRANCH  27  30
ENDBRANCH   1  27
TORSDOF 7
