REMARK  Name = ZINC50696124
REMARK  3 active torsions:
REMARK  status: ('A' for Active; 'I' for Inactive)
REMARK    1  A    between atoms: C_1  and  C_2
REMARK    2  A    between atoms: C_9  and  C_11
REMARK    3  A    between atoms: C_16  and  N_17
REMARK                            x       y       z     vdW  Elec       q    Type
REMARK                         _______ _______ _______ _____ _____    ______ ____
ROOT
ATOM      1  C   UNL     1       0.055   1.492  -0.174  0.00  0.00    +0.045 C 
ATOM      2  C   UNL     1       0.070  -0.010  -0.057  0.00  0.00    -0.032 A 
ATOM      3  C   UNL     1       0.104  -0.616   1.192  0.00  0.00    +0.008 A 
ATOM      4  C   UNL     1       0.117  -1.998   1.255  0.00  0.00    +0.044 A 
ATOM      5  C   UNL     1       0.096  -2.729   0.072  0.00  0.00    +0.125 A 
ATOM      6  N   UNL     1       0.064  -2.114  -1.100  0.00  0.00    -0.240 NA
ATOM      7  C   UNL     1       0.046  -0.798  -1.190  0.00  0.00    +0.116 A 
ATOM      8  N   UNL     1       0.109  -4.121   0.121  0.00  0.00    -0.266 N 
ATOM      9  C   UNL     1      -0.016  -4.837  -1.014  0.00  0.00    +0.253 C 
ATOM     10  O   UNL     1      -0.044  -4.270  -2.090  0.00  0.00    -0.270 OA
ATOM     11  H   UNL     1       0.208  -4.576   0.972  0.00  0.00    +0.157 HD
ENDROOT
BRANCH   9  12
ATOM     12  C   UNL     1      -0.118  -6.306  -0.952  0.00  0.00    +0.078 A 
ATOM     13  C   UNL     1      -0.209  -6.962   0.281  0.00  0.00    +0.033 A 
ATOM     14  C   UNL     1      -0.303  -8.343   0.285  0.00  0.00    +0.037 A 
ATOM     15  C   UNL     1      -0.304  -9.030  -0.918  0.00  0.00    +0.128 A 
ATOM     16  N   UNL     1      -0.218  -8.392  -2.068  0.00  0.00    -0.239 NA
ATOM     17  C   UNL     1      -0.132  -7.072  -2.130  0.00  0.00    +0.128 A 
ATOM     18 BR   UNL     1      -0.428  -9.285   1.920  0.00  0.00    -0.049 Br
BRANCH  17  19
ATOM     19  N   UNL     1      -0.049  -6.445  -3.360  0.00  0.00    -0.343 N 
ATOM     20  H   UNL     1      -0.062  -5.477  -3.412  0.00  0.00    +0.144 HD
ATOM     21  H   UNL     1       0.023  -6.974  -4.170  0.00  0.00    +0.144 HD
ENDBRANCH  17  19
ENDBRANCH   9  12
TORSDOF 2
