REMARK  Name = ZINC08623718
REMARK  11 active torsions:
REMARK  status: ('A' for Active; 'I' for Inactive)
REMARK    1  A    between atoms: C_1  and  O_2
REMARK    2  A    between atoms: O_2  and  C_3
REMARK    3  A    between atoms: C_6  and  C_9
REMARK    4  A    between atoms: C_11  and  C_14
REMARK    5  A    between atoms: C_14  and  C_15
REMARK    6  A    between atoms: C_20  and  C_22
REMARK    7  A    between atoms: C_22  and  C_23
REMARK    8  A    between atoms: C_30  and  O_37
REMARK    9  A    between atoms: C_31  and  O_35
REMARK   10  A    between atoms: O_35  and  C_36
REMARK   11  A    between atoms: O_37  and  C_38
REMARK                            x       y       z     vdW  Elec       q    Type
REMARK                         _______ _______ _______ _____ _____    ______ ____
ROOT
ATOM      1  C   UNL     1       6.915   5.068   1.145  0.00  0.00    -0.019 C 
ATOM      2  C   UNL     1       7.997   4.006   0.939  0.00  0.00    -0.079 C 
ATOM      3  C   UNL     1       9.628   5.359   2.116  0.00  0.00    -0.082 C 
ATOM      4  C   UNL     1       8.594   6.461   2.357  0.00  0.00    -0.015 C 
ATOM      5  C   UNL     1       7.570   6.450   1.219  0.00  0.00    -0.002 C 
ATOM      6  N   UNL     1       8.955   4.047   2.062  0.00  0.00    +0.379 N 
ATOM      7  H   UNL     1       9.658   3.311   1.933  0.00  0.00    -0.086 HD
ATOM      8  H   UNL     1       8.450   3.889   2.942  0.00  0.00    -0.086 HD
ENDROOT
BRANCH   1   9
ATOM      9  C   UNL     1       5.933   5.030  -0.028  0.00  0.00    +0.061 C 
BRANCH   9  12
ATOM     10  C   UNL     1       3.655   2.164  -0.021  0.00  0.00    +0.167 A 
ATOM     11  C   UNL     1       3.804   3.525  -0.016  0.00  0.00    +0.076 A 
ATOM     12  C   UNL     1       5.201   3.713  -0.028  0.00  0.00    +0.084 A 
ATOM     13  N   UNL     1       5.736   2.525  -0.039  0.00  0.00    -0.083 NA
ATOM     14  O   UNL     1       4.899   1.652  -0.029  0.00  0.00    -0.354 OA
BRANCH  10  18
ATOM     15  C   UNL     1       0.002  -0.004   0.002  0.00  0.00    +0.120 A 
ATOM     16  C   UNL     1      -0.017   1.385   0.010  0.00  0.00    +0.046 A 
ATOM     17  C   UNL     1       1.166   2.092   0.002  0.00  0.00    +0.015 A 
ATOM     18  C   UNL     1       2.385   1.410  -0.013  0.00  0.00    +0.020 A 
ATOM     19  C   UNL     1       2.399   0.014  -0.020  0.00  0.00    +0.015 A 
ATOM     20  C   UNL     1       1.212  -0.686  -0.013  0.00  0.00    +0.046 A 
BRANCH  15  22
ATOM     21  C   UNL     1      -1.074  -2.123   0.001  0.00  0.00    +0.277 C 
ATOM     22  O   UNL     1      -1.166  -0.697   0.009  0.00  0.00    -0.495 OA
ENDBRANCH  15  22
ENDBRANCH  10  18
ENDBRANCH   9  12
ENDBRANCH   1   9
BRANCH   5  23
ATOM     23  C   UNL     1       8.273   6.754  -0.105  0.00  0.00    +0.099 C 
BRANCH  23  24
ATOM     24  C   UNL     1       8.812   8.162  -0.077  0.00  0.00    +0.216 C 
ATOM     25  O   UNL     1       8.649   8.853   0.906  0.00  0.00    -0.276 OA
ATOM     26  N   UNL     1       9.474   8.652  -1.143  0.00  0.00    -0.297 N 
ATOM     27  C   UNL     1      10.007  10.024  -1.149  0.00  0.00    +0.113 C 
ATOM     28  C   UNL     1      11.535   9.928  -1.234  0.00  0.00    +0.054 C 
ATOM     29  C   UNL     1      11.951   8.968  -2.317  0.00  0.00    -0.038 A 
ATOM     30  C   UNL     1      13.248   9.074  -2.806  0.00  0.00    +0.053 A 
ATOM     31  C   UNL     1      13.705   8.210  -3.783  0.00  0.00    +0.162 A 
ATOM     32  C   UNL     1      12.858   7.225  -4.284  0.00  0.00    +0.162 A 
ATOM     33  C   UNL     1      11.567   7.126  -3.800  0.00  0.00    +0.054 A 
ATOM     34  C   UNL     1      11.111   7.999  -2.820  0.00  0.00    -0.023 A 
ATOM     35  C   UNL     1       9.688   7.841  -2.346  0.00  0.00    +0.143 C 
BRANCH  32  36
ATOM     36  O   UNL     1      13.298   6.366  -5.242  0.00  0.00    -0.491 OA
ATOM     37  C   UNL     1      12.371   5.383  -5.706  0.00  0.00    +0.277 C 
ENDBRANCH  32  36
BRANCH  31  38
ATOM     38  O   UNL     1      14.976   8.322  -4.255  0.00  0.00    -0.491 OA
ATOM     39  C   UNL     1      15.787   9.357  -3.694  0.00  0.00    +0.277 C 
ENDBRANCH  31  38
ENDBRANCH  23  24
ENDBRANCH   5  23
TORSDOF 8
