REMARK  Name = ZINC35453989
REMARK  3 active torsions:
REMARK  status: ('A' for Active; 'I' for Inactive)
REMARK    1  A    between atoms: C_5  and  O_7
REMARK    2  A    between atoms: O_7  and  C_8
REMARK    3  A    between atoms: C_11  and  N_14
REMARK                            x       y       z     vdW  Elec       q    Type
REMARK                         _______ _______ _______ _____ _____    ______ ____
ROOT
ATOM      1  C   UNL     1       0.051  -2.696   0.092  0.00  0.00    +0.221 A 
ATOM      2  C   UNL     1       0.043  -4.080   0.199  0.00  0.00    +0.069 A 
ATOM      3  C   UNL     1      -1.168  -4.740   0.312  0.00  0.00    +0.029 A 
ATOM      4  C   UNL     1      -2.338  -3.984   0.316  0.00  0.00    +0.043 A 
ATOM      5  C   UNL     1      -2.251  -2.604   0.205  0.00  0.00    +0.137 A 
ATOM      6  N   UNL     1      -1.078  -2.009   0.103  0.00  0.00    -0.219 NA
ENDROOT
BRANCH   4   7
ATOM      7  N   UNL     1      -3.586  -4.609   0.428  0.00  0.00    -0.357 N 
ATOM      8  H   UNL     1      -3.640  -5.574   0.505  0.00  0.00    +0.142 HD
ATOM      9  H   UNL     1      -4.397  -4.076   0.430  0.00  0.00    +0.142 HD
ENDBRANCH   4   7
BRANCH   1  10
ATOM     10  O   UNL     1       1.235  -2.039  -0.021  0.00  0.00    -0.437 OA
BRANCH  10  15
ATOM     11  C   UNL     1       1.155   1.381  -1.260  0.00  0.00    +0.004 A 
ATOM     12  C   UNL     1       1.164   2.086  -0.070  0.00  0.00    +0.001 A 
ATOM     13  C   UNL     1       1.197   1.411   1.136  0.00  0.00    +0.018 A 
ATOM     14  C   UNL     1       1.221   0.029   1.156  0.00  0.00    +0.056 A 
ATOM     15  C   UNL     1       1.211  -0.680  -0.037  0.00  0.00    +0.143 A 
ATOM     16  C   UNL     1       1.178  -0.000  -1.246  0.00  0.00    +0.047 A 
ATOM     17  I   UNL     1       1.271  -0.993   2.984  0.00  0.00    -0.040 I 
ENDBRANCH  10  15
ENDBRANCH   1  10
TORSDOF 3
