REMARK  Name = ZINC53736021
REMARK  6 active torsions:
REMARK  status: ('A' for Active; 'I' for Inactive)
REMARK    1  A    between atoms: C_1  and  C_2
REMARK    2  A    between atoms: C_7  and  N_8
REMARK    3  A    between atoms: C_12  and  N_21
REMARK    4  A    between atoms: C_16  and  C_17
REMARK    5  A    between atoms: C_17  and  C_19
REMARK    6  A    between atoms: C_17  and  O_20
REMARK                            x       y       z     vdW  Elec       q    Type
REMARK                         _______ _______ _______ _____ _____    ______ ____
ROOT
ATOM      1  N   UNL     1       0.025  -0.012   2.419  0.00  0.00    -0.294 N 
ATOM      2  C   UNL     1      -1.089   0.373   3.146  0.00  0.00    +0.074 A 
ATOM      3  C   UNL     1      -2.457   0.233   2.960  0.00  0.00    +0.030 A 
ATOM      4  C   UNL     1      -3.333   0.741   3.893  0.00  0.00    +0.025 A 
ATOM      5  C   UNL     1      -2.855   1.398   5.026  0.00  0.00    +0.027 A 
ATOM      6  C   UNL     1      -1.495   1.546   5.225  0.00  0.00    +0.052 A 
ATOM      7  C   UNL     1      -0.597   1.033   4.285  0.00  0.00    +0.091 A 
ATOM      8  N   UNL     1       0.758   1.019   4.198  0.00  0.00    -0.229 NA
ATOM      9  C   UNL     1       1.122   0.403   3.111  0.00  0.00    +0.144 A 
ENDROOT
BRANCH   1  16
ATOM     10  C   UNL     1      -0.018   1.503   0.010  0.00  0.00    +0.046 C 
ATOM     11  C   UNL     1       0.002  -0.004   0.002  0.00  0.00    -0.024 A 
ATOM     12  C   UNL     1       0.006  -0.689  -1.198  0.00  0.00    +0.043 A 
ATOM     13  C   UNL     1       0.025  -2.073  -1.206  0.00  0.00    +0.124 A 
ATOM     14  C   UNL     1       0.041  -2.774  -0.012  0.00  0.00    +0.040 A 
ATOM     15  C   UNL     1       0.037  -2.093   1.190  0.00  0.00    +0.029 A 
ATOM     16  C   UNL     1       0.023  -0.705   1.200  0.00  0.00    +0.051 A 
ATOM     17  F   UNL     1       0.028  -2.741  -2.380  0.00  0.00    -0.205 F 
ENDBRANCH   1  16
BRANCH   5  18
ATOM     18  N   UNL     1      -3.755   1.910   5.966  0.00  0.00    -0.358 N 
ATOM     19  H   UNL     1      -4.710   1.808   5.828  0.00  0.00    +0.142 HD
ATOM     20  H   UNL     1      -3.425   2.368   6.755  0.00  0.00    +0.142 HD
ENDBRANCH   5  18
BRANCH   9  21
ATOM     21  C   UNL     1       2.549   0.184   2.679  0.00  0.00    +0.177 C 
ATOM     22  C   UNL     1       3.128   1.498   2.150  0.00  0.00    +0.046 C 
BRANCH  21  23
ATOM     23  O   UNL     1       3.322  -0.262   3.795  0.00  0.00    -0.384 OA
ATOM     24  H   UNL     1       3.340   0.360   4.535  0.00  0.00    +0.210 HD
ENDBRANCH  21  23
ENDBRANCH   9  21
TORSDOF 4
