REMARK  Name = ZINC62824802
REMARK  4 active torsions:
REMARK  status: ('A' for Active; 'I' for Inactive)
REMARK    1  A    between atoms: C_1  and  C_2
REMARK    2  A    between atoms: C_3  and  C_21
REMARK    3  A    between atoms: N_10  and  C_11
REMARK    4  A    between atoms: C_16  and  C_17
REMARK                            x       y       z     vdW  Elec       q    Type
REMARK                         _______ _______ _______ _____ _____    ______ ____
ROOT
ATOM      1  C   UNL     1      -0.026   1.482  -0.000  0.00  0.00    +0.066 C 
ATOM      2  C   UNL     1      -0.021  -0.025  -0.004  0.00  0.00    +0.050 A 
ATOM      3  C   UNL     1      -0.035  -0.730  -1.161  0.00  0.00    +0.011 A 
ATOM      4  S   UNL     1      -0.021  -2.401  -0.533  0.00  0.00    -0.057 S 
ATOM      5  C   UNL     1       0.002  -2.033   1.109  0.00  0.00    +0.166 A 
ATOM      6  N   UNL     1       0.004  -0.717   1.120  0.00  0.00    -0.230 NA
ATOM      7  N   UNL     1       0.021  -2.906   2.190  0.00  0.00    -0.248 N 
ATOM      8  C   UNL     1       0.038  -2.421   3.447  0.00  0.00    +0.310 C 
ATOM      9  O   UNL     1       0.037  -1.220   3.636  0.00  0.00    -0.252 OA
ATOM     10  N   UNL     1       0.056  -3.268   4.496  0.00  0.00    -0.268 N 
ATOM     11  C   UNL     1      -0.058  -0.239  -2.586  0.00  0.00    +0.053 C 
ATOM     12  H   UNL     1       0.022  -3.864   2.039  0.00  0.00    +0.158 HD
ATOM     13  H   UNL     1      -0.008  -4.225   4.348  0.00  0.00    +0.156 HD
ENDROOT
BRANCH  10  14
ATOM     14  C   UNL     1       0.167  -2.770   5.790  0.00  0.00    +0.049 A 
ATOM     15  C   UNL     1      -0.438  -1.567   6.130  0.00  0.00    +0.025 A 
ATOM     16  C   UNL     1      -0.326  -1.075   7.414  0.00  0.00    +0.016 A 
ATOM     17  C   UNL     1       0.388  -1.774   8.375  0.00  0.00    +0.014 A 
ATOM     18  C   UNL     1       0.995  -2.970   8.058  0.00  0.00    +0.031 A 
ATOM     19  C   UNL     1       0.887  -3.485   6.762  0.00  0.00    +0.085 A 
ATOM     20  I   UNL     1       0.546  -1.009  10.319  0.00  0.00    -0.044 I 
BRANCH  19  21
ATOM     21  C   UNL     1       1.528  -4.763   6.417  0.00  0.00    +0.388 C 
ATOM     22  O   UNL     1       2.070  -5.430   7.288  0.00  0.00    -0.241 OA
ATOM     23  O   UNL     1       1.518  -5.160   5.260  0.00  0.00    -0.241 OA
ENDBRANCH  19  21
ENDBRANCH  10  14
TORSDOF 2
