REMARK  Name = ZINC38845452
REMARK  15 active torsions:
REMARK  status: ('A' for Active; 'I' for Inactive)
REMARK    1  A    between atoms: C_1  and  C_2
REMARK    2  A    between atoms: C_2  and  N_3
REMARK    3  A    between atoms: N_3  and  C_4
REMARK    4  A    between atoms: N_3  and  C_6
REMARK    5  A    between atoms: C_4  and  C_5
REMARK    6  A    between atoms: C_6  and  C_7
REMARK    7  A    between atoms: C_7  and  N_8
REMARK    8  A    between atoms: C_14  and  S_18
REMARK    9  A    between atoms: S_18  and  C_21
REMARK   10  A    between atoms: C_22  and  C_24
REMARK   11  A    between atoms: C_24  and  C_25
REMARK   12  A    between atoms: C_25  and  C_26
REMARK   13  A    between atoms: C_26  and  S_27
REMARK   14  A    between atoms: S_27  and  C_28
REMARK   15  A    between atoms: C_31  and  C_34
REMARK                            x       y       z     vdW  Elec       q    Type
REMARK                         _______ _______ _______ _____ _____    ______ ____
ROOT
ATOM      1  N   UNL     1       1.720  -4.037   2.450  0.00  0.00    -0.252 N 
ATOM      2  C   UNL     1       2.911  -4.552   1.965  0.00  0.00    +0.168 A 
ATOM      3  N   UNL     1       3.976  -3.909   1.546  0.00  0.00    -0.224 NA
ATOM      4  C   UNL     1       5.078  -4.546   1.095  0.00  0.00    +0.080 A 
ATOM      5  C   UNL     1       6.282  -3.978   0.619  0.00  0.00    +0.031 A 
ATOM      6  C   UNL     1       7.312  -4.775   0.195  0.00  0.00    +0.029 A 
ATOM      7  C   UNL     1       7.215  -6.159   0.215  0.00  0.00    +0.089 A 
ATOM      8  C   UNL     1       6.052  -6.749   0.674  0.00  0.00    +0.044 A 
ATOM      9  C   UNL     1       5.014  -5.959   1.102  0.00  0.00    +0.043 A 
ATOM     10  S   UNL     1       3.391  -6.261   1.758  0.00  0.00    -0.052 S 
ATOM     11  C   UNL     1       0.735  -4.870   2.841  0.00  0.00    +0.221 C 
ATOM     12  O   UNL     1       0.891  -6.070   2.769  0.00  0.00    -0.275 OA
ENDROOT
BRANCH   7  13
ATOM     13  S   UNL     1       8.559  -7.154  -0.339  0.00  0.00    -0.006 S 
ATOM     14  O   UNL     1       7.959  -8.370  -0.764  0.00  0.00    -0.170 OA
ATOM     15  O   UNL     1       9.263  -6.332  -1.261  0.00  0.00    -0.170 OA
ATOM     16  C   UNL     1       9.569  -7.439   1.141  0.00  0.00    +0.200 C 
ENDBRANCH   7  13
BRANCH   1  17
ATOM     17  C   UNL     1       1.530  -2.587   2.538  0.00  0.00    +0.097 C 
BRANCH  17  18
ATOM     18  C   UNL     1       0.924  -2.072   1.231  0.00  0.00    -0.059 C 
BRANCH  18  19
ATOM     19  N   UNL     1       0.620  -0.641   1.363  0.00  0.00    +0.380 N 
ATOM     20  H   UNL     1       0.029  -0.495   2.167  0.00  0.00    -0.082 HD
BRANCH  19  22
ATOM     21  C   UNL     1       1.548   1.585   1.794  0.00  0.00    -0.017 C 
ATOM     22  C   UNL     1       1.871   0.112   1.532  0.00  0.00    -0.082 C 
ENDBRANCH  19  22
BRANCH  19  23
ATOM     23  C   UNL     1      -0.072  -0.174   0.154  0.00  0.00    -0.082 C 
ATOM     24  C   UNL     1      -1.445  -0.843   0.063  0.00  0.00    -0.017 C 
ENDBRANCH  19  23
ENDBRANCH  18  19
ENDBRANCH  17  18
ENDBRANCH   1  17
BRANCH  11  25
ATOM     25  C   UNL     1      -0.561  -4.310   3.369  0.00  0.00    +0.097 C 
BRANCH  25  26
ATOM     26  C   UNL     1      -1.500  -5.459   3.739  0.00  0.00    +0.020 C 
BRANCH  26  27
ATOM     27  C   UNL     1      -2.816  -4.890   4.275  0.00  0.00    +0.075 C 
BRANCH  27  28
ATOM     28  S   UNL     1      -3.930  -6.253   4.714  0.00  0.00    -0.125 S 
BRANCH  28  29
ATOM     29  C   UNL     1      -5.379  -5.445   5.306  0.00  0.00    +0.008 A 
ATOM     30  C   UNL     1      -5.440  -4.057   5.335  0.00  0.00    +0.015 A 
ATOM     31  C   UNL     1      -6.578  -3.427   5.799  0.00  0.00    +0.004 A 
ATOM     32  C   UNL     1      -7.656  -4.176   6.235  0.00  0.00    -0.050 A 
ATOM     33  C   UNL     1      -7.599  -5.558   6.208  0.00  0.00    +0.004 A 
ATOM     34  C   UNL     1      -6.467  -6.194   5.739  0.00  0.00    +0.015 A 
ATOM     35  C   UNL     1      -8.896  -3.485   6.741  0.00  0.00    +0.044 C 
ENDBRANCH  28  29
ENDBRANCH  27  28
ENDBRANCH  26  27
ENDBRANCH  25  26
ENDBRANCH  11  25
TORSDOF 11
