REMARK  Name = ZINC41651160
REMARK  11 active torsions:
REMARK  status: ('A' for Active; 'I' for Inactive)
REMARK    1  A    between atoms: C_1  and  C_2
REMARK    2  A    between atoms: C_2  and  C_3
REMARK    3  A    between atoms: N_5  and  C_6
REMARK    4  A    between atoms: C_9  and  N_13
REMARK    5  A    between atoms: C_11  and  C_12
REMARK    6  A    between atoms: C_14  and  C_16
REMARK    7  A    between atoms: N_18  and  C_19
REMARK    8  A    between atoms: C_19  and  C_20
REMARK    9  A    between atoms: C_20  and  C_22
REMARK   10  A    between atoms: C_20  and  N_23
REMARK   11  A    between atoms: C_27  and  C_30
REMARK                            x       y       z     vdW  Elec       q    Type
REMARK                         _______ _______ _______ _____ _____    ______ ____
ROOT
ATOM      1  N   UNL     1       4.065  -2.700  -5.555  0.00  0.00    -0.278 N 
ATOM      2  C   UNL     1       4.548  -1.859  -6.491  0.00  0.00    +0.303 C 
ATOM      3  O   UNL     1       4.570  -0.663  -6.279  0.00  0.00    -0.265 OA
ATOM      4  H   UNL     1       3.976  -3.645  -5.752  0.00  0.00    +0.155 HD
ENDROOT
BRANCH   1   8
ATOM      5  C   UNL     1       2.955  -1.237  -1.813  0.00  0.00    +0.036 A 
ATOM      6  C   UNL     1       4.026  -0.669  -2.491  0.00  0.00    +0.025 A 
ATOM      7  C   UNL     1       4.394  -1.153  -3.730  0.00  0.00    +0.025 A 
ATOM      8  C   UNL     1       3.693  -2.209  -4.299  0.00  0.00    +0.034 A 
ATOM      9  C   UNL     1       2.622  -2.778  -3.621  0.00  0.00    +0.028 A 
ATOM     10  C   UNL     1       2.258  -2.297  -2.380  0.00  0.00    -0.027 A 
ATOM     11  C   UNL     1       1.099  -2.917  -1.641  0.00  0.00    +0.046 C 
BRANCH   5  14
ATOM     12  C   UNL     1       3.472  -0.066   0.193  0.00  0.00    +0.217 C 
ATOM     13  O   UNL     1       4.623   0.034  -0.175  0.00  0.00    -0.275 OA
ATOM     14  N   UNL     1       2.581  -0.746  -0.556  0.00  0.00    -0.285 N 
ATOM     15  H   UNL     1       1.682  -0.894  -0.225  0.00  0.00    +0.155 HD
BRANCH  12  17
ATOM     16  C   UNL     1       4.231   1.273   2.137  0.00  0.00    +0.013 C 
ATOM     17  C   UNL     1       3.037   0.569   1.488  0.00  0.00    +0.093 C 
ENDBRANCH  12  17
ENDBRANCH   5  14
ENDBRANCH   1   8
BRANCH   2  18
ATOM     18  C   UNL     1       5.054  -2.397  -7.788  0.00  0.00    +0.299 C 
ATOM     19  O   UNL     1       5.032  -3.592  -8.000  0.00  0.00    -0.265 OA
ATOM     20  N   UNL     1       5.537  -1.556  -8.724  0.00  0.00    -0.309 N 
ATOM     21  H   UNL     1       5.554  -0.601  -8.555  0.00  0.00    +0.149 HD
BRANCH  20  22
ATOM     22  C   UNL     1       6.034  -2.084  -9.997  0.00  0.00    +0.089 C 
BRANCH  22  23
ATOM     23  C   UNL     1       6.621  -0.941 -10.829  0.00  0.00    -0.054 C 
ATOM     24  C   UNL     1       7.008  -1.465 -12.213  0.00  0.00    -0.012 C 
BRANCH  23  25
ATOM     25  N   UNL     1       5.620   0.125 -10.971  0.00  0.00    +0.383 N 
ATOM     26  C   UNL     1       4.472  -0.382 -11.731  0.00  0.00    -0.078 C 
ATOM     27  C   UNL     1       3.392   0.699 -11.813  0.00  0.00    -0.018 C 
ATOM     28  C   UNL     1       3.965   1.933 -12.514  0.00  0.00    -0.001 C 
ATOM     29  C   UNL     1       5.207   2.409 -11.755  0.00  0.00    -0.031 C 
ATOM     30  C   UNL     1       6.219   1.265 -11.675  0.00  0.00    -0.075 C 
ATOM     31  C   UNL     1       5.832   3.596 -12.491  0.00  0.00    +0.005 C 
ATOM     32  H   UNL     1       5.312   0.420 -10.057  0.00  0.00    -0.081 HD
ENDBRANCH  23  25
ENDBRANCH  22  23
ENDBRANCH  20  22
ENDBRANCH   2  18
TORSDOF 7
