REMARK  Name = ZINC20108285
REMARK  8 active torsions:
REMARK  status: ('A' for Active; 'I' for Inactive)
REMARK    1  A    between atoms: C_1  and  O_2
REMARK    2  A    between atoms: O_2  and  C_3
REMARK    3  A    between atoms: C_6  and  C_9
REMARK    4  A    between atoms: C_9  and  C_11
REMARK    5  A    between atoms: C_9  and  N_24
REMARK    6  A    between atoms: N_13  and  C_14
REMARK    7  A    between atoms: C_25  and  C_27
REMARK    8  A    between atoms: C_28  and  C_29
REMARK                            x       y       z     vdW  Elec       q    Type
REMARK                         _______ _______ _______ _____ _____    ______ ____
ROOT
ATOM      1  C   UNL     1       4.266  -2.762   1.737  0.00  0.00    +0.190 C 
ENDROOT
BRANCH   1   5
ATOM      2  C   UNL     1       6.787  -0.490  -0.860  0.00  0.00    +0.120 A 
ATOM      3  C   UNL     1       6.802  -0.251   0.507  0.00  0.00    +0.046 A 
ATOM      4  C   UNL     1       5.985  -0.987   1.344  0.00  0.00    +0.009 A 
ATOM      5  C   UNL     1       5.155  -1.961   0.821  0.00  0.00    -0.018 A 
ATOM      6  C   UNL     1       5.143  -2.205  -0.540  0.00  0.00    +0.009 A 
ATOM      7  C   UNL     1       5.953  -1.468  -1.382  0.00  0.00    +0.046 A 
BRANCH   2   9
ATOM      8  C   UNL     1       7.523  -0.068  -3.080  0.00  0.00    +0.277 C 
ATOM      9  O   UNL     1       7.590   0.232  -1.685  0.00  0.00    -0.495 OA
ENDBRANCH   2   9
ENDBRANCH   1   5
BRANCH   1  10
ATOM     10  C   UNL     1       2.866  -2.205   1.692  0.00  0.00    +0.242 C 
ATOM     11  O   UNL     1       1.945  -2.907   1.331  0.00  0.00    -0.273 OA
ATOM     12  N   UNL     1       2.638  -0.927   2.054  0.00  0.00    -0.284 N 
ATOM     13  H   UNL     1       3.483  -0.262   2.288  0.00  0.00    +0.155 HD
BRANCH  12  14
ATOM     14  C   UNL     1       1.325  -0.444   2.131  0.00  0.00    +0.037 A 
ATOM     15  C   UNL     1       0.298  -1.286   2.535  0.00  0.00    +0.027 A 
ATOM     16  C   UNL     1      -0.997  -0.811   2.611  0.00  0.00    +0.051 A 
ATOM     17  C   UNL     1      -1.275   0.508   2.283  0.00  0.00    +0.162 A 
ATOM     18  C   UNL     1      -0.249   1.354   1.880  0.00  0.00    +0.164 A 
ATOM     19  C   UNL     1       1.051   0.876   1.803  0.00  0.00    +0.072 A 
ATOM     20  O   UNL     1      -0.501   2.653   1.563  0.00  0.00    -0.485 OA
ATOM     21  C   UNL     1      -1.864   2.997   1.292  0.00  0.00    +0.270 C 
ATOM     22  C   UNL     1      -2.743   2.376   2.386  0.00  0.00    +0.270 C 
ATOM     23  O   UNL     1      -2.559   0.956   2.356  0.00  0.00    -0.485 OA
ENDBRANCH  12  14
ENDBRANCH   1  10
BRANCH   1  24
ATOM     24  N   UNL     1       4.248  -4.161   1.300  0.00  0.00    -0.297 N 
ATOM     25  C   UNL     1       5.214  -5.006   1.709  0.00  0.00    +0.238 C 
ATOM     26  O   UNL     1       6.101  -4.609   2.442  0.00  0.00    -0.271 OA
ATOM     27  H   UNL     1       3.447  -4.520   0.637  0.00  0.00    +0.150 HD
BRANCH  25  28
ATOM     28  C   UNL     1       5.197  -6.402   1.273  0.00  0.00    +0.068 C 
ATOM     29  C   UNL     1       6.230  -7.217   1.576  0.00  0.00    +0.013 C 
BRANCH  29  30
ATOM     30  C   UNL     1       7.475  -6.654   2.119  0.00  0.00    -0.021 A 
ATOM     31  C   UNL     1       8.103  -7.264   3.211  0.00  0.00    +0.012 A 
ATOM     32  C   UNL     1       9.270  -6.735   3.717  0.00  0.00    +0.050 A 
ATOM     33  C   UNL     1       9.827  -5.597   3.147  0.00  0.00    +0.166 A 
ATOM     34  C   UNL     1       9.206  -4.984   2.057  0.00  0.00    +0.167 A 
ATOM     35  C   UNL     1       8.039  -5.511   1.541  0.00  0.00    +0.057 A 
ATOM     36  O   UNL     1       9.947  -3.898   1.689  0.00  0.00    -0.453 OA
ATOM     37  C   UNL     1      11.237  -4.088   2.299  0.00  0.00    +0.466 C 
ATOM     38  O   UNL     1      10.953  -4.893   3.458  0.00  0.00    -0.453 OA
ENDBRANCH  29  30
ENDBRANCH  25  28
ENDBRANCH   1  24
TORSDOF 7
