REMARK  Name = ZINC59166666
REMARK  8 active torsions:
REMARK  status: ('A' for Active; 'I' for Inactive)
REMARK    1  A    between atoms: C_4  and  C_22
REMARK    2  A    between atoms: C_5  and  C_7
REMARK    3  A    between atoms: C_7  and  O_8
REMARK    4  A    between atoms: O_8  and  C_9
REMARK    5  A    between atoms: C_12  and  C_16
REMARK    6  A    between atoms: N_17  and  N_18
REMARK    7  A    between atoms: N_18  and  C_19
REMARK    8  A    between atoms: C_19  and  N_21
REMARK                            x       y       z     vdW  Elec       q    Type
REMARK                         _______ _______ _______ _____ _____    ______ ____
ROOT
ATOM      1  C   UNL     1      -0.280  -4.029  -0.017  0.00  0.00    +0.134 A 
ATOM      2  C   UNL     1       0.833  -4.860  -0.027  0.00  0.00    +0.047 A 
ATOM      3  C   UNL     1       0.674  -6.229  -0.034  0.00  0.00    +0.013 A 
ATOM      4  C   UNL     1      -0.609  -6.781  -0.029  0.00  0.00    -0.004 A 
ATOM      5  C   UNL     1      -1.726  -5.942  -0.018  0.00  0.00    +0.027 A 
ATOM      6  C   UNL     1      -1.558  -4.574  -0.007  0.00  0.00    +0.056 A 
ATOM      7  I   UNL     1      -3.232  -3.314   0.017  0.00  0.00    -0.040 I 
ENDROOT
BRANCH   4   8
ATOM      8  C   UNL     1      -0.784  -8.245  -0.036  0.00  0.00    +0.138 C 
ATOM      9  N   UNL     1      -1.977  -8.757  -0.032  0.00  0.00    -0.188 NA
BRANCH   9  10
ATOM     10  N   UNL     1      -2.143 -10.148  -0.039  0.00  0.00    -0.219 N 
ATOM     11  H   UNL     1      -1.366 -10.729  -0.046  0.00  0.00    +0.176 HD
BRANCH  10  12
ATOM     12  C   UNL     1      -3.382 -10.678  -0.034  0.00  0.00    +0.147 C 
ATOM     13  S   UNL     1      -3.585 -12.378  -0.043  0.00  0.00    -0.017 S 
BRANCH  12  14
ATOM     14  N   UNL     1      -4.461  -9.871  -0.024  0.00  0.00    -0.339 N 
ATOM     15  H   UNL     1      -4.346  -8.908  -0.019  0.00  0.00    +0.144 HD
ATOM     16  H   UNL     1      -5.353 -10.253  -0.020  0.00  0.00    +0.144 HD
ENDBRANCH  12  14
ENDBRANCH  10  12
ENDBRANCH   9  10
ENDBRANCH   4   8
BRANCH   1  17
ATOM     17  O   UNL     1      -0.118  -2.680  -0.011  0.00  0.00    -0.486 OA
BRANCH  17  18
ATOM     18  C   UNL     1       1.223  -2.188  -0.022  0.00  0.00    +0.265 C 
BRANCH  18  23
ATOM     19  C   UNL     1      -0.017   1.379   0.010  0.00  0.00    +0.000 A 
ATOM     20  C   UNL     1       1.168   2.094   0.002  0.00  0.00    +0.001 A 
ATOM     21  C   UNL     1       2.377   1.430  -0.013  0.00  0.00    +0.019 A 
ATOM     22  C   UNL     1       2.404   0.034  -0.021  0.00  0.00    +0.058 A 
ATOM     23  C   UNL     1       1.204  -0.681  -0.013  0.00  0.00    +0.007 A 
ATOM     24  C   UNL     1       0.002  -0.004   0.002  0.00  0.00    +0.008 A 
BRANCH  22  25
ATOM     25  C   UNL     1       3.655  -0.662  -0.038  0.00  0.00    +0.100 C 
ATOM     26  N   UNL     1       4.648  -1.214  -0.051  0.00  0.00    -0.191 NA
ENDBRANCH  22  25
ENDBRANCH  18  23
ENDBRANCH  17  18
ENDBRANCH   1  17
TORSDOF 8
