REMARK  Name = ZINC10339246
REMARK  7 active torsions:
REMARK  status: ('A' for Active; 'I' for Inactive)
REMARK    1  A    between atoms: C_1  and  C_2
REMARK    2  A    between atoms: C_2  and  O_3
REMARK    3  A    between atoms: O_3  and  C_4
REMARK    4  A    between atoms: C_4  and  C_6
REMARK    5  A    between atoms: C_7  and  N_31
REMARK    6  A    between atoms: C_21  and  C_23
REMARK    7  A    between atoms: C_27  and  C_30
REMARK                            x       y       z     vdW  Elec       q    Type
REMARK                         _______ _______ _______ _____ _____    ______ ____
ROOT
ATOM      1  C   UNL     1      -1.750   2.596   1.279  0.00  0.00    +0.117 C 
ATOM      2  C   UNL     1      -1.963   3.936   1.189  0.00  0.00    +0.195 C 
ATOM      3  O   UNL     1      -1.887   4.575   0.012  0.00  0.00    -0.446 OA
ATOM      4  C   UNL     1      -2.028   3.890  -1.139  0.00  0.00    +0.116 C 
ATOM      5  C   UNL     1      -1.818   2.562  -1.194  0.00  0.00    +0.057 C 
ATOM      6  C   UNL     1      -1.429   1.800   0.047  0.00  0.00    +0.142 C 
ATOM      7  C   UNL     1       0.021   1.431   0.008  0.00  0.00    -0.001 A 
ATOM      8  C   UNL     1       1.160   2.206  -0.026  0.00  0.00    +0.007 A 
ATOM      9  C   UNL     1       2.379   1.536  -0.052  0.00  0.00    +0.000 A 
ATOM     10  C   UNL     1       2.441   0.158  -0.043  0.00  0.00    +0.002 A 
ATOM     11  C   UNL     1       1.300  -0.628  -0.007  0.00  0.00    +0.024 A 
ATOM     12  C   UNL     1       0.070   0.032   0.019  0.00  0.00    +0.049 A 
ATOM     13  N   UNL     1      -1.212  -0.494   0.056  0.00  0.00    -0.209 N 
ATOM     14  C   UNL     1      -2.154   0.471   0.072  0.00  0.00    +0.246 C 
ATOM     15  O   UNL     1      -3.354   0.306   0.106  0.00  0.00    -0.273 OA
ATOM     16  C   UNL     1      -1.484  -1.814   0.074  0.00  0.00    +0.223 C 
ATOM     17  O   UNL     1      -0.579  -2.620   0.058  0.00  0.00    -0.275 OA
ATOM     18  C   UNL     1      -2.914  -2.288   0.114  0.00  0.00    +0.110 C 
ATOM     19  C   UNL     1      -1.952   1.849  -2.400  0.00  0.00    +0.164 C 
ATOM     20  O   UNL     1      -1.769   0.648  -2.407  0.00  0.00    -0.292 OA
ATOM     21  C   UNL     1      -2.319   2.546  -3.682  0.00  0.00    +0.083 C 
ATOM     22  C   UNL     1      -1.827   3.996  -3.614  0.00  0.00    +0.001 C 
ATOM     23  C   UNL     1      -2.435   4.657  -2.375  0.00  0.00    +0.078 C 
ATOM     24  C   UNL     1      -2.272   4.750  -4.869  0.00  0.00    +0.008 C 
ENDROOT
BRANCH   2  25
ATOM     25  N   UNL     1      -2.261   4.646   2.321  0.00  0.00    -0.329 N 
ATOM     26  H   UNL     1      -2.817   4.249   3.010  0.00  0.00    +0.145 HD
ATOM     27  H   UNL     1      -1.917   5.546   2.433  0.00  0.00    +0.145 HD
ENDBRANCH   2  25
BRANCH   1  28
ATOM     28  C   UNL     1      -1.830   1.956   2.525  0.00  0.00    +0.342 C 
ATOM     29  O   UNL     1      -2.180   2.581   3.510  0.00  0.00    -0.245 OA
BRANCH  28  30
ATOM     30  O   UNL     1      -1.518   0.646   2.633  0.00  0.00    -0.462 OA
BRANCH  30  32
ATOM     31  C   UNL     1      -1.233  -1.419   3.857  0.00  0.00    +0.048 C 
ATOM     32  C   UNL     1      -1.622   0.059   3.932  0.00  0.00    +0.229 C 
ENDBRANCH  30  32
ENDBRANCH  28  30
ENDBRANCH   1  28
TORSDOF 4
