REMARK  Name = ZINC09281079
REMARK  9 active torsions:
REMARK  status: ('A' for Active; 'I' for Inactive)
REMARK    1  A    between atoms: C_1  and  C_2
REMARK    2  A    between atoms: C_2  and  C_3
REMARK    3  A    between atoms: C_2  and  C_4
REMARK    4  A    between atoms: C_2  and  C_5
REMARK    5  A    between atoms: C_12  and  N_25
REMARK    6  A    between atoms: C_13  and  C_14
REMARK    7  A    between atoms: N_16  and  C_17
REMARK    8  A    between atoms: C_26  and  C_28
REMARK    9  A    between atoms: C_29  and  C_30
REMARK                            x       y       z     vdW  Elec       q    Type
REMARK                         _______ _______ _______ _____ _____    ______ ____
ROOT
ATOM      1  C   UNL     1       5.491   4.199   0.353  0.00  0.00    -0.000 C 
ATOM      2  C   UNL     1       5.853   2.976  -0.494  0.00  0.00    +0.009 C 
ATOM      3  C   UNL     1       5.037   1.766  -0.037  0.00  0.00    +0.037 C 
ATOM      4  C   UNL     1       3.562   2.148  -0.020  0.00  0.00    -0.023 A 
ATOM      5  C   UNL     1       3.179   3.443  -0.009  0.00  0.00    -0.004 A 
ATOM      6  S   UNL     1       1.409   3.392  -0.001  0.00  0.00    -0.077 S 
ATOM      7  C   UNL     1       1.179   1.675  -0.000  0.00  0.00    +0.085 A 
ATOM      8  C   UNL     1       2.476   1.181  -0.015  0.00  0.00    +0.069 A 
ATOM      9  C   UNL     1       4.068   4.648  -0.010  0.00  0.00    +0.046 C 
ENDROOT
BRANCH   1  11
ATOM     10  C   UNL     1       6.101   6.559   0.899  0.00  0.00    +0.011 C 
ATOM     11  C   UNL     1       6.476   5.333   0.064  0.00  0.00    -0.035 C 
ATOM     12  C   UNL     1       7.893   4.883   0.427  0.00  0.00    +0.011 C 
ATOM     13  C   UNL     1       6.420   5.691  -1.422  0.00  0.00    +0.011 C 
ENDBRANCH   1  11
BRANCH   8  14
ATOM     14  C   UNL     1       2.742  -0.260  -0.025  0.00  0.00    +0.247 C 
ATOM     15  O   UNL     1       2.842  -0.853  -1.083  0.00  0.00    -0.270 OA
ATOM     16  N   UNL     1       2.875  -0.929   1.138  0.00  0.00    -0.307 N 
ATOM     17  H   UNL     1       2.795  -0.456   1.981  0.00  0.00    +0.149 HD
BRANCH  16  18
ATOM     18  C   UNL     1       3.140  -2.369   1.128  0.00  0.00    +0.096 C 
ATOM     19  C   UNL     1       4.654  -2.609   0.999  0.00  0.00    +0.046 C 
ATOM     20  C   UNL     1       4.935  -4.108   1.303  0.00  0.00    +0.168 C 
ATOM     21  S   UNL     1       3.796  -4.382   2.725  0.00  0.00    -0.029 S 
ATOM     22  O   UNL     1       4.502  -4.148   3.935  0.00  0.00    -0.174 OA
ATOM     23  O   UNL     1       3.113  -5.614   2.540  0.00  0.00    -0.174 OA
ATOM     24  C   UNL     1       2.618  -2.997   2.443  0.00  0.00    +0.188 C 
ENDBRANCH  16  18
ENDBRANCH   8  14
BRANCH   7  25
ATOM     25  N   UNL     1      -0.011   0.966   0.007  0.00  0.00    -0.276 N 
ATOM     26  C   UNL     1      -1.187   1.624   0.017  0.00  0.00    +0.242 C 
ATOM     27  O   UNL     1      -1.204   2.842   0.023  0.00  0.00    -0.270 OA
ATOM     28  H   UNL     1       0.002  -0.004   0.002  0.00  0.00    +0.156 HD
BRANCH  26  29
ATOM     29  C   UNL     1      -2.403   0.900   0.018  0.00  0.00    +0.071 C 
ATOM     30  C   UNL     1      -3.587   1.562   0.028  0.00  0.00    +0.051 C 
BRANCH  30  31
ATOM     31  C   UNL     1      -4.803   0.838   0.029  0.00  0.00    +0.128 A 
ATOM     32  C   UNL     1      -6.072   1.379   0.044  0.00  0.00    +0.049 A 
ATOM     33  C   UNL     1      -6.967   0.299   0.037  0.00  0.00    +0.042 A 
ATOM     34  C   UNL     1      -6.228  -0.833   0.028  0.00  0.00    +0.195 A 
ATOM     35  O   UNL     1      -4.928  -0.506   0.023  0.00  0.00    -0.464 OA
ENDBRANCH  30  31
ENDBRANCH  26  29
ENDBRANCH   7  25
TORSDOF 6
