REMARK  Name = ZINC32795224
REMARK  6 active torsions:
REMARK  status: ('A' for Active; 'I' for Inactive)
REMARK    1  A    between atoms: C_1  and  C_2
REMARK    2  A    between atoms: C_10  and  C_11
REMARK    3  A    between atoms: N_13  and  N_14
REMARK    4  A    between atoms: N_17  and  C_18
REMARK    5  A    between atoms: C_18  and  C_20
REMARK    6  A    between atoms: C_18  and  C_21
REMARK                            x       y       z     vdW  Elec       q    Type
REMARK                         _______ _______ _______ _____ _____    ______ ____
ROOT
ATOM      1  N   UNL     1      -1.191   1.870   0.018  0.00  0.00    -0.218 N 
ATOM      2  C   UNL     1      -0.014   1.212   0.009  0.00  0.00    +0.316 C 
ATOM      3  O   UNL     1       0.002  -0.004   0.002  0.00  0.00    -0.251 OA
ATOM      4  N   UNL     1       1.143   1.901   0.001  0.00  0.00    -0.292 N 
ATOM      5  H   UNL     1      -2.136   1.307   0.019  0.00  0.00    +0.174 HD
ATOM      6  H   UNL     1       1.129   3.001   0.007  0.00  0.00    +0.151 HD
ENDROOT
BRANCH   1   9
ATOM      7  C   UNL     1      -2.386   3.928   0.035  0.00  0.00    +0.296 C 
ATOM      8  O   UNL     1      -3.431   3.306   0.036  0.00  0.00    -0.265 OA
ATOM      9  N   UNL     1      -1.210   3.271   0.026  0.00  0.00    -0.227 N 
ATOM     10  H   UNL     1      -0.265   3.833   0.024  0.00  0.00    +0.173 HD
BRANCH   7  20
ATOM     11  C   UNL     1      -4.955   5.682   0.044  0.00  0.00    +0.048 C 
ATOM     12  C   UNL     1      -3.527   6.164   0.047  0.00  0.00    +0.008 A 
ATOM     13  C   UNL     1      -3.068   7.553   0.057  0.00  0.00    +0.024 A 
ATOM     14  C   UNL     1      -3.714   8.792   0.067  0.00  0.00    +0.012 A 
ATOM     15  C   UNL     1      -2.975   9.941   0.070  0.00  0.00    +0.001 A 
ATOM     16  C   UNL     1      -1.588   9.885   0.062  0.00  0.00    +0.004 A 
ATOM     17  C   UNL     1      -0.932   8.673   0.053  0.00  0.00    +0.047 A 
ATOM     18  C   UNL     1      -1.663   7.490   0.050  0.00  0.00    +0.136 A 
ATOM     19  O   UNL     1      -1.313   6.189   0.041  0.00  0.00    -0.450 OA
ATOM     20  C   UNL     1      -2.406   5.398   0.043  0.00  0.00    +0.195 A 
ENDBRANCH   7  20
ENDBRANCH   1   9
BRANCH   4  21
ATOM     21  C   UNL     1       2.422   1.186  -0.015  0.00  0.00    +0.102 C 
ATOM     22  C   UNL     1       2.819   0.820   1.417  0.00  0.00    +0.033 C 
BRANCH  21  23
ATOM     23  C   UNL     1       3.483   2.068  -0.621  0.00  0.00    -0.026 A 
ATOM     24  C   UNL     1       3.511   3.418  -0.325  0.00  0.00    +0.005 A 
ATOM     25  C   UNL     1       4.488   4.227  -0.876  0.00  0.00    +0.001 A 
ATOM     26  C   UNL     1       5.430   3.687  -1.732  0.00  0.00    +0.015 A 
ATOM     27  C   UNL     1       5.399   2.337  -2.032  0.00  0.00    +0.018 A 
ATOM     28  C   UNL     1       4.425   1.528  -1.476  0.00  0.00    +0.020 A 
ATOM     29 BR   UNL     1       6.687   1.599  -3.203  0.00  0.00    -0.050 Br
ENDBRANCH  21  23
ENDBRANCH   4  21
TORSDOF 4
