REMARK  Name = ZINC08455976
REMARK  8 active torsions:
REMARK  status: ('A' for Active; 'I' for Inactive)
REMARK    1  A    between atoms: C_1  and  C_2
REMARK    2  A    between atoms: C_5  and  C_7
REMARK    3  A    between atoms: N_9  and  C_10
REMARK    4  A    between atoms: C_13  and  C_16
REMARK    5  A    between atoms: C_16  and  C_27
REMARK    6  A    between atoms: N_17  and  N_18
REMARK    7  A    between atoms: C_19  and  C_21
REMARK    8  A    between atoms: C_21  and  C_26
REMARK                            x       y       z     vdW  Elec       q    Type
REMARK                         _______ _______ _______ _____ _____    ______ ____
ROOT
ATOM      1  C   UNL     1       3.900  -4.071   0.049  0.00  0.00    +0.034 A 
ATOM      2  C   UNL     1       3.443  -5.384   0.031  0.00  0.00    +0.024 A 
ATOM      3  C   UNL     1       4.338  -6.428   0.109  0.00  0.00    +0.011 A 
ATOM      4  C   UNL     1       5.708  -6.165   0.205  0.00  0.00    -0.002 A 
ATOM      5  C   UNL     1       6.163  -4.844   0.222  0.00  0.00    +0.011 A 
ATOM      6  C   UNL     1       5.262  -3.806   0.139  0.00  0.00    +0.024 A 
ENDROOT
BRANCH   1   9
ATOM      7  C   UNL     1       1.782  -3.121   0.560  0.00  0.00    +0.284 C 
ATOM      8  O   UNL     1       1.453  -4.166   1.091  0.00  0.00    -0.266 OA
ATOM      9  N   UNL     1       2.988  -3.015  -0.031  0.00  0.00    -0.279 N 
ATOM     10  H   UNL     1       3.224  -2.206  -0.511  0.00  0.00    +0.155 HD
BRANCH   7  15
ATOM     11  C   UNL     1      -0.082   1.455  -0.253  0.00  0.00    +0.086 C 
ATOM     12  C   UNL     1       0.043   0.026   0.211  0.00  0.00    +0.103 A 
ATOM     13  C   UNL     1      -0.898  -0.664   0.893  0.00  0.00    +0.045 A 
ATOM     14  C   UNL     1      -0.381  -1.949   1.124  0.00  0.00    +0.055 A 
ATOM     15  C   UNL     1       0.865  -1.977   0.564  0.00  0.00    +0.190 A 
ATOM     16  O   UNL     1       1.101  -0.770   0.010  0.00  0.00    -0.455 OA
ENDBRANCH   7  15
ENDBRANCH   1   9
BRANCH   4  17
ATOM     17  C   UNL     1       6.670  -7.279   0.290  0.00  0.00    +0.063 C 
ATOM     18  N   UNL     1       6.245  -8.506   0.274  0.00  0.00    -0.185 NA
ATOM     19  C   UNL     1       8.146  -6.994   0.394  0.00  0.00    +0.068 C 
BRANCH  18  20
ATOM     20  N   UNL     1       7.159  -9.564   0.354  0.00  0.00    -0.206 N 
ATOM     21  C   UNL     1       6.718 -10.838   0.339  0.00  0.00    +0.240 C 
ATOM     22  O   UNL     1       5.530 -11.067   0.255  0.00  0.00    -0.273 OA
ATOM     23  H   UNL     1       8.109  -9.381   0.421  0.00  0.00    +0.177 HD
BRANCH  21  24
ATOM     24  C   UNL     1       7.701 -11.977   0.425  0.00  0.00    +0.073 C 
ATOM     25  C   UNL     1       7.697 -12.819   1.702  0.00  0.00    +0.048 C 
ATOM     26  C   UNL     1       7.138 -13.399   0.402  0.00  0.00    +0.096 C 
ATOM     27 BR   UNL     1       5.188 -13.601   0.262  0.00  0.00    -0.071 Br
ATOM     28 BR   UNL     1       8.202 -14.782  -0.506  0.00  0.00    -0.071 Br
ATOM     29  C   UNL     1       9.048 -11.739  -0.261  0.00  0.00    +0.023 C 
ENDBRANCH  21  24
ENDBRANCH  18  20
ENDBRANCH   4  17
TORSDOF 5
