REMARK  Name = ZINC34095350
REMARK  6 active torsions:
REMARK  status: ('A' for Active; 'I' for Inactive)
REMARK    1  A    between atoms: C_1  and  C_2
REMARK    2  A    between atoms: C_4  and  C_39
REMARK    3  A    between atoms: C_6  and  N_8
REMARK    4  A    between atoms: C_16  and  C_22
REMARK    5  A    between atoms: C_27  and  C_32
REMARK    6  A    between atoms: C_29  and  C_31
REMARK                            x       y       z     vdW  Elec       q    Type
REMARK                         _______ _______ _______ _____ _____    ______ ____
ROOT
ATOM      1  N   UNL     1      -0.126  -2.912   2.325  0.00  0.00    -0.268 N 
ATOM      2  C   UNL     1      -0.134  -2.243   3.648  0.00  0.00    +0.153 C 
ATOM      3  C   UNL     1       0.405  -3.280   4.582  0.00  0.00    +0.116 C 
ATOM      4  C   UNL     1       0.093  -3.354   6.034  0.00  0.00    +0.008 C 
ATOM      5  C   UNL     1       0.970  -4.252   6.501  0.00  0.00    +0.004 C 
ATOM      6  C   UNL     1       1.844  -4.692   5.322  0.00  0.00    +0.155 C 
ATOM      7  O   UNL     1       1.846  -3.456   4.519  0.00  0.00    -0.359 OA
ATOM      8  C   UNL     1       0.962  -5.618   4.423  0.00  0.00    +0.127 C 
ATOM      9  C   UNL     1      -0.116  -4.611   3.925  0.00  0.00    +0.128 C 
ATOM     10  C   UNL     1      -0.040  -4.259   2.466  0.00  0.00    +0.227 C 
ATOM     11  O   UNL     1       0.080  -5.054   1.558  0.00  0.00    -0.275 OA
ENDROOT
BRANCH   8  12
ATOM     12  C   UNL     1       1.760  -6.165   3.267  0.00  0.00    +0.256 C 
ATOM     13  O   UNL     1       2.716  -5.551   2.845  0.00  0.00    -0.270 OA
ATOM     14  N   UNL     1       1.410  -7.338   2.702  0.00  0.00    -0.179 N 
ATOM     15  C   UNL     1       2.060  -7.941   1.649  0.00  0.00    +0.169 A 
ATOM     16  C   UNL     1       1.368  -9.137   1.381  0.00  0.00    +0.072 A 
ATOM     17  C   UNL     1       1.810  -9.966   0.348  0.00  0.00    +0.070 A 
ATOM     18  C   UNL     1       2.920  -9.571  -0.374  0.00  0.00    +0.036 A 
ATOM     19  C   UNL     1       3.552  -8.379  -0.054  0.00  0.00    +0.041 A 
ATOM     20  N   UNL     1       3.120  -7.612   0.923  0.00  0.00    -0.232 NA
ATOM     21  C   UNL     1       4.763  -7.953  -0.845  0.00  0.00    +0.065 C 
ATOM     22  C   UNL     1       0.265  -9.203   2.345  0.00  0.00    +0.149 A 
ATOM     23  N   UNL     1       0.333  -8.137   3.097  0.00  0.00    -0.147 NA
ATOM     24  N   UNL     1      -0.680 -10.221   2.444  0.00  0.00    -0.341 N 
ATOM     25  H   UNL     1      -0.643 -10.978   1.838  0.00  0.00    +0.144 HD
ATOM     26  H   UNL     1      -1.375 -10.174   3.118  0.00  0.00    +0.144 HD
BRANCH  17  27
ATOM     27  C   UNL     1       1.097 -11.255   0.030  0.00  0.00    +0.418 C 
ATOM     28  F   UNL     1       1.737 -11.891  -1.040  0.00  0.00    -0.166 F 
ATOM     29  F   UNL     1       1.122 -12.091   1.152  0.00  0.00    -0.166 F 
ATOM     30  F   UNL     1      -0.230 -10.981  -0.318  0.00  0.00    -0.166 F 
ENDBRANCH  17  27
ENDBRANCH   8  12
BRANCH   1  36
ATOM     31  C   UNL     1      -0.453   1.298  -0.193  0.00  0.00    +0.044 C 
ATOM     32  C   UNL     1      -0.360  -0.205  -0.153  0.00  0.00    -0.048 A 
ATOM     33  C   UNL     1      -0.350  -0.928  -1.332  0.00  0.00    +0.006 A 
ATOM     34  C   UNL     1      -0.265  -2.308  -1.300  0.00  0.00    -0.048 A 
ATOM     35  C   UNL     1      -0.190  -2.969  -0.089  0.00  0.00    +0.027 A 
ATOM     36  C   UNL     1      -0.201  -2.246   1.097  0.00  0.00    +0.037 A 
ATOM     37  C   UNL     1      -0.281  -0.860   1.061  0.00  0.00    +0.027 A 
ATOM     38  C   UNL     1      -0.255  -3.092  -2.587  0.00  0.00    +0.044 C 
ENDBRANCH   1  36
TORSDOF 3
