REMARK  Name = ZINC48837294
REMARK  3 active torsions:
REMARK  status: ('A' for Active; 'I' for Inactive)
REMARK    1  A    between atoms: C_3  and  C_19
REMARK    2  A    between atoms: C_4  and  N_8
REMARK    3  A    between atoms: C_15  and  N_18
REMARK                            x       y       z     vdW  Elec       q    Type
REMARK                         _______ _______ _______ _____ _____    ______ ____
ROOT
ATOM      1  N   UNL     1       3.570  -0.665  -0.026  0.00  0.00    -0.268 N 
ATOM      2  C   UNL     1       3.562  -2.010  -0.122  0.00  0.00    +0.306 C 
ATOM      3  O   UNL     1       2.512  -2.600  -0.289  0.00  0.00    -0.252 OA
ATOM      4  N   UNL     1       4.716  -2.699  -0.032  0.00  0.00    -0.287 N 
ATOM      5  C   UNL     1       6.002  -1.995   0.066  0.00  0.00    +0.109 C 
ATOM      6  C   UNL     1       6.755  -2.513   1.295  0.00  0.00    +0.017 C 
ATOM      7  C   UNL     1       6.877  -4.036   1.210  0.00  0.00    -0.013 C 
ATOM      8  C   UNL     1       5.480  -4.662   1.200  0.00  0.00    -0.057 C 
ATOM      9  C   UNL     1       4.712  -4.168  -0.025  0.00  0.00    +0.093 C 
ATOM     10  H   UNL     1       4.413  -0.188   0.029  0.00  0.00    +0.156 HD
ENDROOT
BRANCH   1  14
ATOM     11  C   UNL     1      -0.028   1.444   0.032  0.00  0.00    +0.016 A 
ATOM     12  C   UNL     1       1.069   1.998  -0.591  0.00  0.00    +0.018 A 
ATOM     13  C   UNL     1       2.281   1.301  -0.618  0.00  0.00    +0.084 A 
ATOM     14  C   UNL     1       2.370   0.039  -0.007  0.00  0.00    +0.050 A 
ATOM     15  C   UNL     1       1.254  -0.503   0.616  0.00  0.00    +0.039 A 
ATOM     16  C   UNL     1       0.063   0.198   0.634  0.00  0.00    +0.020 A 
ATOM     17 BR   UNL     1      -1.452  -0.547   1.485  0.00  0.00    -0.050 Br
BRANCH  13  18
ATOM     18  C   UNL     1       3.456   1.886  -1.281  0.00  0.00    +0.388 C 
ATOM     19  O   UNL     1       3.352   2.942  -1.890  0.00  0.00    -0.241 OA
ATOM     20  O   UNL     1       4.538   1.316  -1.225  0.00  0.00    -0.241 OA
ENDBRANCH  13  18
ENDBRANCH   1  14
BRANCH   8  21
ATOM     21  N   UNL     1       5.598  -6.125   1.151  0.00  0.00    +0.381 N 
ATOM     22  H   UNL     1       6.106  -6.449   1.960  0.00  0.00    -0.090 HD
ATOM     23  H   UNL     1       4.677  -6.537   1.144  0.00  0.00    -0.090 HD
ATOM     24  H   UNL     1       6.093  -6.394   0.313  0.00  0.00    -0.090 HD
ENDBRANCH   8  21
TORSDOF 3
