REMARK  Name = ZINC20153100
REMARK  8 active torsions:
REMARK  status: ('A' for Active; 'I' for Inactive)
REMARK    1  A    between atoms: C_1  and  C_2
REMARK    2  A    between atoms: N_5  and  C_8
REMARK    3  A    between atoms: C_11  and  C_17
REMARK    4  A    between atoms: C_13  and  N_14
REMARK    5  A    between atoms: N_19  and  C_20
REMARK    6  A    between atoms: C_20  and  N_22
REMARK    7  A    between atoms: N_22  and  C_23
REMARK    8  A    between atoms: C_26  and  C_29
REMARK                            x       y       z     vdW  Elec       q    Type
REMARK                         _______ _______ _______ _____ _____    ______ ____
ROOT
ATOM      1  C   UNL     1      -3.083  -6.430   4.371  0.00  0.00    +0.250 C 
ATOM      2  O   UNL     1      -3.792  -6.073   5.292  0.00  0.00    -0.270 OA
ATOM      3  N   UNL     1      -2.768  -7.732   4.229  0.00  0.00    -0.264 N 
ATOM      4  H   UNL     1      -2.202  -8.017   3.494  0.00  0.00    +0.157 HD
ENDROOT
BRANCH   1   8
ATOM      5  C   UNL     1      -1.599  -3.580   1.603  0.00  0.00    +0.060 A 
ATOM      6  C   UNL     1      -1.275  -4.926   1.460  0.00  0.00    +0.026 A 
ATOM      7  C   UNL     1      -1.752  -5.846   2.350  0.00  0.00    +0.015 A 
ATOM      8  C   UNL     1      -2.568  -5.437   3.410  0.00  0.00    +0.039 A 
ATOM      9  C   UNL     1      -2.894  -4.085   3.556  0.00  0.00    +0.047 A 
ATOM     10  C   UNL     1      -2.406  -3.163   2.658  0.00  0.00    +0.148 A 
BRANCH   5  15
ATOM     11  C   UNL     1       1.323  -1.812  -2.696  0.00  0.00    +0.007 C 
ATOM     12  C   UNL     1       0.369  -1.667  -1.508  0.00  0.00    -0.011 C 
ATOM     13  C   UNL     1       1.082  -2.099  -0.225  0.00  0.00    +0.022 C 
ATOM     14  C   UNL     1       0.136  -1.919   0.966  0.00  0.00    +0.105 C 
ATOM     15  N   UNL     1      -1.110  -2.648   0.694  0.00  0.00    -0.328 N 
ATOM     16  C   UNL     1      -1.830  -2.375  -0.557  0.00  0.00    +0.105 C 
ATOM     17  C   UNL     1      -0.862  -2.549  -1.731  0.00  0.00    +0.022 C 
ENDBRANCH   5  15
BRANCH  10  18
ATOM     18  N   UNL     1      -2.744  -1.730   2.812  0.00  0.00    +0.058 N 
ATOM     19  O   UNL     1      -3.364  -1.355   3.779  0.00  0.00    -0.126 OA
ATOM     20  O   UNL     1      -2.400  -0.934   1.969  0.00  0.00    -0.126 OA
ENDBRANCH  10  18
ENDBRANCH   1   8
BRANCH   3  21
ATOM     21  C   UNL     1      -3.239  -8.639   5.107  0.00  0.00    +0.141 C 
ATOM     22  S   UNL     1      -4.238  -8.137   6.404  0.00  0.00    -0.018 S 
BRANCH  21  23
ATOM     23  N   UNL     1      -2.924  -9.942   4.965  0.00  0.00    -0.297 N 
ATOM     24  H   UNL     1      -2.292 -10.216   4.281  0.00  0.00    +0.154 HD
BRANCH  23  25
ATOM     25  C   UNL     1      -3.504 -10.894   5.798  0.00  0.00    +0.033 A 
ATOM     26  C   UNL     1      -4.856 -10.804   6.119  0.00  0.00    +0.024 A 
ATOM     27  C   UNL     1      -5.432 -11.739   6.939  0.00  0.00    +0.017 A 
ATOM     28  C   UNL     1      -4.659 -12.786   7.455  0.00  0.00    +0.063 A 
ATOM     29  C   UNL     1      -3.300 -12.873   7.130  0.00  0.00    +0.017 A 
ATOM     30  C   UNL     1      -2.733 -11.937   6.305  0.00  0.00    +0.024 A 
BRANCH  28  31
ATOM     31  C   UNL     1      -5.272 -13.792   8.336  0.00  0.00    +0.387 C 
ATOM     32  O   UNL     1      -6.460 -13.714   8.620  0.00  0.00    -0.241 OA
ATOM     33  O   UNL     1      -4.595 -14.706   8.786  0.00  0.00    -0.241 OA
ENDBRANCH  28  31
ENDBRANCH  23  25
ENDBRANCH  21  23
ENDBRANCH   3  21
TORSDOF 7
