REMARK  Name = ZINC54599737
REMARK  5 active torsions:
REMARK  status: ('A' for Active; 'I' for Inactive)
REMARK    1  A    between atoms: C_1  and  C_2
REMARK    2  A    between atoms: C_5  and  C_8
REMARK    3  A    between atoms: C_10  and  N_21
REMARK    4  A    between atoms: N_11  and  C_13
REMARK    5  A    between atoms: C_18  and  O_20
REMARK                            x       y       z     vdW  Elec       q    Type
REMARK                         _______ _______ _______ _____ _____    ______ ____
ROOT
ATOM      1  C   UNL     1       0.058  -4.256  -0.021  0.00  0.00    +0.095 A 
ATOM      2  C   UNL     1       0.069  -5.088   1.114  0.00  0.00    +0.073 A 
ATOM      3  C   UNL     1       0.085  -6.378   0.683  0.00  0.00    +0.115 A 
ATOM      4  N   UNL     1       0.085  -6.360  -0.675  0.00  0.00    -0.245 N 
ATOM      5  N   UNL     1       0.062  -5.022  -1.091  0.00  0.00    -0.169 NA
ENDROOT
BRANCH   1  10
ATOM      6  C   UNL     1      -0.018   1.503   0.010  0.00  0.00    +0.044 C 
ATOM      7  C   UNL     1       0.002  -0.004   0.002  0.00  0.00    -0.050 A 
ATOM      8  C   UNL     1       0.006  -0.686  -1.201  0.00  0.00    +0.004 A 
ATOM      9  C   UNL     1       0.024  -2.067  -1.214  0.00  0.00    +0.010 A 
ATOM     10  C   UNL     1       0.039  -2.772  -0.013  0.00  0.00    +0.002 A 
ATOM     11  C   UNL     1       0.036  -2.080   1.196  0.00  0.00    +0.010 A 
ATOM     12  C   UNL     1       0.023  -0.700   1.198  0.00  0.00    +0.004 A 
ENDBRANCH   1  10
BRANCH   4  13
ATOM     13  C   UNL     1       0.100  -7.534  -1.552  0.00  0.00    +0.138 C 
ATOM     14  C   UNL     1       1.327  -7.480  -2.485  0.00  0.00    +0.029 C 
ATOM     15  C   UNL     1       0.807  -8.051  -3.828  0.00  0.00    +0.005 C 
ATOM     16  C   UNL     1      -0.628  -7.475  -3.912  0.00  0.00    +0.033 C 
ATOM     17  C   UNL     1      -1.144  -7.531  -2.458  0.00  0.00    +0.139 C 
BRANCH  17  18
ATOM     18  O   UNL     1      -1.950  -6.384  -2.179  0.00  0.00    -0.390 OA
ATOM     19  H   UNL     1      -2.750  -6.325  -2.719  0.00  0.00    +0.210 HD
ENDBRANCH  17  18
ENDBRANCH   4  13
BRANCH   3  20
ATOM     20  N   UNL     1       0.100  -7.513   1.490  0.00  0.00    -0.343 N 
ATOM     21  H   UNL     1       0.099  -7.421   2.455  0.00  0.00    +0.144 HD
ATOM     22  H   UNL     1       0.112  -8.394   1.086  0.00  0.00    +0.144 HD
ENDBRANCH   3  20
TORSDOF 4
