REMARK  Name = ZINC02888154
REMARK  10 active torsions:
REMARK  status: ('A' for Active; 'I' for Inactive)
REMARK    1  A    between atoms: C_1  and  C_2
REMARK    2  A    between atoms: C_5  and  O_33
REMARK    3  A    between atoms: C_6  and  N_8
REMARK    4  A    between atoms: C_9  and  C_11
REMARK    5  A    between atoms: C_12  and  C_22
REMARK    6  A    between atoms: C_19  and  C_21
REMARK    7  A    between atoms: N_24  and  C_25
REMARK    8  A    between atoms: C_29  and  C_32
REMARK    9  A    between atoms: C_30  and  C_31
REMARK   10  A    between atoms: O_33  and  C_34
REMARK                            x       y       z     vdW  Elec       q    Type
REMARK                         _______ _______ _______ _____ _____    ______ ____
ROOT
ATOM      1  C   UNL     1      -0.534  -2.923   4.819  0.00  0.00    +0.133 A 
ATOM      2  C   UNL     1      -0.212  -4.246   4.934  0.00  0.00    +0.106 A 
ATOM      3  S   UNL     1       0.071  -4.400   6.690  0.00  0.00    -0.044 S 
ATOM      4  C   UNL     1      -0.257  -2.708   7.135  0.00  0.00    +0.182 A 
ATOM      5  N   UNL     1      -0.557  -2.120   5.935  0.00  0.00    -0.249 N 
ATOM      6  C   UNL     1      -0.855  -0.786   5.971  0.00  0.00    +0.260 A 
ATOM      7  O   UNL     1      -1.137  -0.195   4.941  0.00  0.00    -0.267 OA
ATOM      8  C   UNL     1      -0.837  -0.101   7.187  0.00  0.00    +0.093 A 
ATOM      9  C   UNL     1      -0.521  -0.767   8.339  0.00  0.00    +0.046 A 
ATOM     10  N   UNL     1      -0.244  -2.068   8.276  0.00  0.00    -0.228 NA
ATOM     11  C   UNL     1      -0.496  -0.043   9.660  0.00  0.00    +0.066 C 
ENDROOT
BRANCH   1  13
ATOM     12  N   UNL     1       0.134  -1.863   2.723  0.00  0.00    -0.277 N 
ATOM     13  C   UNL     1      -0.851  -2.356   3.499  0.00  0.00    +0.267 C 
ATOM     14  O   UNL     1      -2.003  -2.332   3.107  0.00  0.00    -0.268 OA
ATOM     15  H   UNL     1       1.059  -1.941   3.005  0.00  0.00    +0.155 HD
BRANCH  12  21
ATOM     16  C   UNL     1      -3.168   0.334  -0.181  0.00  0.00    +0.044 C 
ATOM     17  C   UNL     1      -1.769  -0.163   0.074  0.00  0.00    -0.048 A 
ATOM     18  C   UNL     1      -0.793  -0.001  -0.892  0.00  0.00    +0.007 A 
ATOM     19  C   UNL     1       0.493  -0.455  -0.663  0.00  0.00    +0.048 A 
ATOM     20  C   UNL     1       0.807  -1.074   0.536  0.00  0.00    +0.141 A 
ATOM     21  C   UNL     1      -0.176  -1.238   1.509  0.00  0.00    +0.076 A 
ATOM     22  C   UNL     1      -1.463  -0.774   1.275  0.00  0.00    +0.030 A 
BRANCH  20  23
ATOM     23  O   UNL     1       2.071  -1.522   0.761  0.00  0.00    -0.493 OA
ATOM     24  C   UNL     1       2.998  -1.421  -0.321  0.00  0.00    +0.277 C 
ENDBRANCH  20  23
ENDBRANCH  12  21
ENDBRANCH   1  13
BRANCH   2  25
ATOM     25  C   UNL     1      -0.123  -5.277   3.882  0.00  0.00    +0.257 C 
ATOM     26  O   UNL     1      -0.260  -4.968   2.714  0.00  0.00    -0.269 OA
ATOM     27  N   UNL     1       0.111  -6.562   4.216  0.00  0.00    -0.281 N 
ATOM     28  H   UNL     1       0.147  -6.822   5.150  0.00  0.00    +0.155 HD
BRANCH  27  29
ATOM     29  C   UNL     1       0.301  -7.521   3.216  0.00  0.00    +0.037 A 
ATOM     30  C   UNL     1       0.647  -7.126   1.930  0.00  0.00    +0.023 A 
ATOM     31  C   UNL     1       0.835  -8.075   0.945  0.00  0.00    +0.002 A 
ATOM     32  C   UNL     1       0.678  -9.418   1.238  0.00  0.00    +0.004 A 
ATOM     33  C   UNL     1       0.334  -9.814   2.517  0.00  0.00    -0.046 A 
ATOM     34  C   UNL     1       0.150  -8.870   3.508  0.00  0.00    -0.026 A 
ATOM     35  C   UNL     1      -0.219  -9.303   4.903  0.00  0.00    +0.046 C 
ATOM     36  C   UNL     1       0.163 -11.278   2.830  0.00  0.00    +0.044 C 
ENDBRANCH  27  29
ENDBRANCH   2  25
TORSDOF 5
