REMARK  Name = ZINC39637524
REMARK  5 active torsions:
REMARK  status: ('A' for Active; 'I' for Inactive)
REMARK    1  A    between atoms: C_1  and  C_2
REMARK    2  A    between atoms: C_7  and  N_12
REMARK    3  A    between atoms: C_9  and  C_11
REMARK    4  A    between atoms: C_13  and  C_15
REMARK    5  A    between atoms: C_26  and  C_28
REMARK                            x       y       z     vdW  Elec       q    Type
REMARK                         _______ _______ _______ _____ _____    ______ ____
ROOT
ATOM      1  C   UNL     1       1.932  -4.261   4.128  0.00  0.00    +0.100 C 
ATOM      2  C   UNL     1       3.428  -4.479   3.811  0.00  0.00    +0.121 C 
ATOM      3  N   UNL     1       3.797  -5.699   4.568  0.00  0.00    -0.295 N 
ATOM      4  C   UNL     1       2.622  -6.591   4.424  0.00  0.00    +0.115 C 
ATOM      5  C   UNL     1       1.406  -5.650   4.529  0.00  0.00    -0.004 C 
ATOM      6  C   UNL     1       0.309  -6.097   3.567  0.00  0.00    -0.010 C 
ATOM      7  C   UNL     1      -0.238  -7.453   4.020  0.00  0.00    -0.082 C 
ATOM      8  N   UNL     1      -0.771  -7.338   5.383  0.00  0.00    +0.379 N 
ATOM      9  C   UNL     1       0.311  -6.999   6.316  0.00  0.00    -0.082 C 
ATOM     10  C   UNL     1       0.881  -5.623   5.961  0.00  0.00    -0.010 C 
ATOM     11  C   UNL     1       4.942  -5.941   5.237  0.00  0.00    +0.265 C 
ATOM     12  O   UNL     1       5.129  -7.029   5.745  0.00  0.00    -0.268 OA
ATOM     13  H   UNL     1      -1.474  -6.615   5.408  0.00  0.00    -0.086 HD
ATOM     14  H   UNL     1      -1.185  -8.217   5.657  0.00  0.00    -0.086 HD
ENDROOT
BRANCH  11  15
ATOM     15  C   UNL     1       5.972  -4.882   5.351  0.00  0.00    +0.126 A 
ATOM     16  C   UNL     1       7.204  -5.186   5.950  0.00  0.00    +0.033 A 
ATOM     17  C   UNL     1       8.162  -4.219   6.061  0.00  0.00    +0.012 A 
ATOM     18  C   UNL     1       7.872  -2.934   5.564  0.00  0.00    +0.000 A 
ATOM     19  C   UNL     1       8.810  -1.893   5.644  0.00  0.00    +0.010 A 
ATOM     20  C   UNL     1       8.496  -0.663   5.152  0.00  0.00    +0.001 A 
ATOM     21  C   UNL     1       7.253  -0.422   4.568  0.00  0.00    +0.002 A 
ATOM     22  C   UNL     1       6.319  -1.406   4.472  0.00  0.00    +0.028 A 
ATOM     23  C   UNL     1       6.606  -2.692   4.969  0.00  0.00    +0.072 A 
ATOM     24  N   UNL     1       5.712  -3.676   4.883  0.00  0.00    -0.242 NA
ENDBRANCH  11  15
BRANCH   1  26
ATOM     25  N   UNL     1       0.035  -3.103   3.042  0.00  0.00    -0.312 N 
ATOM     26  C   UNL     1       1.205  -3.757   2.908  0.00  0.00    +0.218 C 
ATOM     27  O   UNL     1       1.674  -3.940   1.804  0.00  0.00    -0.275 OA
ATOM     28  H   UNL     1      -0.340  -2.956   3.925  0.00  0.00    +0.149 HD
BRANCH  25  34
ATOM     29  C   UNL     1      -4.396  -1.857   1.236  0.00  0.00    +0.008 C 
ATOM     30  C   UNL     1      -2.902  -1.979   0.926  0.00  0.00    -0.009 C 
ATOM     31  C   UNL     1      -2.349  -0.608   0.534  0.00  0.00    +0.003 C 
ATOM     32  C   UNL     1      -0.856  -0.730   0.224  0.00  0.00    +0.002 C 
ATOM     33  C   UNL     1      -0.118  -1.241   1.463  0.00  0.00    +0.022 C 
ATOM     34  C   UNL     1      -0.671  -2.613   1.856  0.00  0.00    +0.076 C 
ATOM     35  C   UNL     1      -2.165  -2.491   2.166  0.00  0.00    +0.009 C 
ATOM     36  C   UNL     1      -2.718  -3.862   2.558  0.00  0.00    +0.009 C 
ENDBRANCH  25  34
ENDBRANCH   1  26
TORSDOF 3
