REMARK  Name = ZINC34976349
REMARK  8 active torsions:
REMARK  status: ('A' for Active; 'I' for Inactive)
REMARK    1  A    between atoms: C_4  and  C_7
REMARK    2  A    between atoms: C_7  and  N_8
REMARK    3  A    between atoms: N_11  and  C_12
REMARK    4  A    between atoms: C_12  and  C_13
REMARK    5  A    between atoms: C_13  and  N_14
REMARK    6  A    between atoms: N_14  and  C_15
REMARK    7  A    between atoms: N_24  and  C_25
REMARK    8  A    between atoms: C_29  and  C_31
REMARK                            x       y       z     vdW  Elec       q    Type
REMARK                         _______ _______ _______ _____ _____    ______ ____
ROOT
ATOM      1  N   UNL     1       8.934  -3.700   4.622  0.00  0.00    -0.254 N 
ATOM      2  C   UNL     1       9.032  -4.960   5.092  0.00  0.00    +0.311 C 
ATOM      3  O   UNL     1       8.298  -5.828   4.661  0.00  0.00    -0.252 OA
ATOM      4  N   UNL     1       9.943  -5.256   6.040  0.00  0.00    -0.269 N 
ATOM      5  H   UNL     1      10.438  -4.545   6.476  0.00  0.00    +0.156 HD
ENDROOT
BRANCH   1   6
ATOM      6  C   UNL     1       9.883  -2.739   4.992  0.00  0.00    +0.038 A 
ATOM      7  C   UNL     1      11.197  -2.857   4.558  0.00  0.00    +0.026 A 
ATOM      8  C   UNL     1      12.132  -1.908   4.923  0.00  0.00    +0.040 A 
ATOM      9  C   UNL     1      11.759  -0.840   5.722  0.00  0.00    +0.124 A 
ATOM     10  C   UNL     1      10.450  -0.720   6.155  0.00  0.00    +0.040 A 
ATOM     11  C   UNL     1       9.511  -1.664   5.787  0.00  0.00    +0.026 A 
ATOM     12  F   UNL     1      12.675   0.087   6.078  0.00  0.00    -0.205 F 
ENDBRANCH   1   6
BRANCH   4  13
ATOM     13  C   UNL     1      10.175  -6.590   6.395  0.00  0.00    +0.035 A 
ATOM     14  C   UNL     1       9.170  -7.536   6.239  0.00  0.00    +0.023 A 
ATOM     15  C   UNL     1       9.402  -8.851   6.590  0.00  0.00    +0.002 A 
ATOM     16  C   UNL     1      10.633  -9.227   7.096  0.00  0.00    +0.012 A 
ATOM     17  C   UNL     1      11.635  -8.287   7.253  0.00  0.00    +0.057 A 
ATOM     18  C   UNL     1      11.411  -6.971   6.898  0.00  0.00    +0.035 A 
BRANCH  17  19
ATOM     19  C   UNL     1      12.974  -8.700   7.806  0.00  0.00    +0.417 C 
ATOM     20  F   UNL     1      12.961 -10.072   8.084  0.00  0.00    -0.166 F 
ATOM     21  F   UNL     1      13.972  -8.425   6.865  0.00  0.00    -0.166 F 
ATOM     22  F   UNL     1      13.233  -7.989   8.982  0.00  0.00    -0.166 F 
ENDBRANCH  17  19
ENDBRANCH   4  13
BRANCH   1  23
ATOM     23  C   UNL     1       7.834  -3.337   3.725  0.00  0.00    +0.134 C 
BRANCH  23  24
ATOM     24  C   UNL     1       8.261  -3.572   2.274  0.00  0.00    +0.125 C 
BRANCH  24  28
ATOM     25  N   UNL     1       6.299  -3.000  -0.782  0.00  0.00    -0.295 N 
ATOM     26  C   UNL     1       7.310  -3.334   0.043  0.00  0.00    +0.300 C 
ATOM     27  O   UNL     1       8.357  -3.749  -0.415  0.00  0.00    -0.253 OA
ATOM     28  N   UNL     1       7.161  -3.208   1.377  0.00  0.00    -0.298 N 
ATOM     29  H   UNL     1       5.464  -2.668  -0.417  0.00  0.00    +0.151 HD
ATOM     30  H   UNL     1       6.326  -2.877   1.743  0.00  0.00    +0.150 HD
BRANCH  25  31
ATOM     31  C   UNL     1       6.461  -3.136  -2.232  0.00  0.00    +0.141 C 
BRANCH  31  35
ATOM     32  C   UNL     1       2.872  -1.899  -4.191  0.00  0.00    +0.000 A 
ATOM     33  C   UNL     1       3.871  -0.979  -3.932  0.00  0.00    +0.000 A 
ATOM     34  C   UNL     1       5.032  -1.379  -3.297  0.00  0.00    +0.005 A 
ATOM     35  C   UNL     1       5.194  -2.699  -2.922  0.00  0.00    -0.030 A 
ATOM     36  C   UNL     1       4.196  -3.619  -3.180  0.00  0.00    +0.005 A 
ATOM     37  C   UNL     1       3.035  -3.219  -3.816  0.00  0.00    +0.000 A 
ENDBRANCH  31  35
ENDBRANCH  25  31
ENDBRANCH  24  28
ENDBRANCH  23  24
ENDBRANCH   1  23
TORSDOF 8
