REMARK  Name = ZINC66197965
REMARK  6 active torsions:
REMARK  status: ('A' for Active; 'I' for Inactive)
REMARK    1  A    between atoms: C_4  and  N_7
REMARK    2  A    between atoms: C_8  and  C_10
REMARK    3  A    between atoms: C_14  and  N_16
REMARK    4  A    between atoms: N_16  and  C_17
REMARK    5  A    between atoms: C_17  and  N_19
REMARK    6  A    between atoms: C_20  and  C_22
REMARK                            x       y       z     vdW  Elec       q    Type
REMARK                         _______ _______ _______ _____ _____    ______ ____
ROOT
ATOM      1  C   UNL     1       4.981  -2.737  -0.208  0.00  0.00    +0.039 A 
ATOM      2  C   UNL     1       6.096  -1.988   0.172  0.00  0.00    +0.013 A 
ATOM      3  C   UNL     1       7.232  -2.624   0.630  0.00  0.00    +0.003 A 
ATOM      4  C   UNL     1       7.271  -4.004   0.713  0.00  0.00    +0.023 A 
ATOM      5  C   UNL     1       6.167  -4.759   0.337  0.00  0.00    +0.033 A 
ATOM      6  C   UNL     1       5.018  -4.129  -0.118  0.00  0.00    +0.036 A 
ENDROOT
BRANCH   1   8
ATOM      7  N   UNL     1       3.730  -0.714  -0.786  0.00  0.00    -0.282 N 
ATOM      8  C   UNL     1       3.764  -2.058  -0.699  0.00  0.00    +0.248 C 
ATOM      9  O   UNL     1       2.792  -2.712  -1.025  0.00  0.00    -0.270 OA
ATOM     10  H   UNL     1       4.534  -0.197  -0.618  0.00  0.00    +0.155 HD
BRANCH   7  14
ATOM     11  C   UNL     1       0.177   1.223  -1.773  0.00  0.00    +0.000 A 
ATOM     12  C   UNL     1       0.147   0.083  -0.991  0.00  0.00    +0.002 A 
ATOM     13  C   UNL     1       1.323  -0.561  -0.662  0.00  0.00    +0.023 A 
ATOM     14  C   UNL     1       2.538  -0.064  -1.117  0.00  0.00    +0.034 A 
ATOM     15  C   UNL     1       2.564   1.082  -1.903  0.00  0.00    +0.023 A 
ATOM     16  C   UNL     1       1.384   1.722  -2.228  0.00  0.00    +0.002 A 
ENDBRANCH   7  14
ENDBRANCH   1   8
BRANCH   5  17
ATOM     17  N   UNL     1       6.211  -6.154   0.423  0.00  0.00    -0.297 N 
ATOM     18  H   UNL     1       6.558  -6.580   1.222  0.00  0.00    +0.154 HD
BRANCH  17  19
ATOM     19  C   UNL     1       5.773  -6.907  -0.606  0.00  0.00    +0.141 C 
ATOM     20  S   UNL     1       5.059  -6.160  -1.970  0.00  0.00    -0.018 S 
BRANCH  19  21
ATOM     21  N   UNL     1       5.897  -8.248  -0.560  0.00  0.00    -0.263 N 
ATOM     22  C   UNL     1       5.459  -9.001  -1.589  0.00  0.00    +0.252 C 
ATOM     23  O   UNL     1       4.952  -8.470  -2.558  0.00  0.00    -0.270 OA
ATOM     24  H   UNL     1       6.302  -8.672   0.213  0.00  0.00    +0.157 HD
BRANCH  22  25
ATOM     25  C   UNL     1       5.595 -10.470  -1.539  0.00  0.00    +0.072 A 
ATOM     26  C   UNL     1       6.172 -11.084  -0.424  0.00  0.00    +0.016 A 
ATOM     27  C   UNL     1       6.295 -12.457  -0.384  0.00  0.00    +0.001 A 
ATOM     28  C   UNL     1       5.850 -13.228  -1.444  0.00  0.00    +0.003 A 
ATOM     29  C   UNL     1       5.278 -12.630  -2.551  0.00  0.00    +0.039 A 
ATOM     30  C   UNL     1       5.142 -11.255  -2.604  0.00  0.00    +0.135 A 
ATOM     31  F   UNL     1       4.578 -10.671  -3.684  0.00  0.00    -0.205 F 
ENDBRANCH  22  25
ENDBRANCH  19  21
ENDBRANCH  17  19
ENDBRANCH   5  17
TORSDOF 6
