REMARK  Name = ZINC08416964
REMARK  6 active torsions:
REMARK  status: ('A' for Active; 'I' for Inactive)
REMARK    1  A    between atoms: C_4  and  C_7
REMARK    2  A    between atoms: C_14  and  N_18
REMARK    3  A    between atoms: C_15  and  C_16
REMARK    4  A    between atoms: C_19  and  C_21
REMARK    5  A    between atoms: C_21  and  S_22
REMARK    6  A    between atoms: S_22  and  C_23
REMARK                            x       y       z     vdW  Elec       q    Type
REMARK                         _______ _______ _______ _____ _____    ______ ____
ROOT
ATOM      1  C   UNL     1       3.629  10.658  -0.354  0.00  0.00    +0.024 C 
ATOM      2  C   UNL     1       4.851  10.241   0.470  0.00  0.00    +0.013 C 
ATOM      3  C   UNL     1       5.353   8.875   0.000  0.00  0.00    +0.038 C 
ATOM      4  C   UNL     1       4.185   7.896   0.005  0.00  0.00    -0.018 A 
ATOM      5  C   UNL     1       2.908   8.337   0.019  0.00  0.00    -0.003 A 
ATOM      6  S   UNL     1       1.922   6.866   0.013  0.00  0.00    -0.077 S 
ATOM      7  C   UNL     1       3.187   5.682   0.002  0.00  0.00    +0.090 A 
ATOM      8  C   UNL     1       4.341   6.452  -0.005  0.00  0.00    +0.084 A 
ATOM      9  C   UNL     1       2.444   9.760   0.030  0.00  0.00    +0.051 C 
ENDROOT
BRANCH   1  13
ATOM     10  C   UNL     1       2.670  14.738   0.472  0.00  0.00    +0.000 A 
ATOM     11  C   UNL     1       2.989  14.350  -0.816  0.00  0.00    +0.000 A 
ATOM     12  C   UNL     1       3.299  13.030  -1.083  0.00  0.00    +0.004 A 
ATOM     13  C   UNL     1       3.291  12.098  -0.062  0.00  0.00    -0.044 A 
ATOM     14  C   UNL     1       2.967  12.485   1.225  0.00  0.00    +0.004 A 
ATOM     15  C   UNL     1       2.661  13.806   1.493  0.00  0.00    +0.000 A 
ENDBRANCH   1  13
BRANCH   7  16
ATOM     16  N   UNL     1       3.074   4.299  -0.004  0.00  0.00    -0.278 N 
ATOM     17  C   UNL     1       1.855   3.722   0.004  0.00  0.00    +0.228 C 
ATOM     18  O   UNL     1       0.858   4.413   0.018  0.00  0.00    -0.275 OA
ATOM     19  H   UNL     1       3.871   3.747  -0.015  0.00  0.00    +0.155 HD
BRANCH  17  20
ATOM     20  C   UNL     1       1.732   2.220  -0.003  0.00  0.00    +0.172 C 
BRANCH  20  21
ATOM     21  S   UNL     1      -0.022   1.758   0.012  0.00  0.00    -0.088 S 
BRANCH  21  22
ATOM     22  C   UNL     1       0.002  -0.004   0.002  0.00  0.00    +0.160 A 
ATOM     23  N   UNL     1       1.034  -0.826  -0.018  0.00  0.00    -0.133 NA
ATOM     24  N   UNL     1       0.825  -2.186  -0.018  0.00  0.00    -0.125 NA
ATOM     25  C   UNL     1      -0.405  -2.661  -0.008  0.00  0.00    +0.180 A 
ATOM     26  S   UNL     1      -1.364  -1.155   0.009  0.00  0.00    -0.025 S 
ATOM     27  N   UNL     1      -0.839  -3.982  -0.012  0.00  0.00    -0.336 N 
ATOM     28  H   UNL     1      -1.788  -4.181  -0.004  0.00  0.00    +0.144 HD
ATOM     29  H   UNL     1      -0.192  -4.705  -0.022  0.00  0.00    +0.144 HD
ENDBRANCH  21  22
ENDBRANCH  20  21
ENDBRANCH  17  20
ENDBRANCH   7  16
BRANCH   8  30
ATOM     30  C   UNL     1       5.638   5.845  -0.021  0.00  0.00    +0.102 C 
ATOM     31  N   UNL     1       6.667   5.364  -0.034  0.00  0.00    -0.191 NA
ENDBRANCH   8  30
TORSDOF 6
