REMARK  Name = ZINC39676552
REMARK  13 active torsions:
REMARK  status: ('A' for Active; 'I' for Inactive)
REMARK    1  A    between atoms: C_1  and  C_2
REMARK    2  A    between atoms: C_2  and  C_3
REMARK    3  A    between atoms: C_3  and  C_4
REMARK    4  A    between atoms: C_4  and  C_6
REMARK    5  A    between atoms: C_4  and  C_7
REMARK    6  A    between atoms: C_11  and  C_20
REMARK    7  A    between atoms: N_22  and  C_23
REMARK    8  A    between atoms: C_23  and  C_24
REMARK    9  A    between atoms: C_23  and  C_32
REMARK   10  A    between atoms: C_27  and  O_30
REMARK   11  A    between atoms: O_30  and  C_31
REMARK   12  A    between atoms: C_35  and  O_38
REMARK   13  A    between atoms: O_38  and  C_39
REMARK                            x       y       z     vdW  Elec       q    Type
REMARK                         _______ _______ _______ _____ _____    ______ ____
ROOT
ATOM      1  C   UNL     1       0.364  -7.446  -2.675  0.00  0.00    +0.219 C 
ATOM      2  O   UNL     1       1.131  -7.808  -1.808  0.00  0.00    -0.275 OA
ATOM      3  N   UNL     1      -0.522  -8.318  -3.196  0.00  0.00    -0.304 N 
ATOM      4  H   UNL     1      -1.136  -8.028  -3.889  0.00  0.00    +0.150 HD
ENDROOT
BRANCH   1   9
ATOM      5  C   UNL     1       1.789  -2.745  -2.502  0.00  0.00    +0.218 C 
ATOM      6  O   UNL     1       2.451  -2.031  -3.224  0.00  0.00    -0.275 OA
ATOM      7  N   UNL     1       1.721  -4.070  -2.742  0.00  0.00    -0.300 N 
ATOM      8  C   UNL     1       0.886  -5.077  -2.046  0.00  0.00    +0.121 C 
ATOM      9  C   UNL     1       0.401  -6.023  -3.168  0.00  0.00    +0.100 C 
ATOM     10  C   UNL     1       1.442  -5.869  -4.289  0.00  0.00    -0.004 C 
ATOM     11  C   UNL     1       2.461  -4.846  -3.765  0.00  0.00    +0.115 C 
ATOM     12  C   UNL     1       2.126  -7.205  -4.562  0.00  0.00    -0.010 C 
ATOM     13  C   UNL     1       3.115  -7.040  -5.720  0.00  0.00    -0.082 C 
ATOM     14  N   UNL     1       2.399  -6.581  -6.916  0.00  0.00    +0.379 N 
ATOM     15  C   UNL     1       1.822  -5.252  -6.675  0.00  0.00    -0.082 C 
ATOM     16  C   UNL     1       0.779  -5.342  -5.558  0.00  0.00    -0.010 C 
ATOM     17  H   UNL     1       3.041  -6.531  -7.692  0.00  0.00    -0.086 HD
ATOM     18  H   UNL     1       1.660  -7.232  -7.135  0.00  0.00    -0.086 HD
BRANCH   5  19
ATOM     19  C   UNL     1       1.040  -2.151  -1.336  0.00  0.00    +0.072 C 
ATOM     20  C   UNL     1      -0.355  -1.720  -1.792  0.00  0.00    +0.017 C 
BRANCH  19  21
ATOM     21  C   UNL     1       1.802  -0.935  -0.807  0.00  0.00    +0.012 C 
BRANCH  21  23
ATOM     22  C   UNL     1       1.872   0.810   0.980  0.00  0.00    +0.004 C 
ATOM     23  C   UNL     1       1.110  -0.407   0.451  0.00  0.00    -0.003 C 
ENDBRANCH  21  23
ENDBRANCH  19  21
ENDBRANCH   5  19
ENDBRANCH   1   9
BRANCH   3  24
ATOM     24  C   UNL     1      -0.558  -9.701  -2.717  0.00  0.00    +0.134 C 
BRANCH  24  25
ATOM     25  C   UNL     1      -1.422  -9.784  -1.484  0.00  0.00    -0.023 A 
ATOM     26  C   UNL     1      -2.599  -9.061  -1.417  0.00  0.00    +0.009 A 
ATOM     27  C   UNL     1      -3.392  -9.134  -0.288  0.00  0.00    +0.046 A 
ATOM     28  C   UNL     1      -3.007  -9.934   0.778  0.00  0.00    +0.120 A 
ATOM     29  C   UNL     1      -1.826 -10.659   0.707  0.00  0.00    +0.046 A 
ATOM     30  C   UNL     1      -1.039 -10.586  -0.426  0.00  0.00    +0.009 A 
BRANCH  28  31
ATOM     31  O   UNL     1      -3.785 -10.008   1.889  0.00  0.00    -0.495 OA
ATOM     32  C   UNL     1      -3.327 -10.851   2.948  0.00  0.00    +0.277 C 
ENDBRANCH  28  31
ENDBRANCH  24  25
BRANCH  24  33
ATOM     33  C   UNL     1      -1.130 -10.591  -3.791  0.00  0.00    -0.023 A 
ATOM     34  C   UNL     1      -2.195 -10.152  -4.556  0.00  0.00    +0.009 A 
ATOM     35  C   UNL     1      -2.721 -10.965  -5.541  0.00  0.00    +0.046 A 
ATOM     36  C   UNL     1      -2.179 -12.223  -5.762  0.00  0.00    +0.120 A 
ATOM     37  C   UNL     1      -1.110 -12.661  -4.994  0.00  0.00    +0.046 A 
ATOM     38  C   UNL     1      -0.585 -11.841  -4.013  0.00  0.00    +0.009 A 
BRANCH  36  39
ATOM     39  O   UNL     1      -2.695 -13.025  -6.730  0.00  0.00    -0.495 OA
ATOM     40  C   UNL     1      -2.087 -14.307  -6.903  0.00  0.00    +0.277 C 
ENDBRANCH  36  39
ENDBRANCH  24  33
ENDBRANCH   3  24
TORSDOF 9
