REMARK  Name = ZINC63293935
REMARK  8 active torsions:
REMARK  status: ('A' for Active; 'I' for Inactive)
REMARK    1  A    between atoms: C_1  and  C_2
REMARK    2  A    between atoms: C_4  and  C_17
REMARK    3  A    between atoms: C_7  and  O_12
REMARK    4  A    between atoms: O_12  and  C_13
REMARK    5  A    between atoms: C_17  and  C_18
REMARK    6  A    between atoms: C_18  and  N_19
REMARK    7  A    between atoms: C_20  and  C_22
REMARK    8  A    between atoms: C_28  and  C_30
REMARK                            x       y       z     vdW  Elec       q    Type
REMARK                         _______ _______ _______ _____ _____    ______ ____
ROOT
ATOM      1  N   UNL     1       0.714   0.280  -5.378  0.00  0.00    -0.315 N 
ATOM      2  C   UNL     1       1.510  -0.406  -6.222  0.00  0.00    +0.216 C 
ATOM      3  O   UNL     1       2.468  -1.014  -5.793  0.00  0.00    -0.276 OA
ATOM      4  H   UNL     1      -0.052   0.766  -5.721  0.00  0.00    +0.149 HD
ENDROOT
BRANCH   2   5
ATOM      5  C   UNL     1       1.210  -0.417  -7.699  0.00  0.00    +0.078 C 
ATOM      6  C   UNL     1      -0.180  -1.013  -7.932  0.00  0.00    +0.032 C 
ATOM      7  C   UNL     1      -0.496  -0.991  -9.431  0.00  0.00    +0.109 C 
ATOM      8  N   UNL     1       0.584  -1.678 -10.152  0.00  0.00    -0.297 N 
ATOM      9  C   UNL     1       1.970  -1.243  -9.931  0.00  0.00    +0.109 C 
ATOM     10  C   UNL     1       2.258  -1.262  -8.426  0.00  0.00    +0.032 C 
ATOM     11  C   UNL     1       0.309  -2.689 -11.001  0.00  0.00    +0.249 C 
ATOM     12  O   UNL     1       1.203  -3.199 -11.648  0.00  0.00    -0.270 OA
BRANCH  11  13
ATOM     13  C   UNL     1      -1.078  -3.176 -11.144  0.00  0.00    +0.072 A 
ATOM     14  C   UNL     1      -2.106  -2.284 -11.458  0.00  0.00    +0.016 A 
ATOM     15  C   UNL     1      -3.398  -2.746 -11.591  0.00  0.00    +0.001 A 
ATOM     16  C   UNL     1      -3.680  -4.090 -11.413  0.00  0.00    +0.003 A 
ATOM     17  C   UNL     1      -2.670  -4.979 -11.101  0.00  0.00    +0.039 A 
ATOM     18  C   UNL     1      -1.367  -4.533 -10.971  0.00  0.00    +0.135 A 
ATOM     19  F   UNL     1      -0.379  -5.404 -10.672  0.00  0.00    -0.205 F 
ENDBRANCH  11  13
ENDBRANCH   2   5
BRANCH   1  20
ATOM     20  C   UNL     1       1.006   0.291  -3.942  0.00  0.00    +0.108 C 
BRANCH  20  21
ATOM     21  C   UNL     1      -0.042   1.136  -3.215  0.00  0.00    +0.052 C 
BRANCH  21  24
ATOM     22  C   UNL     1      -0.526   3.367  -0.914  0.00  0.00    +0.035 C 
ATOM     23  C   UNL     1      -0.524   1.859  -0.657  0.00  0.00    +0.103 C 
ATOM     24  C   UNL     1       0.258   1.147  -1.739  0.00  0.00    -0.037 C 
ATOM     25  C   UNL     1       1.281   0.522  -1.112  0.00  0.00    +0.003 A 
ATOM     26  C   UNL     1       2.378  -0.322  -1.597  0.00  0.00    +0.056 A 
ATOM     27  C   UNL     1       3.276  -0.821  -0.714  0.00  0.00    +0.131 A 
ATOM     28  C   UNL     1       3.198  -0.559   0.665  0.00  0.00    +0.048 A 
ATOM     29  C   UNL     1       2.225   0.206   1.206  0.00  0.00    +0.029 A 
ATOM     30  C   UNL     1       1.199   0.797   0.341  0.00  0.00    +0.043 A 
ATOM     31  N   UNL     1       0.166   1.561   0.603  0.00  0.00    -0.378 N 
ATOM     32  H   UNL     1      -0.097   1.877   1.481  0.00  0.00    +0.160 HD
BRANCH  27  33
ATOM     33  O   UNL     1       4.287  -1.602  -1.177  0.00  0.00    -0.406 OA
BRANCH  33  34
ATOM     34  C   UNL     1       5.212  -2.107  -0.211  0.00  0.00    +0.575 C 
ATOM     35  F   UNL     1       4.528  -2.893   0.722  0.00  0.00    -0.133 F 
ATOM     36  F   UNL     1       6.180  -2.885  -0.855  0.00  0.00    -0.133 F 
ATOM     37  F   UNL     1       5.832  -1.038   0.444  0.00  0.00    -0.133 F 
ENDBRANCH  33  34
ENDBRANCH  27  33
ENDBRANCH  21  24
ENDBRANCH  20  21
ENDBRANCH   1  20
TORSDOF 7
