REMARK  Name = ZINC14350945
REMARK  8 active torsions:
REMARK  status: ('A' for Active; 'I' for Inactive)
REMARK    1  A    between atoms: C_1  and  C_2
REMARK    2  A    between atoms: C_2  and  C_29
REMARK    3  A    between atoms: C_4  and  N_9
REMARK    4  A    between atoms: C_6  and  C_7
REMARK    5  A    between atoms: C_6  and  C_8
REMARK    6  A    between atoms: C_10  and  C_12
REMARK    7  A    between atoms: N_17  and  S_19
REMARK    8  A    between atoms: S_19  and  C_22
REMARK                            x       y       z     vdW  Elec       q    Type
REMARK                         _______ _______ _______ _____ _____    ______ ____
ROOT
ATOM      1  N   UNL     1      -0.709   2.004  -1.194  0.00  0.00    -0.312 N 
ATOM      2  C   UNL     1      -1.297   3.217  -1.197  0.00  0.00    +0.218 C 
ATOM      3  O   UNL     1      -1.257   3.912  -0.205  0.00  0.00    -0.275 OA
ATOM      4  H   UNL     1      -0.741   1.448  -1.988  0.00  0.00    +0.149 HD
ENDROOT
BRANCH   1   8
ATOM      5  C   UNL     1      -0.156  -0.289   2.488  0.00  0.00    -0.010 C 
ATOM      6  C   UNL     1       0.717  -0.517   1.254  0.00  0.00    -0.072 C 
ATOM      7  C   UNL     1       0.002  -0.004   0.002  0.00  0.00    +0.009 C 
ATOM      8  C   UNL     1      -0.019   1.526   0.010  0.00  0.00    +0.070 C 
ATOM      9  C   UNL     1       1.423   2.032  -0.001  0.00  0.00    +0.009 C 
ATOM     10  C   UNL     1       2.191   1.508   1.210  0.00  0.00    -0.072 C 
ATOM     11  C   UNL     1       1.782   2.290   2.461  0.00  0.00    -0.010 C 
ATOM     12  C   UNL     1       3.690   1.792   0.965  0.00  0.00    -0.010 C 
ATOM     13  C   UNL     1       0.897  -2.043   1.090  0.00  0.00    -0.010 C 
ATOM     14  N   UNL     1       2.089   0.038   1.415  0.00  0.00    +0.386 N 
ATOM     15  H   UNL     1       2.704  -0.424   0.735  0.00  0.00    -0.084 HD
ATOM     16  H   UNL     1       2.410  -0.175   2.367  0.00  0.00    -0.084 HD
ENDBRANCH   1   8
BRANCH   2  17
ATOM     17  C   UNL     1      -2.005   3.708  -2.434  0.00  0.00    +0.091 C 
ATOM     18  C   UNL     1      -3.142   2.746  -2.788  0.00  0.00    +0.015 C 
ATOM     19  C   UNL     1      -3.841   3.226  -4.061  0.00  0.00    +0.018 C 
ATOM     20  C   UNL     1      -4.440   4.615  -3.818  0.00  0.00    +0.109 C 
ATOM     21  N   UNL     1      -3.378   5.511  -3.338  0.00  0.00    -0.176 NA
ATOM     22  C   UNL     1      -2.583   5.102  -2.172  0.00  0.00    +0.122 C 
BRANCH  21  23
ATOM     23  S   UNL     1      -3.084   6.952  -4.097  0.00  0.00    +0.061 S 
ATOM     24  O   UNL     1      -4.287   7.316  -4.760  0.00  0.00    -0.153 OA
ATOM     25  O   UNL     1      -2.458   7.795  -3.139  0.00  0.00    -0.153 OA
BRANCH  23  26
ATOM     26  C   UNL     1      -1.888   6.645  -5.354  0.00  0.00    +0.106 A 
ATOM     27  C   UNL     1      -0.541   6.760  -5.070  0.00  0.00    +0.029 A 
ATOM     28  C   UNL     1       0.398   6.514  -6.055  0.00  0.00    +0.017 A 
ATOM     29  C   UNL     1      -0.013   6.162  -7.328  0.00  0.00    +0.018 A 
ATOM     30  C   UNL     1      -1.362   6.052  -7.614  0.00  0.00    +0.017 A 
ATOM     31  C   UNL     1      -2.299   6.293  -6.627  0.00  0.00    +0.029 A 
ATOM     32 BR   UNL     1       1.270   5.833  -8.678  0.00  0.00    -0.050 Br
ENDBRANCH  23  26
ENDBRANCH  21  23
ENDBRANCH   2  17
TORSDOF 4
