REMARK  Name = ZINC01408540
REMARK  5 active torsions:
REMARK  status: ('A' for Active; 'I' for Inactive)
REMARK    1  A    between atoms: C_3  and  C_20
REMARK    2  A    between atoms: C_5  and  N_7
REMARK    3  A    between atoms: N_7  and  C_8
REMARK    4  A    between atoms: C_8  and  N_10
REMARK    5  A    between atoms: C_11  and  C_13
REMARK                            x       y       z     vdW  Elec       q    Type
REMARK                         _______ _______ _______ _____ _____    ______ ____
ROOT
ATOM      1  C   UNL     1      -0.012   1.085   0.264  0.00  0.00    +0.003 A 
ATOM      2  C   UNL     1       1.161   1.756  -0.015  0.00  0.00    +0.013 A 
ATOM      3  C   UNL     1       1.135   3.127  -0.277  0.00  0.00    +0.039 A 
ATOM      4  C   UNL     1      -0.079   3.813  -0.256  0.00  0.00    +0.036 A 
ATOM      5  C   UNL     1      -1.252   3.130   0.024  0.00  0.00    +0.033 A 
ATOM      6  C   UNL     1      -1.216   1.764   0.278  0.00  0.00    +0.023 A 
ENDROOT
BRANCH   3   7
ATOM      7  C   UNL     1       2.390   3.849  -0.575  0.00  0.00    +0.230 A 
ATOM      8  N   UNL     1       2.476   5.128  -0.840  0.00  0.00    -0.189 NA
ATOM      9  C   UNL     1       3.776   5.445  -1.060  0.00  0.00    +0.199 A 
ATOM     10  C   UNL     1       4.506   4.252  -0.921  0.00  0.00    +0.174 A 
ATOM     11  O   UNL     1       3.612   3.286  -0.621  0.00  0.00    -0.434 OA
ATOM     12  C   UNL     1       5.882   4.272  -1.099  0.00  0.00    +0.051 A 
ATOM     13  C   UNL     1       6.485   5.481  -1.409  0.00  0.00    +0.023 A 
ATOM     14  C   UNL     1       5.707   6.620  -1.531  0.00  0.00    +0.113 A 
ATOM     15  N   UNL     1       4.403   6.580  -1.358  0.00  0.00    -0.233 NA
ENDBRANCH   3   7
BRANCH   5  16
ATOM     16  N   UNL     1      -2.472   3.814   0.046  0.00  0.00    -0.297 N 
ATOM     17  H   UNL     1      -2.667   4.479  -0.633  0.00  0.00    +0.154 HD
BRANCH  16  18
ATOM     18  C   UNL     1      -3.376   3.548   1.009  0.00  0.00    +0.141 C 
ATOM     19  S   UNL     1      -2.978   2.480   2.286  0.00  0.00    -0.018 S 
BRANCH  18  20
ATOM     20  N   UNL     1      -4.595   4.123   0.967  0.00  0.00    -0.264 N 
ATOM     21  C   UNL     1      -5.499   3.858   1.930  0.00  0.00    +0.250 C 
ATOM     22  O   UNL     1      -5.216   3.100   2.837  0.00  0.00    -0.270 OA
ATOM     23  H   UNL     1      -4.820   4.729   0.243  0.00  0.00    +0.157 HD
BRANCH  21  24
ATOM     24  C   UNL     1      -6.835   4.489   1.884  0.00  0.00    +0.038 A 
ATOM     25  C   UNL     1      -7.161   5.365   0.846  0.00  0.00    +0.013 A 
ATOM     26  C   UNL     1      -8.411   5.946   0.806  0.00  0.00    +0.002 A 
ATOM     27  C   UNL     1      -9.338   5.671   1.796  0.00  0.00    +0.014 A 
ATOM     28  C   UNL     1      -9.019   4.809   2.830  0.00  0.00    +0.014 A 
ATOM     29  C   UNL     1      -7.774   4.216   2.880  0.00  0.00    +0.027 A 
ATOM     30  I   UNL     1     -10.430   4.402   4.324  0.00  0.00    -0.044 I 
ENDBRANCH  21  24
ENDBRANCH  18  20
ENDBRANCH  16  18
ENDBRANCH   5  16
TORSDOF 5
