REMARK  Name = ZINC65356057
REMARK  4 active torsions:
REMARK  status: ('A' for Active; 'I' for Inactive)
REMARK    1  A    between atoms: C_1  and  S_2
REMARK    2  A    between atoms: S_2  and  C_5
REMARK    3  A    between atoms: C_8  and  C_11
REMARK    4  A    between atoms: CA_16  and  C_17
REMARK                            x       y       z     vdW  Elec       q    Type
REMARK                         _______ _______ _______ _____ _____    ______ ____
ROOT
ATOM      1  C   UNL     1       2.910  -1.458  -5.056  0.00  0.00    +0.013 A 
ATOM      2  C   UNL     1       2.683  -0.741  -6.238  0.00  0.00    +0.014 A 
ATOM      3  C   UNL     1       3.330  -1.137  -7.378  0.00  0.00    +0.042 A 
ATOM      4  C   UNL     1       4.192  -2.235  -7.336  0.00  0.00    +0.094 A 
ATOM      5  N   UNL     1       4.394  -2.899  -6.214  0.00  0.00    -0.338 N 
ATOM      6  CA  UNL     1       3.792  -2.548  -5.081  0.00  0.00    +0.138 A 
ATOM      7  N   UNL     1       4.847  -2.635  -8.494  0.00  0.00    -0.345 N 
ATOM      8  H   UNL     1       4.704  -2.152  -9.323  0.00  0.00    +0.144 HD
ATOM      9  H   UNL     1       5.448  -3.396  -8.474  0.00  0.00    +0.144 HD
ATOM     10  H   UNL     1       4.998  -3.658  -6.215  0.00  0.00    +0.167 HD
ENDROOT
BRANCH   1  14
ATOM     11  C   UNL     1       0.968  -0.336  -1.446  0.00  0.00    +0.088 A 
ATOM     12  C   UNL     1       0.215  -0.663  -2.560  0.00  0.00    +0.027 A 
ATOM     13  C   UNL     1       0.840  -1.028  -3.735  0.00  0.00    +0.010 A 
ATOM     14  C   UNL     1       2.233  -1.067  -3.798  0.00  0.00    -0.016 A 
ATOM     15  C   UNL     1       2.986  -0.737  -2.671  0.00  0.00    +0.010 A 
ATOM     16  C   UNL     1       2.350  -0.368  -1.504  0.00  0.00    +0.027 A 
BRANCH  11  18
ATOM     17  C   UNL     1      -0.034   1.928  -0.065  0.00  0.00    +0.200 C 
ATOM     18  S   UNL     1       0.163   0.128   0.051  0.00  0.00    -0.006 S 
ATOM     19  O   UNL     1       1.089  -0.198   1.077  0.00  0.00    -0.170 OA
ATOM     20  O   UNL     1      -1.107  -0.507  -0.008  0.00  0.00    -0.170 OA
ENDBRANCH  11  18
ENDBRANCH   1  14
BRANCH   6  21
ATOM     21  C   UNL     1       4.050  -3.314  -3.845  0.00  0.00    +0.403 C 
ATOM     22  O   UNL     1       4.910  -4.183  -3.832  0.00  0.00    -0.239 OA
ATOM     23  OXT UNL     1       3.402  -3.079  -2.835  0.00  0.00    -0.239 OA
ENDBRANCH   6  21
TORSDOF 3
