REMARK  Name = ZINC59582784
REMARK  7 active torsions:
REMARK  status: ('A' for Active; 'I' for Inactive)
REMARK    1  A    between atoms: C_1  and  C_2
REMARK    2  A    between atoms: C_2  and  C_4
REMARK    3  A    between atoms: C_2  and  N_15
REMARK    4  A    between atoms: C_16  and  C_18
REMARK    5  A    between atoms: C_21  and  N_24
REMARK    6  A    between atoms: N_24  and  S_25
REMARK    7  A    between atoms: S_25  and  C_28
REMARK                            x       y       z     vdW  Elec       q    Type
REMARK                         _______ _______ _______ _____ _____    ______ ____
ROOT
ATOM      1  N   UNL     1      -1.366  -0.522  -0.077  0.00  0.00    -0.305 N 
ATOM      2  C   UNL     1      -1.944  -0.719  -1.278  0.00  0.00    +0.245 C 
ATOM      3  O   UNL     1      -1.329  -0.468  -2.297  0.00  0.00    -0.270 OA
ATOM      4  H   UNL     1      -1.856  -0.722   0.736  0.00  0.00    +0.150 HD
ENDROOT
BRANCH   2   5
ATOM      5  C   UNL     1      -3.322  -1.240  -1.357  0.00  0.00    +0.037 A 
ATOM      6  C   UNL     1      -4.032  -1.524  -0.187  0.00  0.00    +0.015 A 
ATOM      7  C   UNL     1      -5.317  -2.010  -0.264  0.00  0.00    +0.027 A 
ATOM      8  C   UNL     1      -5.910  -2.219  -1.506  0.00  0.00    +0.074 A 
ATOM      9  C   UNL     1      -5.206  -1.937  -2.674  0.00  0.00    +0.027 A 
ATOM     10  C   UNL     1      -3.922  -1.446  -2.603  0.00  0.00    +0.015 A 
BRANCH   8  11
ATOM     11  N   UNL     1      -7.209  -2.710  -1.581  0.00  0.00    -0.103 NA
BRANCH  11  12
ATOM     12  S   UNL     1      -7.916  -2.959  -3.058  0.00  0.00    +0.059 S 
ATOM     13  O   UNL     1      -8.007  -1.665  -3.639  0.00  0.00    -0.154 OA
ATOM     14  O   UNL     1      -7.132  -3.974  -3.669  0.00  0.00    -0.154 OA
ATOM     15  C   UNL     1      -9.574  -3.592  -2.679  0.00  0.00    +0.220 C 
ENDBRANCH  11  12
ENDBRANCH   8  11
ENDBRANCH   2   5
BRANCH   1  17
ATOM     16  C   UNL     1      -0.029   1.526  -0.017  0.00  0.00    +0.033 C 
ATOM     17  C   UNL     1       0.002  -0.004   0.002  0.00  0.00    +0.102 C 
BRANCH  17  18
ATOM     18  C   UNL     1       0.645  -0.478   1.280  0.00  0.00    -0.010 A 
ATOM     19  C   UNL     1      -0.138  -0.764   2.382  0.00  0.00    +0.056 A 
ATOM     20  C   UNL     1       0.451  -1.202   3.558  0.00  0.00    +0.162 A 
ATOM     21  C   UNL     1       1.831  -1.352   3.627  0.00  0.00    +0.163 A 
ATOM     22  C   UNL     1       2.612  -1.061   2.518  0.00  0.00    +0.065 A 
ATOM     23  C   UNL     1       2.018  -0.630   1.346  0.00  0.00    +0.026 A 
ATOM     24 BR   UNL     1       3.086  -0.242  -0.166  0.00  0.00    -0.050 Br
ATOM     25  O   UNL     1       2.429  -1.787   4.769  0.00  0.00    -0.485 OA
ATOM     26  C   UNL     1       1.653  -1.712   5.970  0.00  0.00    +0.270 C 
ATOM     27  C   UNL     1       0.254  -2.269   5.674  0.00  0.00    +0.270 C 
ATOM     28  O   UNL     1      -0.334  -1.477   4.636  0.00  0.00    -0.485 OA
ENDBRANCH  17  18
ENDBRANCH   1  17
TORSDOF 5
