REMARK  Name = ZINC39584689
REMARK  7 active torsions:
REMARK  status: ('A' for Active; 'I' for Inactive)
REMARK    1  A    between atoms: C_1  and  O_2
REMARK    2  A    between atoms: O_2  and  C_3
REMARK    3  A    between atoms: C_5  and  C_11
REMARK    4  A    between atoms: C_8  and  O_9
REMARK    5  A    between atoms: N_12  and  N_13
REMARK    6  A    between atoms: C_14  and  C_16
REMARK    7  A    between atoms: C_19  and  C_22
REMARK                            x       y       z     vdW  Elec       q    Type
REMARK                         _______ _______ _______ _____ _____    ______ ____
ROOT
ATOM      1  N   UNL     1       3.633   0.473   6.202  0.00  0.00    -0.205 N 
ATOM      2  C   UNL     1       4.251  -0.141   7.231  0.00  0.00    +0.263 C 
ATOM      3  O   UNL     1       4.301  -1.352   7.272  0.00  0.00    -0.271 OA
ATOM      4  H   UNL     1       3.593   1.442   6.168  0.00  0.00    +0.177 HD
ENDROOT
BRANCH   2   5
ATOM      5  C   UNL     1       4.879   0.678   8.329  0.00  0.00    +0.240 C 
ATOM      6  C   UNL     1       3.834   1.103   9.345  0.00  0.00    +0.041 C 
ATOM      7  C   UNL     1       4.247   0.529  10.492  0.00  0.00    +0.092 C 
ATOM      8  N   UNL     1       5.392  -0.173  10.285  0.00  0.00    -0.153 NA
ATOM      9  N   UNL     1       5.809  -0.142   9.122  0.00  0.00    -0.170 NA
BRANCH   7  10
ATOM     10  C   UNL     1       3.551   0.648  11.797  0.00  0.00    +0.002 A 
ATOM     11  C   UNL     1       2.377   1.391  11.898  0.00  0.00    +0.011 A 
ATOM     12  C   UNL     1       1.733   1.499  13.113  0.00  0.00    +0.020 A 
ATOM     13  C   UNL     1       2.252   0.870  14.232  0.00  0.00    +0.041 A 
ATOM     14  C   UNL     1       3.419   0.130  14.137  0.00  0.00    +0.020 A 
ATOM     15  C   UNL     1       4.066   0.012  12.925  0.00  0.00    +0.011 A 
ATOM     16 CL   UNL     1       1.438   1.010  15.759  0.00  0.00    -0.084 Cl
ENDBRANCH   7  10
ENDBRANCH   2   5
BRANCH   1  18
ATOM     17  C   UNL     1       2.455   0.303   4.190  0.00  0.00    +0.138 C 
ATOM     18  N   UNL     1       3.050  -0.288   5.181  0.00  0.00    -0.188 NA
BRANCH  17  21
ATOM     19  C   UNL     1       0.626  -0.619   1.042  0.00  0.00    +0.163 A 
ATOM     20  C   UNL     1       1.200   0.137   2.048  0.00  0.00    +0.059 A 
ATOM     21  C   UNL     1       1.841  -0.498   3.115  0.00  0.00    -0.001 A 
ATOM     22  C   UNL     1       1.898  -1.893   3.161  0.00  0.00    +0.028 A 
ATOM     23  C   UNL     1       1.323  -2.640   2.154  0.00  0.00    +0.063 A 
ATOM     24  C   UNL     1       0.682  -2.009   1.097  0.00  0.00    +0.173 A 
ATOM     25 BR   UNL     1       1.402  -4.529   2.218  0.00  0.00    -0.046 Br
BRANCH  19  27
ATOM     26  C   UNL     1      -0.017   1.425   0.010  0.00  0.00    +0.277 C 
ATOM     27  O   UNL     1       0.002  -0.004   0.002  0.00  0.00    -0.491 OA
ENDBRANCH  19  27
BRANCH  24  28
ATOM     28  O   UNL     1       0.112  -2.751   0.110  0.00  0.00    -0.503 OA
ATOM     29  H   UNL     1       0.708  -2.952  -0.624  0.00  0.00    +0.292 HD
ENDBRANCH  24  28
ENDBRANCH  17  21
ENDBRANCH   1  18
TORSDOF 6
