REMARK  Name = ZINC59210842
REMARK  11 active torsions:
REMARK  status: ('A' for Active; 'I' for Inactive)
REMARK    1  A    between atoms: C_1  and  C_2
REMARK    2  A    between atoms: C_5  and  N_9
REMARK    3  A    between atoms: C_6  and  C_8
REMARK    4  A    between atoms: C_10  and  C_12
REMARK    5  A    between atoms: C_13  and  C_37
REMARK    6  A    between atoms: C_18  and  C_20
REMARK    7  A    between atoms: C_23  and  O_28
REMARK    8  A    between atoms: C_24  and  O_26
REMARK    9  A    between atoms: O_26  and  C_27
REMARK   10  A    between atoms: O_28  and  C_29
REMARK   11  A    between atoms: C_29  and  C_30
REMARK                            x       y       z     vdW  Elec       q    Type
REMARK                         _______ _______ _______ _____ _____    ______ ____
ROOT
ATOM      1  C   UNL     1      -0.005  -7.266  -1.461  0.00  0.00    +0.056 C 
ATOM      2  C   UNL     1      -0.325  -7.890  -2.615  0.00  0.00    +0.017 C 
ATOM      3  N   UNL     1      -0.170  -9.240  -2.752  0.00  0.00    -0.300 N 
ATOM      4  C   UNL     1       0.299 -10.036  -1.784  0.00  0.00    +0.135 C 
ATOM      5  S   UNL     1       0.444 -11.715  -2.089  0.00  0.00    -0.019 S 
ATOM      6  N   UNL     1       0.662  -9.560  -0.576  0.00  0.00    -0.315 N 
ATOM      7  C   UNL     1       0.538  -8.113  -0.328  0.00  0.00    +0.139 C 
ATOM      8  C   UNL     1      -0.863  -7.084  -3.769  0.00  0.00    +0.061 C 
ATOM      9  H   UNL     1      -0.413  -9.645  -3.600  0.00  0.00    +0.154 HD
ATOM     10  H   UNL     1       0.999 -10.155   0.112  0.00  0.00    +0.149 HD
ENDROOT
BRANCH   7  11
ATOM     11  C   UNL     1       1.900  -7.582   0.038  0.00  0.00    -0.019 A 
ATOM     12  C   UNL     1       2.981  -7.825  -0.790  0.00  0.00    +0.009 A 
ATOM     13  C   UNL     1       4.232  -7.339  -0.459  0.00  0.00    +0.050 A 
ATOM     14  C   UNL     1       4.405  -6.607   0.705  0.00  0.00    +0.162 A 
ATOM     15  C   UNL     1       3.318  -6.362   1.537  0.00  0.00    +0.162 A 
ATOM     16  C   UNL     1       2.065  -6.847   1.197  0.00  0.00    +0.055 A 
BRANCH  15  17
ATOM     17  O   UNL     1       3.483  -5.644   2.680  0.00  0.00    -0.491 OA
ATOM     18  C   UNL     1       2.319  -5.416   3.477  0.00  0.00    +0.277 C 
ENDBRANCH  15  17
BRANCH  14  19
ATOM     19  O   UNL     1       5.636  -6.129   1.032  0.00  0.00    -0.484 OA
BRANCH  19  20
ATOM     20  C   UNL     1       6.705  -6.419   0.130  0.00  0.00    +0.264 C 
BRANCH  20  21
ATOM     21  C   UNL     1       7.982  -5.814   0.654  0.00  0.00    -0.010 A 
ATOM     22  C   UNL     1       8.332  -4.525   0.298  0.00  0.00    +0.008 A 
ATOM     23  C   UNL     1       9.503  -3.969   0.778  0.00  0.00    +0.020 A 
ATOM     24  C   UNL     1      10.325  -4.703   1.615  0.00  0.00    +0.041 A 
ATOM     25  C   UNL     1       9.974  -5.993   1.971  0.00  0.00    +0.020 A 
ATOM     26  C   UNL     1       8.800  -6.545   1.495  0.00  0.00    +0.008 A 
ATOM     27 CL   UNL     1      11.796  -4.005   2.218  0.00  0.00    -0.084 Cl
ENDBRANCH  20  21
ENDBRANCH  19  20
ENDBRANCH  14  19
ENDBRANCH   7  11
BRANCH   1  29
ATOM     28  N   UNL     1       0.698  -5.024  -1.917  0.00  0.00    -0.281 N 
ATOM     29  C   UNL     1      -0.166  -5.867  -1.317  0.00  0.00    +0.248 C 
ATOM     30  O   UNL     1      -1.084  -5.425  -0.650  0.00  0.00    -0.270 OA
ATOM     31  H   UNL     1       1.371  -5.370  -2.524  0.00  0.00    +0.155 HD
BRANCH  28  36
ATOM     32  C   UNL     1       0.395   0.547  -0.893  0.00  0.00    +0.044 C 
ATOM     33  C   UNL     1       0.476  -0.933  -1.165  0.00  0.00    -0.050 A 
ATOM     34  C   UNL     1      -0.667  -1.710  -1.098  0.00  0.00    +0.005 A 
ATOM     35  C   UNL     1      -0.597  -3.066  -1.347  0.00  0.00    +0.024 A 
ATOM     36  C   UNL     1       0.623  -3.650  -1.665  0.00  0.00    +0.037 A 
ATOM     37  C   UNL     1       1.768  -2.867  -1.732  0.00  0.00    -0.029 A 
ATOM     38  C   UNL     1       1.690  -1.510  -1.487  0.00  0.00    +0.008 A 
ATOM     39  C   UNL     1       3.093  -3.497  -2.076  0.00  0.00    +0.045 C 
ENDBRANCH  28  36
ENDBRANCH   1  29
TORSDOF 7
