REMARK  Name = ZINC33122631
REMARK  6 active torsions:
REMARK  status: ('A' for Active; 'I' for Inactive)
REMARK    1  A    between atoms: C_1  and  O_2
REMARK    2  A    between atoms: O_2  and  C_3
REMARK    3  A    between atoms: C_6  and  N_9
REMARK    4  A    between atoms: C_15  and  N_18
REMARK    5  A    between atoms: N_18  and  S_19
REMARK    6  A    between atoms: S_19  and  C_22
REMARK                            x       y       z     vdW  Elec       q    Type
REMARK                         _______ _______ _______ _____ _____    ______ ____
ROOT
ATOM      1  N   UNL     1       1.234  -2.083  -0.017  0.00  0.00    -0.269 N 
ATOM      2  C   UNL     1       2.405  -2.740  -0.137  0.00  0.00    +0.306 C 
ATOM      3  O   UNL     1       3.451  -2.120  -0.148  0.00  0.00    -0.252 OA
ATOM      4  N   UNL     1       2.416  -4.083  -0.245  0.00  0.00    -0.285 N 
ATOM      5  C   UNL     1       1.158  -4.837  -0.342  0.00  0.00    +0.111 C 
ATOM      6  C   UNL     1       1.143  -5.919   0.737  0.00  0.00    +0.039 C 
ATOM      7  C   UNL     1       2.402  -6.778   0.612  0.00  0.00    +0.079 C 
ATOM      8  C   UNL     1       3.641  -5.904   0.820  0.00  0.00    +0.039 C 
ATOM      9  C   UNL     1       3.686  -4.822  -0.263  0.00  0.00    +0.111 C 
ATOM     10  H   UNL     1       0.294  -2.647   0.072  0.00  0.00    +0.156 HD
ENDROOT
BRANCH   1  14
ATOM     11  C   UNL     1       1.175   2.087   0.022  0.00  0.00    +0.120 A 
ATOM     12  C   UNL     1       0.139   1.384  -0.576  0.00  0.00    +0.047 A 
ATOM     13  C   UNL     1       0.158   0.003  -0.589  0.00  0.00    +0.027 A 
ATOM     14  C   UNL     1       1.214  -0.682  -0.004  0.00  0.00    +0.035 A 
ATOM     15  C   UNL     1       2.251   0.022   0.594  0.00  0.00    +0.027 A 
ATOM     16  C   UNL     1       2.231   1.403   0.607  0.00  0.00    +0.047 A 
BRANCH  11  18
ATOM     17  C   UNL     1       2.255   4.104   0.667  0.00  0.00    +0.277 C 
ATOM     18  O   UNL     1       1.156   3.446   0.034  0.00  0.00    -0.495 OA
ENDBRANCH  11  18
ENDBRANCH   1  14
BRANCH   7  19
ATOM     19  N   UNL     1       2.375  -7.835   1.626  0.00  0.00    -0.187 NA
ATOM     20  H   UNL     1       2.889  -7.688   2.588  0.00  0.00    +0.148 HD
BRANCH  19  21
ATOM     21  S   UNL     1       1.789  -9.336   1.243  0.00  0.00    +0.059 S 
ATOM     22  O   UNL     1       1.918 -10.133   2.412  0.00  0.00    -0.153 OA
ATOM     23  O   UNL     1       0.541  -9.131   0.595  0.00  0.00    -0.153 OA
BRANCH  21  24
ATOM     24  C   UNL     1       2.874 -10.027   0.040  0.00  0.00    +0.105 A 
ATOM     25  C   UNL     1       2.635  -9.821  -1.306  0.00  0.00    +0.029 A 
ATOM     26  C   UNL     1       3.489 -10.359  -2.251  0.00  0.00    +0.017 A 
ATOM     27  C   UNL     1       4.577 -11.112  -1.849  0.00  0.00    +0.018 A 
ATOM     28  C   UNL     1       4.814 -11.322  -0.502  0.00  0.00    +0.017 A 
ATOM     29  C   UNL     1       3.962 -10.780   0.441  0.00  0.00    +0.029 A 
ATOM     30 BR   UNL     1       5.742 -11.854  -3.141  0.00  0.00    -0.050 Br
ENDBRANCH  21  24
ENDBRANCH  19  21
ENDBRANCH   7  19
TORSDOF 5
