REMARK  Name = ZINC31043992
REMARK  10 active torsions:
REMARK  status: ('A' for Active; 'I' for Inactive)
REMARK    1  A    between atoms: C_1  and  C_2
REMARK    2  A    between atoms: C_2  and  C_3
REMARK    3  A    between atoms: C_3  and  C_5
REMARK    4  A    between atoms: C_3  and  N_13
REMARK    5  A    between atoms: C_8  and  C_12
REMARK    6  A    between atoms: C_9  and  C_11
REMARK    7  A    between atoms: C_14  and  C_16
REMARK    8  A    between atoms: N_21  and  C_23
REMARK    9  A    between atoms: C_23  and  C_24
REMARK   10  A    between atoms: C_26  and  C_29
REMARK                            x       y       z     vdW  Elec       q    Type
REMARK                         _______ _______ _______ _____ _____    ______ ____
ROOT
ATOM      1  C   UNL     1      -4.466   0.925   0.757  0.00  0.00    +0.058 C 
ATOM      2  C   UNL     1      -4.415  -0.497   0.193  0.00  0.00    +0.009 C 
ATOM      3  C   UNL     1      -5.823  -1.098   0.216  0.00  0.00    -0.018 C 
ATOM      4  C   UNL     1      -6.767  -0.204  -0.592  0.00  0.00    -0.078 C 
ATOM      5  N   UNL     1      -6.781   1.145  -0.012  0.00  0.00    +0.386 N 
ATOM      6  C   UNL     1      -5.449   1.760  -0.066  0.00  0.00    -0.065 C 
ATOM      7  H   UNL     1      -7.065   1.052   1.046  0.00  0.00    -0.081 HD
ENDROOT
BRANCH   1   9
ATOM      8  N   UNL     1      -2.062   0.977   1.338  0.00  0.00    -0.308 N 
ATOM      9  C   UNL     1      -3.095   1.545   0.684  0.00  0.00    +0.215 C 
ATOM     10  O   UNL     1      -2.920   2.556   0.037  0.00  0.00    -0.276 OA
ATOM     11  H   UNL     1      -2.221   0.060   1.925  0.00  0.00    +0.149 HD
BRANCH   8  12
ATOM     12  C   UNL     1      -0.729   1.579   1.267  0.00  0.00    +0.103 C 
BRANCH  12  13
ATOM     13  C   UNL     1       0.067   1.185   2.485  0.00  0.00    -0.027 A 
ATOM     14  C   UNL     1      -0.026  -0.101   2.984  0.00  0.00    +0.006 A 
ATOM     15  C   UNL     1       0.706  -0.464   4.098  0.00  0.00    +0.004 A 
ATOM     16  C   UNL     1       1.525   0.461   4.719  0.00  0.00    -0.048 A 
ATOM     17  C   UNL     1       1.614   1.748   4.223  0.00  0.00    -0.047 A 
ATOM     18  C   UNL     1       0.884   2.110   3.105  0.00  0.00    +0.009 A 
ATOM     19  C   UNL     1       2.507   2.756   4.899  0.00  0.00    +0.044 C 
ATOM     20  C   UNL     1       2.321   0.066   5.936  0.00  0.00    +0.044 C 
ENDBRANCH  12  13
BRANCH  12  22
ATOM     21  C   UNL     1      -0.753   1.593  -1.232  0.00  0.00    +0.006 C 
ATOM     22  C   UNL     1      -0.013   1.086   0.008  0.00  0.00    +0.024 C 
ENDBRANCH  12  22
ENDBRANCH   8  12
ENDBRANCH   1   9
BRANCH   5  23
ATOM     23  C   UNL     1      -7.780   1.993  -0.677  0.00  0.00    +0.022 C 
BRANCH  23  24
ATOM     24  C   UNL     1      -9.161   1.460  -0.392  0.00  0.00    +0.211 A 
ATOM     25  N   UNL     1      -9.928   1.787   0.617  0.00  0.00    -0.193 NA
ATOM     26  C   UNL     1     -11.062   1.067   0.460  0.00  0.00    +0.202 A 
ATOM     27  N   UNL     1     -10.914   0.345  -0.621  0.00  0.00    -0.056 NA
ATOM     28  O   UNL     1      -9.829   0.560  -1.120  0.00  0.00    -0.340 OA
BRANCH  26  29
ATOM     29  C   UNL     1     -12.250   1.088   1.350  0.00  0.00    +0.023 A 
ATOM     30  C   UNL     1     -12.265   1.908   2.476  0.00  0.00    +0.013 A 
ATOM     31  C   UNL     1     -13.374   1.928   3.297  0.00  0.00    +0.016 A 
ATOM     32  C   UNL     1     -14.465   1.127   3.010  0.00  0.00    +0.018 A 
ATOM     33  C   UNL     1     -14.453   0.306   1.895  0.00  0.00    +0.016 A 
ATOM     34  C   UNL     1     -13.351   0.283   1.065  0.00  0.00    +0.013 A 
ATOM     35 BR   UNL     1     -15.979   1.154   4.143  0.00  0.00    -0.050 Br
ENDBRANCH  26  29
ENDBRANCH  23  24
ENDBRANCH   5  23
TORSDOF 7
