REMARK  Name = ZINC11719796
REMARK  7 active torsions:
REMARK  status: ('A' for Active; 'I' for Inactive)
REMARK    1  A    between atoms: C_1  and  C_2
REMARK    2  A    between atoms: C_2  and  C_4
REMARK    3  A    between atoms: C_2  and  N_49
REMARK    4  A    between atoms: N_6  and  C_7
REMARK    5  A    between atoms: C_17  and  N_20
REMARK    6  A    between atoms: N_20  and  S_21
REMARK    7  A    between atoms: S_21  and  C_24
REMARK                            x       y       z     vdW  Elec       q    Type
REMARK                         _______ _______ _______ _____ _____    ______ ____
ROOT
ATOM      1  C   UNL     1      -3.288   3.619   1.220  0.00  0.00    -0.076 C 
ATOM      2  C   UNL     1      -4.768   3.992   1.101  0.00  0.00    +0.002 C 
ATOM      3  C   UNL     1      -4.905   5.517   1.104  0.00  0.00    +0.073 C 
ATOM      4  C   UNL     1      -4.082   6.098  -0.049  0.00  0.00    +0.002 C 
ATOM      5  C   UNL     1      -2.622   5.663   0.103  0.00  0.00    -0.076 C 
ATOM      6  N   UNL     1      -2.556   4.187   0.069  0.00  0.00    +0.387 N 
ATOM      7  H   UNL     1      -2.991   3.854  -0.800  0.00  0.00    -0.081 HD
ENDROOT
BRANCH   6   9
ATOM      8  C   UNL     1      -1.105   2.216   0.149  0.00  0.00    -0.004 C 
ATOM      9  C   UNL     1      -1.146   3.744   0.100  0.00  0.00    +0.016 C 
BRANCH   9  10
ATOM     10  C   UNL     1      -0.458   4.225  -1.152  0.00  0.00    +0.203 C 
ATOM     11  O   UNL     1      -1.105   4.442  -2.155  0.00  0.00    -0.277 OA
ATOM     12  N   UNL     1       0.876   4.413  -1.157  0.00  0.00    -0.284 N 
ATOM     13  H   UNL     1       1.403   4.173  -0.379  0.00  0.00    +0.155 HD
BRANCH  12  14
ATOM     14  C   UNL     1       1.502   4.961  -2.284  0.00  0.00    +0.072 A 
ATOM     15  C   UNL     1       0.759   5.679  -3.211  0.00  0.00    +0.064 A 
ATOM     16  C   UNL     1       1.380   6.220  -4.323  0.00  0.00    +0.125 A 
ATOM     17  C   UNL     1       2.741   6.045  -4.512  0.00  0.00    +0.041 A 
ATOM     18  C   UNL     1       3.483   5.330  -3.590  0.00  0.00    +0.043 A 
ATOM     19  C   UNL     1       2.869   4.792  -2.474  0.00  0.00    +0.145 A 
ATOM     20  F   UNL     1       3.596   4.098  -1.571  0.00  0.00    -0.204 F 
ATOM     21  F   UNL     1       0.658   6.919  -5.226  0.00  0.00    -0.205 F 
ENDBRANCH  12  14
ENDBRANCH   9  10
ENDBRANCH   6   9
BRANCH   3  22
ATOM     22  N   UNL     1      -6.314   5.882   0.932  0.00  0.00    -0.187 NA
ATOM     23  H   UNL     1      -6.695   5.938   0.042  0.00  0.00    +0.148 HD
BRANCH  22  24
ATOM     24  S   UNL     1      -7.255   6.199   2.257  0.00  0.00    +0.065 S 
ATOM     25  O   UNL     1      -8.543   6.543   1.767  0.00  0.00    -0.153 OA
ATOM     26  O   UNL     1      -7.048   5.127   3.167  0.00  0.00    -0.153 OA
BRANCH  24  27
ATOM     27  C   UNL     1      -6.604   7.645   3.025  0.00  0.00    +0.142 A 
ATOM     28  C   UNL     1      -6.922   8.944   2.804  0.00  0.00    +0.036 A 
ATOM     29  C   UNL     1      -6.275   9.925   3.533  0.00  0.00    +0.010 A 
ATOM     30  C   UNL     1      -5.343   9.558   4.447  0.00  0.00    +0.047 A 
ATOM     31  S   UNL     1      -5.362   7.779   4.300  0.00  0.00    -0.077 S 
ENDBRANCH  24  27
ENDBRANCH  22  24
ENDBRANCH   3  22
TORSDOF 6
