REMARK  Name = ZINC33939840
REMARK  10 active torsions:
REMARK  status: ('A' for Active; 'I' for Inactive)
REMARK    1  A    between atoms: C_1  and  C_2
REMARK    2  A    between atoms: C_2  and  C_3
REMARK    3  A    between atoms: C_2  and  C_4
REMARK    4  A    between atoms: C_4  and  C_5
REMARK    5  A    between atoms: C_5  and  N_6
REMARK    6  A    between atoms: C_7  and  C_30
REMARK    7  A    between atoms: C_12  and  C_29
REMARK    8  A    between atoms: C_14  and  C_20
REMARK    9  A    between atoms: N_22  and  C_23
REMARK   10  A    between atoms: N_32  and  C_33
REMARK                            x       y       z     vdW  Elec       q    Type
REMARK                         _______ _______ _______ _____ _____    ______ ____
ROOT
ATOM      1  N   UNL     1      -3.030  -1.878  -0.620  0.00  0.00    -0.287 N 
ATOM      2  C   UNL     1      -3.574  -2.277   0.716  0.00  0.00    +0.198 C 
ATOM      3  C   UNL     1      -4.419  -3.462   0.364  0.00  0.00    +0.127 C 
ATOM      4  C   UNL     1      -3.596  -4.681  -0.014  0.00  0.00    +0.009 C 
ATOM      5  C   UNL     1      -4.473  -5.636  -0.287  0.00  0.00    +0.007 C 
ATOM      6  C   UNL     1      -5.846  -4.970  -0.132  0.00  0.00    +0.098 C 
ATOM      7  O   UNL     1      -5.577  -3.997   0.961  0.00  0.00    -0.355 OA
ATOM      8  C   UNL     1      -5.906  -4.035  -1.401  0.00  0.00    +0.125 C 
ATOM      9  C   UNL     1      -5.069  -2.866  -0.949  0.00  0.00    +0.128 C 
ATOM     10  C   UNL     1      -3.872  -2.318  -1.612  0.00  0.00    +0.223 C 
ATOM     11  O   UNL     1      -3.670  -2.266  -2.807  0.00  0.00    -0.275 OA
ATOM     12  C   UNL     1      -7.032  -5.914   0.083  0.00  0.00    +0.047 C 
ENDROOT
BRANCH   8  13
ATOM     13  C   UNL     1      -5.292  -4.709  -2.601  0.00  0.00    +0.220 C 
ATOM     14  O   UNL     1      -4.088  -4.715  -2.743  0.00  0.00    -0.275 OA
ATOM     15  N   UNL     1      -6.081  -5.307  -3.515  0.00  0.00    -0.312 N 
ATOM     16  H   UNL     1      -7.045  -5.303  -3.402  0.00  0.00    +0.149 HD
BRANCH  15  17
ATOM     17  C   UNL     1      -5.484  -5.963  -4.681  0.00  0.00    +0.073 C 
ATOM     18  C   UNL     1      -5.243  -4.927  -5.781  0.00  0.00    +0.022 C 
ATOM     19  C   UNL     1      -4.619  -5.612  -6.999  0.00  0.00    +0.002 C 
ATOM     20  C   UNL     1      -5.569  -6.694  -7.517  0.00  0.00    +0.000 C 
ATOM     21  C   UNL     1      -5.810  -7.730  -6.417  0.00  0.00    +0.002 C 
ATOM     22  C   UNL     1      -6.434  -7.045  -5.199  0.00  0.00    +0.022 C 
ENDBRANCH  15  17
ENDBRANCH   8  13
BRANCH   2  23
ATOM     23  C   UNL     1      -4.413  -1.174   1.307  0.00  0.00    +0.237 C 
ATOM     24  O   UNL     1      -4.846  -0.293   0.595  0.00  0.00    -0.274 OA
ATOM     25  N   UNL     1      -4.682  -1.166   2.628  0.00  0.00    -0.311 N 
ATOM     26  H   UNL     1      -4.336  -1.870   3.198  0.00  0.00    +0.149 HD
BRANCH  25  27
ATOM     27  C   UNL     1      -5.498  -0.093   3.203  0.00  0.00    +0.073 C 
ATOM     28  C   UNL     1      -4.606   1.108   3.526  0.00  0.00    +0.022 C 
ATOM     29  C   UNL     1      -5.458   2.228   4.127  0.00  0.00    +0.002 C 
ATOM     30  C   UNL     1      -6.127   1.729   5.409  0.00  0.00    +0.000 C 
ATOM     31  C   UNL     1      -7.018   0.528   5.085  0.00  0.00    +0.002 C 
ATOM     32  C   UNL     1      -6.166  -0.592   4.485  0.00  0.00    +0.022 C 
ENDBRANCH  25  27
ENDBRANCH   2  23
BRANCH   1  33
ATOM     33  C   UNL     1      -1.790  -1.128  -0.836  0.00  0.00    +0.109 C 
BRANCH  33  34
ATOM     34  C   UNL     1      -2.094   0.371  -0.835  0.00  0.00    +0.022 C 
BRANCH  34  36
ATOM     35  C   UNL     1      -1.121   2.646  -1.184  0.00  0.00    +0.007 C 
ATOM     36  C   UNL     1      -0.800   1.155  -1.060  0.00  0.00    -0.016 C 
ATOM     37  C   UNL     1       0.144   0.932   0.123  0.00  0.00    +0.007 C 
ENDBRANCH  34  36
ENDBRANCH  33  34
ENDBRANCH   1  33
TORSDOF 7
