REMARK  Name = ZINC66558653
REMARK  5 active torsions:
REMARK  status: ('A' for Active; 'I' for Inactive)
REMARK    1  A    between atoms: C_1  and  C_2
REMARK    2  A    between atoms: C_6  and  C_8
REMARK    3  A    between atoms: N_10  and  N_11
REMARK    4  A    between atoms: C_12  and  C_14
REMARK    5  A    between atoms: C_22  and  C_25
REMARK                            x       y       z     vdW  Elec       q    Type
REMARK                         _______ _______ _______ _____ _____    ______ ____
ROOT
ATOM      1  N   UNL     1       0.085  -4.905   3.652  0.00  0.00    -0.229 N 
ATOM      2  C   UNL     1       0.103  -6.252   3.639  0.00  0.00    +0.282 C 
ATOM      3  O   UNL     1       0.106  -6.850   2.580  0.00  0.00    -0.267 OA
ATOM      4  H   UNL     1       0.082  -4.428   4.496  0.00  0.00    +0.173 HD
ENDROOT
BRANCH   2   5
ATOM      5  C   UNL     1       0.118  -7.002   4.910  0.00  0.00    +0.169 A 
ATOM      6  C   UNL     1       0.142  -8.361   5.034  0.00  0.00    +0.151 A 
ATOM      7  N   UNL     1       0.150  -8.632   6.358  0.00  0.00    -0.201 N 
ATOM      8  N   UNL     1       0.130  -7.398   7.024  0.00  0.00    -0.059 NA
ATOM      9  N   UNL     1       0.117  -6.461   6.141  0.00  0.00    -0.124 NA
ATOM     10  C   UNL     1       0.173  -9.899   6.951  0.00  0.00    +0.156 A 
ATOM     11  C   UNL     1       0.172 -10.012   8.335  0.00  0.00    +0.049 A 
ATOM     12  C   UNL     1       0.195 -11.271   8.909  0.00  0.00    +0.017 A 
ATOM     13  C   UNL     1       0.218 -12.379   8.073  0.00  0.00    +0.073 A 
ATOM     14  C   UNL     1       0.218 -12.193   6.704  0.00  0.00    +0.125 A 
ATOM     15  N   UNL     1       0.191 -10.980   6.187  0.00  0.00    -0.236 NA
BRANCH  13  16
ATOM     16  C   UNL     1       0.244 -13.770   8.652  0.00  0.00    +0.419 C 
ATOM     17  F   UNL     1      -1.067 -14.226   8.829  0.00  0.00    -0.166 F 
ATOM     18  F   UNL     1       0.922 -14.627   7.778  0.00  0.00    -0.166 F 
ATOM     19  F   UNL     1       0.901 -13.749   9.887  0.00  0.00    -0.166 F 
ENDBRANCH  13  16
ENDBRANCH   2   5
BRANCH   1  22
ATOM     20  C   UNL     1       0.052  -2.845   2.458  0.00  0.00    +0.260 C 
ATOM     21  O   UNL     1       0.049  -2.248   3.516  0.00  0.00    -0.269 OA
ATOM     22  N   UNL     1       0.070  -4.193   2.445  0.00  0.00    -0.230 N 
ATOM     23  H   UNL     1       0.072  -4.670   1.601  0.00  0.00    +0.173 HD
BRANCH  20  29
ATOM     24  C   UNL     1      -0.018   1.503   0.010  0.00  0.00    +0.044 C 
ATOM     25  C   UNL     1       0.002  -0.004   0.002  0.00  0.00    -0.050 A 
ATOM     26  C   UNL     1       0.006  -0.688  -1.201  0.00  0.00    +0.003 A 
ATOM     27  C   UNL     1       0.025  -2.071  -1.218  0.00  0.00    +0.001 A 
ATOM     28  C   UNL     1       0.040  -2.778  -0.033  0.00  0.00    +0.013 A 
ATOM     29  C   UNL     1       0.036  -2.095   1.184  0.00  0.00    +0.038 A 
ATOM     30  C   UNL     1       0.023  -0.699   1.194  0.00  0.00    +0.016 A 
ENDBRANCH  20  29
ENDBRANCH   1  22
TORSDOF 4
