REMARK  Name = ZINC00422114
REMARK  5 active torsions:
REMARK  status: ('A' for Active; 'I' for Inactive)
REMARK    1  A    between atoms: C_1  and  C_2
REMARK    2  A    between atoms: C_4  and  C_22
REMARK    3  A    between atoms: C_8  and  N_21
REMARK    4  A    between atoms: C_9  and  C_11
REMARK    5  A    between atoms: C_17  and  C_20
REMARK                            x       y       z     vdW  Elec       q    Type
REMARK                         _______ _______ _______ _____ _____    ______ ____
ROOT
ATOM      1  C   UNL     1       1.417   3.009  -1.669  0.00  0.00    +0.044 C 
ATOM      2  C   UNL     1       1.295   1.713  -0.909  0.00  0.00    -0.037 A 
ATOM      3  C   UNL     1       0.117   1.003  -0.923  0.00  0.00    +0.027 A 
ATOM      4  C   UNL     1       0.008  -0.189  -0.224  0.00  0.00    +0.040 A 
ATOM      5  N   UNL     1       1.032  -0.656   0.464  0.00  0.00    -0.245 NA
ATOM      6  C   UNL     1       2.179  -0.014   0.508  0.00  0.00    +0.111 A 
ATOM      7  C   UNL     1       2.393   1.208  -0.170  0.00  0.00    +0.032 A 
ATOM      8  C   UNL     1       3.721   1.778  -0.011  0.00  0.00    +0.054 A 
ATOM      9  C   UNL     1       4.636   1.101   0.764  0.00  0.00    +0.097 A 
ATOM     10  S   UNL     1       3.732  -0.335   1.309  0.00  0.00    -0.062 S 
ATOM     11  C   UNL     1      -1.289  -0.956  -0.249  0.00  0.00    +0.065 C 
ENDROOT
BRANCH   9  12
ATOM     12  C   UNL     1       5.975   1.459   1.059  0.00  0.00    +0.255 C 
ATOM     13  O   UNL     1       6.267   2.627   1.241  0.00  0.00    -0.269 OA
ATOM     14  N   UNL     1       6.926   0.507   1.137  0.00  0.00    -0.297 N 
ATOM     15  C   UNL     1       6.614  -0.891   0.809  0.00  0.00    +0.108 C 
ATOM     16  C   UNL     1       7.618  -1.380  -0.246  0.00  0.00    +0.019 C 
ATOM     17  C   UNL     1       9.041  -1.158   0.270  0.00  0.00    +0.006 C 
ATOM     18  C   UNL     1       9.275   0.337   0.500  0.00  0.00    +0.003 C 
ATOM     19  C   UNL     1       8.292   0.846   1.558  0.00  0.00    +0.111 C 
ATOM     20  C   UNL     1      10.709   0.561   0.985  0.00  0.00    +0.009 C 
ENDBRANCH   9  12
BRANCH   8  21
ATOM     21  N   UNL     1       4.059   2.976  -0.625  0.00  0.00    -0.356 N 
ATOM     22  H   UNL     1       3.369   3.625  -0.835  0.00  0.00    +0.142 HD
ATOM     23  H   UNL     1       4.985   3.165  -0.845  0.00  0.00    +0.142 HD
ENDBRANCH   8  21
TORSDOF 2
