REMARK  Name = ZINC40899612
REMARK  11 active torsions:
REMARK  status: ('A' for Active; 'I' for Inactive)
REMARK    1  A    between atoms: C_1  and  O_2
REMARK    2  A    between atoms: O_2  and  C_3
REMARK    3  A    between atoms: C_6  and  C_11
REMARK    4  A    between atoms: C_8  and  O_9
REMARK    5  A    between atoms: O_9  and  C_10
REMARK    6  A    between atoms: C_13  and  C_16
REMARK    7  A    between atoms: C_19  and  N_23
REMARK    8  A    between atoms: C_27  and  C_30
REMARK    9  A    between atoms: N_32  and  C_33
REMARK   10  A    between atoms: C_33  and  C_34
REMARK   11  A    between atoms: C_34  and  C_35
REMARK                            x       y       z     vdW  Elec       q    Type
REMARK                         _______ _______ _______ _____ _____    ______ ____
ROOT
ATOM      1  C   UNL     1      -8.568  -2.675   0.058  0.00  0.00    +0.025 A 
ATOM      2  C   UNL     1      -9.026  -1.359   0.052  0.00  0.00    +0.013 A 
ATOM      3  C   UNL     1     -10.380  -1.101   0.059  0.00  0.00    +0.027 A 
ATOM      4  C   UNL     1     -11.290  -2.152   0.073  0.00  0.00    +0.065 A 
ATOM      5  C   UNL     1     -10.835  -3.467   0.080  0.00  0.00    +0.145 A 
ATOM      6  C   UNL     1      -9.480  -3.729   0.067  0.00  0.00    +0.052 A 
ATOM      7  F   UNL     1     -11.720  -4.488   0.094  0.00  0.00    -0.204 F 
ENDROOT
BRANCH   4   8
ATOM      8  N   UNL     1     -12.660  -1.888   0.082  0.00  0.00    -0.327 N 
ATOM      9  C   UNL     1     -13.385  -1.731   1.350  0.00  0.00    +0.105 C 
ATOM     10  C   UNL     1     -14.580  -2.690   1.357  0.00  0.00    +0.020 C 
ATOM     11  C   UNL     1     -15.433  -2.444   0.111  0.00  0.00    +0.016 C 
ATOM     12  C   UNL     1     -14.600  -2.720  -1.143  0.00  0.00    +0.092 C 
ATOM     13  C   UNL     1     -13.405  -1.756  -1.178  0.00  0.00    +0.118 C 
BRANCH  12  14
ATOM     14  C   UNL     1     -15.451  -2.509  -2.369  0.00  0.00    +0.218 C 
ATOM     15  O   UNL     1     -15.133  -1.677  -3.192  0.00  0.00    -0.275 OA
ATOM     16  N   UNL     1     -16.565  -3.246  -2.550  0.00  0.00    -0.315 N 
ATOM     17  H   UNL     1     -16.819  -3.911  -1.892  0.00  0.00    +0.149 HD
BRANCH  16  18
ATOM     18  C   UNL     1     -17.393  -3.041  -3.742  0.00  0.00    +0.108 C 
BRANCH  18  19
ATOM     19  C   UNL     1     -18.587  -3.997  -3.703  0.00  0.00    +0.049 C 
BRANCH  19  20
ATOM     20  C   UNL     1     -19.438  -3.786  -4.929  0.00  0.00    -0.072 C 
ATOM     21  C   UNL     1     -19.238  -4.560  -5.947  0.00  0.00    -0.028 C 
ATOM     22  C   UNL     1     -19.997  -4.465  -7.238  0.00  0.00    +0.027 C 
ATOM     23  C   UNL     1     -21.279  -3.654  -7.037  0.00  0.00    +0.004 C 
ATOM     24  C   UNL     1     -20.919  -2.349  -6.314  0.00  0.00    +0.005 C 
ATOM     25  C   UNL     1     -20.469  -2.696  -4.891  0.00  0.00    +0.030 C 
ENDBRANCH  19  20
ENDBRANCH  18  19
ENDBRANCH  16  18
ENDBRANCH  12  14
ENDBRANCH   4   8
BRANCH   1  28
ATOM     26  C   UNL     1      -4.963  -2.614   0.037  0.00  0.00    +0.259 A 
ATOM     27  N   UNL     1      -6.138  -2.028   0.042  0.00  0.00    -0.187 NA
ATOM     28  C   UNL     1      -7.111  -2.954   0.050  0.00  0.00    +0.202 A 
ATOM     29  N   UNL     1      -6.562  -4.145   0.051  0.00  0.00    -0.056 NA
ATOM     30  O   UNL     1      -5.156  -3.945   0.036  0.00  0.00    -0.332 OA
BRANCH  26  34
ATOM     31  C   UNL     1      -1.200  -0.637   0.010  0.00  0.00    +0.162 A 
ATOM     32  C   UNL     1      -2.373   0.104   0.020  0.00  0.00    +0.050 A 
ATOM     33  C   UNL     1      -3.595  -0.534   0.028  0.00  0.00    +0.017 A 
ATOM     34  C   UNL     1      -3.655  -1.929   0.027  0.00  0.00    +0.043 A 
ATOM     35  C   UNL     1      -2.474  -2.675   0.017  0.00  0.00    +0.062 A 
ATOM     36  C   UNL     1      -1.252  -2.030   0.003  0.00  0.00    +0.162 A 
BRANCH  31  38
ATOM     37  C   UNL     1      -0.017   1.425   0.010  0.00  0.00    +0.277 C 
ATOM     38  O   UNL     1       0.002  -0.004   0.002  0.00  0.00    -0.491 OA
ENDBRANCH  31  38
BRANCH  36  39
ATOM     39  O   UNL     1      -0.101  -2.753  -0.012  0.00  0.00    -0.491 OA
ATOM     40  C   UNL     1      -0.229  -4.177  -0.019  0.00  0.00    +0.277 C 
ENDBRANCH  36  39
ENDBRANCH  26  34
ENDBRANCH   1  28
TORSDOF 9
