REMARK  Name = ZINC39432378
REMARK  11 active torsions:
REMARK  status: ('A' for Active; 'I' for Inactive)
REMARK    1  A    between atoms: C_1  and  C_2
REMARK    2  A    between atoms: C_2  and  C_32
REMARK    3  A    between atoms: C_4  and  N_10
REMARK    4  A    between atoms: C_6  and  C_8
REMARK    5  A    between atoms: C_6  and  C_9
REMARK    6  A    between atoms: N_10  and  C_11
REMARK    7  A    between atoms: N_10  and  C_18
REMARK    8  A    between atoms: C_11  and  C_12
REMARK    9  A    between atoms: C_18  and  N_20
REMARK   10  A    between atoms: N_20  and  C_21
REMARK   11  A    between atoms: C_26  and  C_27
REMARK                            x       y       z     vdW  Elec       q    Type
REMARK                         _______ _______ _______ _____ _____    ______ ____
ROOT
ATOM      1  N   UNL     1      -2.816  -2.357  -0.007  0.00  0.00    -0.305 N 
ENDROOT
BRANCH   1   5
ATOM      2  C   UNL     1       1.875  -3.804  -0.074  0.00  0.00    -0.010 C 
ATOM      3  C   UNL     1       0.974  -2.548  -0.061  0.00  0.00    -0.072 C 
ATOM      4  C   UNL     1      -0.466  -3.022   0.100  0.00  0.00    +0.009 C 
ATOM      5  C   UNL     1      -1.438  -1.866  -0.137  0.00  0.00    +0.073 C 
ATOM      6  C   UNL     1      -1.221  -1.345  -1.558  0.00  0.00    +0.009 C 
ATOM      7  C   UNL     1       0.214  -0.857  -1.731  0.00  0.00    -0.072 C 
ATOM      8  N   UNL     1       1.206  -1.825  -1.299  0.00  0.00    +0.386 N 
ATOM      9  C   UNL     1       0.395   0.485  -1.013  0.00  0.00    -0.010 C 
ATOM     10  C   UNL     1       0.434  -0.597  -3.239  0.00  0.00    -0.010 C 
ATOM     11  C   UNL     1       1.384  -1.713   1.156  0.00  0.00    -0.010 C 
ATOM     12  H   UNL     1       2.110  -1.348  -1.228  0.00  0.00    -0.084 HD
ATOM     13  H   UNL     1       1.333  -2.510  -2.051  0.00  0.00    -0.084 HD
ENDBRANCH   1   5
BRANCH   1  14
ATOM     14  C   UNL     1      -3.598  -1.913   0.997  0.00  0.00    +0.138 C 
ATOM     15  S   UNL     1      -5.168  -2.560   1.210  0.00  0.00    -0.018 S 
BRANCH  14  16
ATOM     16  N   UNL     1      -3.143  -0.958   1.833  0.00  0.00    -0.296 N 
ATOM     17  H   UNL     1      -2.814  -1.200   2.713  0.00  0.00    +0.154 HD
BRANCH  16  18
ATOM     18  C   UNL     1      -3.146   0.382   1.432  0.00  0.00    +0.046 A 
ATOM     19  C   UNL     1      -3.717   0.744   0.219  0.00  0.00    +0.043 A 
ATOM     20  C   UNL     1      -3.717   2.069  -0.174  0.00  0.00    +0.043 A 
ATOM     21  C   UNL     1      -3.149   3.034   0.640  0.00  0.00    +0.020 A 
ATOM     22  C   UNL     1      -2.580   2.675   1.847  0.00  0.00    +0.015 A 
ATOM     23  C   UNL     1      -2.582   1.354   2.249  0.00  0.00    +0.076 A 
ATOM     24 CL   UNL     1      -4.431   2.524  -1.690  0.00  0.00    -0.083 Cl
BRANCH  23  25
ATOM     25  C   UNL     1      -1.967   0.965   3.569  0.00  0.00    +0.419 C 
ATOM     26  F   UNL     1      -1.470   2.107   4.205  0.00  0.00    -0.166 F 
ATOM     27  F   UNL     1      -2.939   0.366   4.377  0.00  0.00    -0.166 F 
ATOM     28  F   UNL     1      -0.922   0.062   3.349  0.00  0.00    -0.166 F 
ENDBRANCH  23  25
ENDBRANCH  16  18
ENDBRANCH  14  16
ENDBRANCH   1  14
BRANCH   1  29
ATOM     29  C   UNL     1      -3.340  -3.331  -0.968  0.00  0.00    +0.143 C 
BRANCH  29  30
ATOM     30  C   UNL     1      -3.155  -4.724  -0.424  0.00  0.00    -0.012 A 
ATOM     31  C   UNL     1      -2.048  -5.477  -0.786  0.00  0.00    +0.008 A 
ATOM     32  C   UNL     1      -1.919  -6.753  -0.261  0.00  0.00    +0.020 A 
ATOM     33  C   UNL     1      -2.890  -7.230   0.599  0.00  0.00    +0.111 A 
ATOM     34  N   UNL     1      -3.929  -6.485   0.921  0.00  0.00    -0.263 NA
ATOM     35  C   UNL     1      -4.082  -5.264   0.446  0.00  0.00    +0.115 A 
ENDBRANCH  29  30
ENDBRANCH   1  29
TORSDOF 7
