REMARK  Name = ZINC36660339
REMARK  12 active torsions:
REMARK  status: ('A' for Active; 'I' for Inactive)
REMARK    1  A    between atoms: C_1  and  C_2
REMARK    2  A    between atoms: C_2  and  C_3
REMARK    3  A    between atoms: N_12  and  C_13
REMARK    4  A    between atoms: C_13  and  C_14
REMARK    5  A    between atoms: C_14  and  N_15
REMARK    6  A    between atoms: N_15  and  C_16
REMARK    7  A    between atoms: N_15  and  C_18
REMARK    8  A    between atoms: C_16  and  C_17
REMARK    9  A    between atoms: C_18  and  C_19
REMARK   10  A    between atoms: C_20  and  C_22
REMARK   11  A    between atoms: N_27  and  S_28
REMARK   12  A    between atoms: S_28  and  C_31
REMARK                            x       y       z     vdW  Elec       q    Type
REMARK                         _______ _______ _______ _____ _____    ______ ____
ROOT
ATOM      1  C   UNL     1      -2.943   1.428  -1.593  0.00  0.00    -0.046 A 
ATOM      2  C   UNL     1      -3.395   1.200  -0.302  0.00  0.00    +0.006 A 
ATOM      3  C   UNL     1      -4.463   0.379  -0.052  0.00  0.00    +0.029 A 
ATOM      4  C   UNL     1      -5.143  -0.266  -1.111  0.00  0.00    +0.080 A 
ATOM      5  C   UNL     1      -4.655  -0.010  -2.413  0.00  0.00    +0.041 A 
ATOM      6  C   UNL     1      -3.587   0.819  -2.654  0.00  0.00    +0.021 A 
ATOM      7  S   UNL     1      -5.750  -0.977  -3.424  0.00  0.00    -0.052 S 
ATOM      8  C   UNL     1      -6.752  -1.638  -2.101  0.00  0.00    +0.168 A 
ATOM      9  N   UNL     1      -6.204  -1.098  -1.037  0.00  0.00    -0.224 NA
ATOM     10  N   UNL     1      -7.833  -2.502  -2.177  0.00  0.00    -0.251 N 
ATOM     11  C   UNL     1      -8.300  -2.891  -3.380  0.00  0.00    +0.240 C 
ATOM     12  O   UNL     1      -9.296  -3.579  -3.450  0.00  0.00    -0.273 OA
ENDROOT
BRANCH  11  13
ATOM     13  C   UNL     1      -7.584  -2.472  -4.638  0.00  0.00    +0.166 C 
ATOM     14  C   UNL     1      -6.291  -3.298  -4.806  0.00  0.00    +0.031 C 
ATOM     15  C   UNL     1      -6.723  -4.424  -5.783  0.00  0.00    +0.019 C 
ATOM     16  C   UNL     1      -7.717  -3.674  -6.703  0.00  0.00    +0.110 C 
ATOM     17  N   UNL     1      -8.432  -2.740  -5.809  0.00  0.00    -0.165 NA
BRANCH  17  18
ATOM     18  S   UNL     1      -9.937  -2.103  -6.076  0.00  0.00    +0.062 S 
ATOM     19  O   UNL     1     -10.607  -2.997  -6.955  0.00  0.00    -0.153 OA
ATOM     20  O   UNL     1     -10.462  -1.751  -4.803  0.00  0.00    -0.153 OA
BRANCH  18  21
ATOM     21  C   UNL     1      -9.715  -0.597  -6.963  0.00  0.00    +0.106 A 
ATOM     22  C   UNL     1      -9.553   0.592  -6.276  0.00  0.00    +0.031 A 
ATOM     23  C   UNL     1      -9.378   1.774  -6.971  0.00  0.00    +0.040 A 
ATOM     24  C   UNL     1      -9.366   1.767  -8.355  0.00  0.00    +0.124 A 
ATOM     25  C   UNL     1      -9.528   0.576  -9.042  0.00  0.00    +0.040 A 
ATOM     26  C   UNL     1      -9.698  -0.605  -8.346  0.00  0.00    +0.031 A 
ATOM     27  F   UNL     1      -9.195   2.922  -9.035  0.00  0.00    -0.205 F 
ENDBRANCH  18  21
ENDBRANCH  17  18
ENDBRANCH  11  13
BRANCH   1  29
ATOM     28  C   UNL     1      -2.259   3.772  -2.027  0.00  0.00    +0.009 C 
ATOM     29  C   UNL     1      -1.765   2.336  -1.838  0.00  0.00    +0.032 C 
ENDBRANCH   1  29
BRANCH  10  30
ATOM     30  C   UNL     1      -8.468  -2.991  -0.951  0.00  0.00    +0.097 C 
BRANCH  30  31
ATOM     31  C   UNL     1      -9.662  -2.101  -0.605  0.00  0.00    -0.059 C 
BRANCH  31  32
ATOM     32  N   UNL     1     -10.377  -2.667   0.547  0.00  0.00    +0.380 N 
ATOM     33  H   UNL     1     -10.623  -3.626   0.353  0.00  0.00    -0.082 HD
BRANCH  32  34
ATOM     34  C   UNL     1      -9.512  -2.614   1.734  0.00  0.00    -0.082 C 
ATOM     35  C   UNL     1     -10.207  -3.314   2.903  0.00  0.00    -0.017 C 
ENDBRANCH  32  34
BRANCH  32  36
ATOM     36  C   UNL     1     -11.598  -1.889   0.796  0.00  0.00    -0.082 C 
ATOM     37  C   UNL     1     -12.568  -2.074  -0.372  0.00  0.00    -0.017 C 
ENDBRANCH  32  36
ENDBRANCH  31  32
ENDBRANCH  30  31
ENDBRANCH  10  30
TORSDOF 9
