REMARK  Name = ZINC48832367
REMARK  4 active torsions:
REMARK  status: ('A' for Active; 'I' for Inactive)
REMARK    1  A    between atoms: C_1  and  N_2
REMARK    2  A    between atoms: N_2  and  C_3
REMARK    3  A    between atoms: C_6  and  C_9
REMARK    4  A    between atoms: C_12  and  C_14
REMARK                            x       y       z     vdW  Elec       q    Type
REMARK                         _______ _______ _______ _____ _____    ______ ____
ROOT
ATOM      1  C   UNL     1      -0.490   1.409  -0.021  0.00  0.00    +0.138 C 
ATOM      2  N   UNL     1      -0.275  -0.040  -0.009  0.00  0.00    -0.269 N 
ATOM      3  C   UNL     1      -0.194  -0.719  -1.170  0.00  0.00    +0.267 C 
ATOM      4  O   UNL     1      -0.126  -1.934  -1.161  0.00  0.00    -0.268 OA
ENDROOT
BRANCH   3   5
ATOM      5  C   UNL     1      -0.188   0.006  -2.445  0.00  0.00    +0.103 A 
ATOM      6  C   UNL     1      -0.258  -0.556  -3.702  0.00  0.00    +0.047 A 
ATOM      7  C   UNL     1      -0.223   0.494  -4.624  0.00  0.00    +0.036 A 
ATOM      8  C   UNL     1      -0.135   1.655  -3.930  0.00  0.00    +0.098 A 
ATOM      9  N   UNL     1      -0.119   1.371  -2.603  0.00  0.00    -0.356 N 
ATOM     10  H   UNL     1      -0.065   2.022  -1.887  0.00  0.00    +0.165 HD
ATOM     11 BR   UNL     1      -0.288   0.326  -6.507  0.00  0.00    -0.049 Br
ENDBRANCH   3   5
BRANCH   2  12
ATOM     12  C   UNL     1      -0.155  -0.716   1.204  0.00  0.00    +0.036 A 
ATOM     13  C   UNL     1       0.226  -2.054   1.218  0.00  0.00    +0.024 A 
ATOM     14  C   UNL     1       0.346  -2.724   2.414  0.00  0.00    +0.015 A 
ATOM     15  C   UNL     1       0.085  -2.060   3.615  0.00  0.00    +0.037 A 
ATOM     16  C   UNL     1      -0.298  -0.716   3.598  0.00  0.00    +0.015 A 
ATOM     17  C   UNL     1      -0.410  -0.049   2.398  0.00  0.00    +0.024 A 
BRANCH  15  18
ATOM     18  C   UNL     1       0.211  -2.776   4.899  0.00  0.00    +0.242 C 
ATOM     19  O   UNL     1       0.544  -3.945   4.913  0.00  0.00    -0.270 OA
ATOM     20  N   UNL     1      -0.041  -2.133   6.057  0.00  0.00    -0.325 N 
ATOM     21  H   UNL     1      -0.306  -1.200   6.046  0.00  0.00    +0.145 HD
ATOM     22  H   UNL     1       0.042  -2.604   6.901  0.00  0.00    +0.145 HD
ENDBRANCH  15  18
ENDBRANCH   2  12
TORSDOF 3
