REMARK  Name = ZINC66192404
REMARK  7 active torsions:
REMARK  status: ('A' for Active; 'I' for Inactive)
REMARK    1  A    between atoms: C_3  and  C_20
REMARK    2  A    between atoms: C_5  and  N_7
REMARK    3  A    between atoms: C_8  and  C_10
REMARK    4  A    between atoms: C_10  and  N_11
REMARK    5  A    between atoms: N_11  and  C_12
REMARK    6  A    between atoms: N_22  and  C_23
REMARK    7  A    between atoms: C_27  and  C_29
REMARK                            x       y       z     vdW  Elec       q    Type
REMARK                         _______ _______ _______ _____ _____    ______ ____
ROOT
ATOM      1  C   UNL     1      -0.639   0.918  -0.051  0.00  0.00    +0.003 A 
ATOM      2  C   UNL     1       0.109   2.052  -0.292  0.00  0.00    +0.013 A 
ATOM      3  C   UNL     1       1.502   1.973  -0.334  0.00  0.00    +0.039 A 
ATOM      4  C   UNL     1       2.133   0.745  -0.131  0.00  0.00    +0.036 A 
ATOM      5  C   UNL     1       1.372  -0.388   0.111  0.00  0.00    +0.034 A 
ATOM      6  C   UNL     1      -0.014  -0.298   0.150  0.00  0.00    +0.023 A 
ENDROOT
BRANCH   5   7
ATOM      7  N   UNL     1       2.000  -1.622   0.315  0.00  0.00    -0.284 N 
ATOM      8  C   UNL     1       3.201  -1.674   0.926  0.00  0.00    +0.234 C 
ATOM      9  O   UNL     1       3.694  -0.664   1.381  0.00  0.00    -0.274 OA
ATOM     10  H   UNL     1       1.571  -2.439   0.017  0.00  0.00    +0.155 HD
BRANCH   8  11
ATOM     11  C   UNL     1       3.930  -2.988   1.043  0.00  0.00    +0.198 C 
BRANCH  11  12
ATOM     12  N   UNL     1       5.201  -2.780   1.741  0.00  0.00    -0.334 N 
ATOM     13  H   UNL     1       5.448  -1.893   2.045  0.00  0.00    +0.147 HD
BRANCH  12  14
ATOM     14  C   UNL     1       6.057  -3.861   1.970  0.00  0.00    +0.046 A 
ATOM     15  C   UNL     1       5.707  -5.131   1.531  0.00  0.00    +0.026 A 
ATOM     16  C   UNL     1       6.555  -6.198   1.758  0.00  0.00    +0.022 A 
ATOM     17  C   UNL     1       7.753  -6.002   2.423  0.00  0.00    +0.042 A 
ATOM     18  C   UNL     1       8.105  -4.738   2.863  0.00  0.00    +0.041 A 
ATOM     19  C   UNL     1       7.263  -3.666   2.633  0.00  0.00    +0.063 A 
ATOM     20 CL   UNL     1       7.708  -2.079   3.177  0.00  0.00    -0.082 Cl
ATOM     21 CL   UNL     1       8.816  -7.345   2.707  0.00  0.00    -0.083 Cl
ENDBRANCH  12  14
ENDBRANCH  11  12
ENDBRANCH   8  11
ENDBRANCH   5   7
BRANCH   3  22
ATOM     22  C   UNL     1       2.307   3.186  -0.593  0.00  0.00    +0.248 C 
ATOM     23  O   UNL     1       3.520   3.115  -0.629  0.00  0.00    -0.270 OA
ATOM     24  N   UNL     1       1.695   4.371  -0.789  0.00  0.00    -0.281 N 
ATOM     25  H   UNL     1       0.733   4.443  -0.687  0.00  0.00    +0.155 HD
BRANCH  24  26
ATOM     26  C   UNL     1       2.447   5.497  -1.140  0.00  0.00    +0.034 A 
ATOM     27  C   UNL     1       2.062   6.756  -0.699  0.00  0.00    +0.023 A 
ATOM     28  C   UNL     1       2.807   7.865  -1.047  0.00  0.00    +0.002 A 
ATOM     29  C   UNL     1       3.935   7.724  -1.835  0.00  0.00    +0.012 A 
ATOM     30  C   UNL     1       4.321   6.471  -2.276  0.00  0.00    +0.057 A 
ATOM     31  C   UNL     1       3.583   5.357  -1.926  0.00  0.00    +0.035 A 
BRANCH  30  32
ATOM     32  C   UNL     1       5.550   6.321  -3.135  0.00  0.00    +0.417 C 
ATOM     33  F   UNL     1       6.126   7.578  -3.349  0.00  0.00    -0.166 F 
ATOM     34  F   UNL     1       6.471   5.490  -2.490  0.00  0.00    -0.166 F 
ATOM     35  F   UNL     1       5.193   5.757  -4.365  0.00  0.00    -0.166 F 
ENDBRANCH  30  32
ENDBRANCH  24  26
ENDBRANCH   3  22
TORSDOF 7
