REMARK  Name = ZINC16567120
REMARK  6 active torsions:
REMARK  status: ('A' for Active; 'I' for Inactive)
REMARK    1  A    between atoms: C_1  and  C_2
REMARK    2  A    between atoms: C_5  and  N_8
REMARK    3  A    between atoms: C_9  and  C_38
REMARK    4  A    between atoms: C_10  and  C_20
REMARK    5  A    between atoms: C_12  and  C_13
REMARK    6  A    between atoms: N_30  and  C_31
REMARK                            x       y       z     vdW  Elec       q    Type
REMARK                         _______ _______ _______ _____ _____    ______ ____
ROOT
ATOM      1  N   UNL     1       4.785   6.966   0.806  0.00  0.00    -0.312 N 
ATOM      2  C   UNL     1       5.273   5.804   0.305  0.00  0.00    +0.033 A 
ATOM      3  C   UNL     1       4.389   4.795   0.622  0.00  0.00    +0.058 A 
ATOM      4  C   UNL     1       3.321   5.390   1.343  0.00  0.00    +0.041 A 
ATOM      5  C   UNL     1       3.593   6.716   1.443  0.00  0.00    +0.055 A 
ATOM      6  C   UNL     1       6.559   5.644  -0.464  0.00  0.00    +0.064 C 
ENDROOT
BRANCH   3   7
ATOM      7  C   UNL     1       4.525   3.370   0.274  0.00  0.00    +0.248 C 
ATOM      8  O   UNL     1       5.578   2.794   0.470  0.00  0.00    -0.270 OA
ATOM      9  N   UNL     1       3.483   2.705  -0.262  0.00  0.00    -0.294 N 
ATOM     10  C   UNL     1       3.566   1.259  -0.511  0.00  0.00    +0.127 C 
ATOM     11  C   UNL     1       3.248   0.997  -1.988  0.00  0.00    +0.128 C 
ATOM     12  N   UNL     1       2.008   1.705  -2.334  0.00  0.00    -0.282 N 
ATOM     13  C   UNL     1       1.927   3.152  -2.091  0.00  0.00    +0.128 C 
ATOM     14  C   UNL     1       2.242   3.413  -0.608  0.00  0.00    +0.127 C 
ATOM     15  C   UNL     1       0.966   1.040  -2.871  0.00  0.00    +0.307 C 
ATOM     16  O   UNL     1       1.078  -0.136  -3.159  0.00  0.00    -0.252 OA
ATOM     17  N   UNL     1      -0.200   1.680  -3.094  0.00  0.00    -0.269 N 
ATOM     18  H   UNL     1      -0.264   2.637  -2.945  0.00  0.00    +0.156 HD
BRANCH  17  19
ATOM     19  C   UNL     1      -1.317   0.965  -3.539  0.00  0.00    +0.037 A 
ATOM     20  C   UNL     1      -1.473  -0.370  -3.190  0.00  0.00    +0.023 A 
ATOM     21  C   UNL     1      -2.579  -1.073  -3.626  0.00  0.00    +0.005 A 
ATOM     22  C   UNL     1      -3.526  -0.452  -4.420  0.00  0.00    +0.038 A 
ATOM     23  C   UNL     1      -3.371   0.877  -4.775  0.00  0.00    +0.125 A 
ATOM     24  C   UNL     1      -2.268   1.587  -4.336  0.00  0.00    +0.061 A 
ATOM     25  F   UNL     1      -4.298   1.481  -5.550  0.00  0.00    -0.205 F 
ENDBRANCH  17  19
ENDBRANCH   3   7
BRANCH   1  30
ATOM     26  C   UNL     1       7.264  12.049   0.339  0.00  0.00    +0.044 C 
ATOM     27  C   UNL     1       6.606  10.699   0.463  0.00  0.00    -0.050 A 
ATOM     28  C   UNL     1       6.117  10.064  -0.664  0.00  0.00    +0.005 A 
ATOM     29  C   UNL     1       5.513   8.827  -0.553  0.00  0.00    +0.026 A 
ATOM     30  C   UNL     1       5.397   8.221   0.690  0.00  0.00    +0.047 A 
ATOM     31  C   UNL     1       5.885   8.864   1.821  0.00  0.00    +0.026 A 
ATOM     32  C   UNL     1       6.493  10.098   1.703  0.00  0.00    +0.005 A 
ENDBRANCH   1  30
BRANCH   5  33
ATOM     33  C   UNL     1       2.746   7.723   2.119  0.00  0.00    -0.001 A 
ATOM     34  C   UNL     1       1.725   7.316   2.979  0.00  0.00    +0.013 A 
ATOM     35  C   UNL     1       0.942   8.259   3.611  0.00  0.00    +0.039 A 
ATOM     36  C   UNL     1       1.161   9.608   3.385  0.00  0.00    +0.123 A 
ATOM     37  C   UNL     1       2.170  10.018   2.528  0.00  0.00    +0.039 A 
ATOM     38  C   UNL     1       2.962   9.083   1.895  0.00  0.00    +0.013 A 
ATOM     39  F   UNL     1       0.388  10.528   4.003  0.00  0.00    -0.205 F 
ENDBRANCH   5  33
TORSDOF 4
