REMARK  Name = ZINC22573063
REMARK  7 active torsions:
REMARK  status: ('A' for Active; 'I' for Inactive)
REMARK    1  A    between atoms: C_1  and  C_2
REMARK    2  A    between atoms: C_2  and  C_15
REMARK    3  A    between atoms: N_3  and  N_4
REMARK    4  A    between atoms: N_4  and  S_5
REMARK    5  A    between atoms: S_5  and  C_8
REMARK    6  A    between atoms: C_18  and  N_21
REMARK    7  A    between atoms: C_22  and  C_24
REMARK                            x       y       z     vdW  Elec       q    Type
REMARK                         _______ _______ _______ _____ _____    ______ ____
ROOT
ATOM      1  C   UNL     1      -4.439   5.525  -0.177  0.00  0.00    +0.068 C 
ATOM      2  C   UNL     1      -4.527   4.058   0.156  0.00  0.00    +0.065 C 
ATOM      3  N   UNL     1      -5.679   3.461   0.157  0.00  0.00    -0.171 NA
ENDROOT
BRANCH   2   4
ATOM      4  C   UNL     1      -3.304   3.301   0.481  0.00  0.00    -0.002 A 
ATOM      5  C   UNL     1      -3.334   2.313   1.469  0.00  0.00    +0.011 A 
ATOM      6  C   UNL     1      -2.189   1.608   1.770  0.00  0.00    +0.024 A 
ATOM      7  C   UNL     1      -1.006   1.878   1.092  0.00  0.00    +0.034 A 
ATOM      8  C   UNL     1      -0.971   2.864   0.113  0.00  0.00    +0.024 A 
ATOM      9  C   UNL     1      -2.113   3.570  -0.198  0.00  0.00    +0.011 A 
BRANCH   7  10
ATOM     10  N   UNL     1       0.154   1.160   1.400  0.00  0.00    -0.278 N 
ATOM     11  C   UNL     1       0.072  -0.145   1.725  0.00  0.00    +0.321 C 
ATOM     12  O   UNL     1      -1.012  -0.684   1.801  0.00  0.00    -0.266 OA
ATOM     13  H   UNL     1       1.133   1.661   1.377  0.00  0.00    +0.155 HD
BRANCH  11  14
ATOM     14  C   UNL     1       1.327  -0.935   1.994  0.00  0.00    +0.470 C 
ATOM     15  F   UNL     1       0.989  -2.255   2.309  0.00  0.00    -0.162 F 
ATOM     16  F   UNL     1       2.140  -0.920   0.856  0.00  0.00    -0.162 F 
ATOM     17  F   UNL     1       2.018  -0.362   3.068  0.00  0.00    -0.162 F 
ENDBRANCH  11  14
ENDBRANCH   7  10
ENDBRANCH   2   4
BRANCH   3  18
ATOM     18  N   UNL     1      -5.747   2.069   0.303  0.00  0.00    -0.136 N 
ATOM     19  H   UNL     1      -4.933   1.542   0.314  0.00  0.00    +0.197 HD
BRANCH  18  20
ATOM     20  S   UNL     1      -7.217   1.324   0.460  0.00  0.00    +0.086 S 
ATOM     21  O   UNL     1      -6.967  -0.075   0.444  0.00  0.00    -0.149 OA
ATOM     22  O   UNL     1      -7.886   1.966   1.537  0.00  0.00    -0.149 OA
BRANCH  20  23
ATOM     23  C   UNL     1      -8.143   1.687  -0.995  0.00  0.00    +0.110 A 
ATOM     24  C   UNL     1      -8.952   2.807  -1.038  0.00  0.00    +0.030 A 
ATOM     25  C   UNL     1      -9.674   3.095  -2.180  0.00  0.00    +0.017 A 
ATOM     26  C   UNL     1      -9.596   2.256  -3.277  0.00  0.00    +0.018 A 
ATOM     27  C   UNL     1      -8.790   1.132  -3.232  0.00  0.00    +0.017 A 
ATOM     28  C   UNL     1      -8.064   0.848  -2.091  0.00  0.00    +0.030 A 
ATOM     29 BR   UNL     1     -10.589   2.646  -4.839  0.00  0.00    -0.050 Br
ENDBRANCH  20  23
ENDBRANCH  18  20
ENDBRANCH   3  18
TORSDOF 6
