REMARK  Name = ZINC55170427
REMARK  3 active torsions:
REMARK  status: ('A' for Active; 'I' for Inactive)
REMARK    1  A    between atoms: C_1  and  C_2
REMARK    2  A    between atoms: C_3  and  C_8
REMARK    3  A    between atoms: C_14  and  C_17
REMARK                            x       y       z     vdW  Elec       q    Type
REMARK                         _______ _______ _______ _____ _____    ______ ____
ROOT
ATOM      1  C   UNL     1      -1.567   0.947  -0.146  0.00  0.00    +0.067 C 
ATOM      2  C   UNL     1      -0.642  -0.240  -0.065  0.00  0.00    +0.060 A 
ATOM      3  C   UNL     1       0.023  -0.727  -1.181  0.00  0.00    +0.098 A 
ATOM      4  S   UNL     1       0.926  -2.087  -0.458  0.00  0.00    -0.048 S 
ATOM      5  C   UNL     1       0.390  -1.908   1.127  0.00  0.00    +0.156 A 
ATOM      6  N   UNL     1      -0.418  -0.865   1.064  0.00  0.00    -0.230 NA
ATOM      7  N   UNL     1       0.720  -2.666   2.230  0.00  0.00    -0.337 N 
ATOM      8  H   UNL     1       1.335  -3.411   2.140  0.00  0.00    +0.144 HD
ATOM      9  H   UNL     1       0.337  -2.455   3.096  0.00  0.00    +0.144 HD
ENDROOT
BRANCH   3  10
ATOM     10  C   UNL     1      -0.008  -0.258  -2.565  0.00  0.00    +0.255 C 
ATOM     11  O   UNL     1      -0.133   0.930  -2.803  0.00  0.00    -0.269 OA
ATOM     12  N   UNL     1       0.101  -1.139  -3.579  0.00  0.00    -0.297 N 
ATOM     13  C   UNL     1       0.119  -2.585  -3.315  0.00  0.00    +0.108 C 
ATOM     14  C   UNL     1      -0.964  -3.255  -4.167  0.00  0.00    +0.019 C 
ATOM     15  C   UNL     1      -0.754  -2.882  -5.636  0.00  0.00    +0.006 C 
ATOM     16  C   UNL     1      -0.879  -1.366  -5.802  0.00  0.00    +0.003 C 
ATOM     17  C   UNL     1       0.198  -0.674  -4.969  0.00  0.00    +0.111 C 
ATOM     18  C   UNL     1      -0.703  -0.997  -7.276  0.00  0.00    +0.009 C 
ENDBRANCH   3  10
TORSDOF 1
