REMARK  Name = ZINC36005913
REMARK  12 active torsions:
REMARK  status: ('A' for Active; 'I' for Inactive)
REMARK    1  A    between atoms: C_1  and  C_2
REMARK    2  A    between atoms: C_2  and  N_3
REMARK    3  A    between atoms: N_3  and  C_4
REMARK    4  A    between atoms: C_4  and  C_5
REMARK    5  A    between atoms: C_6  and  C_8
REMARK    6  A    between atoms: C_10  and  N_28
REMARK    7  A    between atoms: C_13  and  N_14
REMARK    8  A    between atoms: N_23  and  C_24
REMARK    9  A    between atoms: C_24  and  C_25
REMARK   10  A    between atoms: C_24  and  C_26
REMARK   11  A    between atoms: C_24  and  C_27
REMARK   12  A    between atoms: C_29  and  C_31
REMARK                            x       y       z     vdW  Elec       q    Type
REMARK                         _______ _______ _______ _____ _____    ______ ____
ROOT
ATOM      1  C   UNL     1      -1.481  -0.428   2.523  0.00  0.00    +0.060 A 
ATOM      2  C   UNL     1      -0.205   0.134   2.612  0.00  0.00    +0.038 A 
ATOM      3  C   UNL     1       0.355   0.379   3.853  0.00  0.00    +0.035 A 
ATOM      4  C   UNL     1      -0.349   0.066   5.013  0.00  0.00    +0.025 A 
ATOM      5  C   UNL     1      -1.609  -0.489   4.935  0.00  0.00    +0.026 A 
ATOM      6  C   UNL     1      -2.187  -0.735   3.696  0.00  0.00    +0.042 A 
ENDROOT
BRANCH   6   7
ATOM      7  N   UNL     1      -3.461  -1.288   3.618  0.00  0.00    -0.328 N 
ATOM      8  C   UNL     1      -3.585  -2.754   3.585  0.00  0.00    +0.107 C 
ATOM      9  C   UNL     1      -4.714  -3.268   4.482  0.00  0.00    +0.038 C 
ATOM     10  C   UNL     1      -4.735  -2.507   5.792  0.00  0.00    +0.111 C 
ATOM     11  N   UNL     1      -5.542  -1.302   5.603  0.00  0.00    -0.284 N 
ATOM     12  C   UNL     1      -5.063  -0.094   5.027  0.00  0.00    +0.128 C 
ATOM     13  C   UNL     1      -4.602  -0.391   3.579  0.00  0.00    +0.124 C 
ATOM     14  C   UNL     1      -6.829  -1.340   6.002  0.00  0.00    +0.303 C 
ATOM     15  O   UNL     1      -7.561  -0.394   5.784  0.00  0.00    -0.253 OA
ATOM     16  N   UNL     1      -7.305  -2.426   6.642  0.00  0.00    -0.294 N 
ATOM     17  H   UNL     1      -6.705  -3.151   6.879  0.00  0.00    +0.151 HD
BRANCH  16  18
ATOM     18  C   UNL     1      -8.728  -2.513   6.979  0.00  0.00    +0.028 C 
ATOM     19  C   UNL     1      -9.560  -2.446   5.697  0.00  0.00    +0.031 C 
ATOM     20  C   UNL     1      -9.002  -3.837   7.695  0.00  0.00    +0.031 C 
ATOM     21  C   UNL     1      -9.107  -1.349   7.895  0.00  0.00    +0.031 C 
ENDBRANCH  16  18
ENDBRANCH   6   7
BRANCH   3  22
ATOM     22  N   UNL     1       1.635   0.942   3.944  0.00  0.00    -0.281 N 
ATOM     23  C   UNL     1       2.578   0.621   3.036  0.00  0.00    +0.255 C 
ATOM     24  O   UNL     1       2.296  -0.092   2.091  0.00  0.00    -0.269 OA
ATOM     25  H   UNL     1       1.842   1.563   4.659  0.00  0.00    +0.155 HD
BRANCH  23  26
ATOM     26  C   UNL     1       3.944   1.131   3.187  0.00  0.00    +0.074 A 
ATOM     27  C   UNL     1       5.048   0.927   2.373  0.00  0.00    +0.021 A 
ATOM     28  C   UNL     1       6.208   1.542   2.777  0.00  0.00    +0.008 A 
ATOM     29  C   UNL     1       6.200   2.286   3.911  0.00  0.00    +0.046 A 
ATOM     30  S   UNL     1       4.617   2.181   4.461  0.00  0.00    -0.092 S 
ENDBRANCH  23  26
ENDBRANCH   3  22
BRANCH   1  32
ATOM     31  N   UNL     1      -2.257   0.319   0.328  0.00  0.00    -0.298 N 
ATOM     32  C   UNL     1      -2.084  -0.691   1.204  0.00  0.00    +0.248 C 
ATOM     33  O   UNL     1      -2.426  -1.820   0.906  0.00  0.00    -0.270 OA
BRANCH  31  35
ATOM     34  C   UNL     1      -1.915  -0.212  -2.035  0.00  0.00    +0.024 C 
ATOM     35  C   UNL     1      -2.947   0.077  -0.942  0.00  0.00    +0.104 C 
ENDBRANCH  31  35
BRANCH  31  36
ATOM     36  C   UNL     1      -1.756   1.658   0.646  0.00  0.00    +0.104 C 
ATOM     37  C   UNL     1      -2.842   2.448   1.379  0.00  0.00    +0.024 C 
ENDBRANCH  31  36
ENDBRANCH   1  32
TORSDOF 7
