REMARK  Name = ZINC23328354
REMARK  13 active torsions:
REMARK  status: ('A' for Active; 'I' for Inactive)
REMARK    1  A    between atoms: C_1  and  C_2
REMARK    2  A    between atoms: C_5  and  C_34
REMARK    3  A    between atoms: C_6  and  O_8
REMARK    4  A    between atoms: O_8  and  C_9
REMARK    5  A    between atoms: C_9  and  C_10
REMARK    6  A    between atoms: C_13  and  S_16
REMARK    7  A    between atoms: N_14  and  N_15
REMARK    8  A    between atoms: S_16  and  C_17
REMARK    9  A    between atoms: C_17  and  C_19
REMARK   10  A    between atoms: C_17  and  C_20
REMARK   11  A    between atoms: N_22  and  C_23
REMARK   12  A    between atoms: C_34  and  C_35
REMARK   13  A    between atoms: C_34  and  C_36
REMARK                            x       y       z     vdW  Elec       q    Type
REMARK                         _______ _______ _______ _____ _____    ______ ____
ROOT
ATOM      1  C   UNL     1      10.070   4.289  -3.020  0.00  0.00    +0.189 A 
ATOM      2  N   UNL     1       9.220   3.712  -3.821  0.00  0.00    -0.128 NA
ATOM      3  N   UNL     1       8.302   3.125  -3.139  0.00  0.00    -0.121 NA
ATOM      4  C   UNL     1       8.514   3.305  -1.856  0.00  0.00    +0.209 A 
ATOM      5  N   UNL     1       9.652   4.051  -1.740  0.00  0.00    -0.225 N 
ENDROOT
BRANCH   5   6
ATOM      6  N   UNL     1      10.248   4.472  -0.586  0.00  0.00    -0.295 N 
ATOM      7  H   UNL     1       9.807   4.211   0.388  0.00  0.00    +0.163 HD
ATOM      8  H   UNL     1      11.169   5.072  -0.629  0.00  0.00    +0.163 HD
ENDBRANCH   5   6
BRANCH   1   9
ATOM      9  C   UNL     1      11.290   5.074  -3.429  0.00  0.00    +0.306 C 
BRANCH   9  10
ATOM     10  O   UNL     1      12.412   4.195  -3.528  0.00  0.00    -0.484 OA
BRANCH  10  16
ATOM     11  C   UNL     1      14.983   8.147  -4.790  0.00  0.00    +0.044 C 
ATOM     12  C   UNL     1      14.891   6.668  -4.513  0.00  0.00    -0.047 A 
ATOM     13  C   UNL     1      16.017   5.873  -4.626  0.00  0.00    +0.004 A 
ATOM     14  C   UNL     1      15.936   4.516  -4.372  0.00  0.00    +0.008 A 
ATOM     15  C   UNL     1      14.730   3.952  -4.005  0.00  0.00    -0.003 A 
ATOM     16  C   UNL     1      13.600   4.748  -3.890  0.00  0.00    +0.125 A 
ATOM     17  C   UNL     1      13.682   6.108  -4.150  0.00  0.00    +0.049 A 
BRANCH  15  18
ATOM     18  C   UNL     1      14.643   2.473  -3.728  0.00  0.00    +0.016 C 
ATOM     19  C   UNL     1      15.047   1.695  -4.982  0.00  0.00    +0.012 C 
ATOM     20  C   UNL     1      15.585   2.113  -2.578  0.00  0.00    +0.012 C 
ENDBRANCH  15  18
ENDBRANCH  10  16
ENDBRANCH   9  10
ENDBRANCH   1   9
BRANCH   4  21
ATOM     21  S   UNL     1       7.523   2.693  -0.534  0.00  0.00    -0.072 S 
BRANCH  21  22
ATOM     22  C   UNL     1       6.241   1.830  -1.475  0.00  0.00    +0.137 C 
ATOM     23  C   UNL     1       5.437   2.845  -2.290  0.00  0.00    +0.029 C 
BRANCH  22  24
ATOM     24  C   UNL     1       5.321   1.107  -0.525  0.00  0.00    +0.227 C 
ATOM     25  O   UNL     1       5.202   1.496   0.617  0.00  0.00    -0.275 OA
ATOM     26  N   UNL     1       4.631   0.029  -0.946  0.00  0.00    -0.308 N 
ATOM     27  H   UNL     1       4.739  -0.324  -1.982  0.00  0.00    +0.149 HD
BRANCH  26  28
ATOM     28  C   UNL     1       3.737  -0.675  -0.022  0.00  0.00    +0.103 C 
ATOM     29  C   UNL     1       3.599  -2.130  -0.465  0.00  0.00    +0.027 C 
ATOM     30  C   UNL     1       2.501  -2.789   0.378  0.00  0.00    +0.007 C 
ATOM     31  C   UNL     1       1.155  -2.199  -0.036  0.00  0.00    +0.035 C 
ATOM     32  C   UNL     1       1.208  -0.693  -0.014  0.00  0.00    -0.042 A 
ATOM     33  C   UNL     1       2.393   0.007  -0.016  0.00  0.00    -0.024 A 
ATOM     34  C   UNL     1       2.372   1.395  -0.011  0.00  0.00    +0.006 A 
ATOM     35  C   UNL     1       1.174   2.078   0.002  0.00  0.00    +0.000 A 
ATOM     36  C   UNL     1      -0.017   1.375   0.010  0.00  0.00    +0.000 A 
ATOM     37  C   UNL     1       0.002  -0.004   0.002  0.00  0.00    +0.004 A 
ENDBRANCH  26  28
ENDBRANCH  22  24
ENDBRANCH  21  22
ENDBRANCH   4  21
TORSDOF 9
