REMARK  Name = ZINC20731083
REMARK  4 active torsions:
REMARK  status: ('A' for Active; 'I' for Inactive)
REMARK    1  A    between atoms: C_10  and  C_11
REMARK    2  A    between atoms: N_14  and  C_17
REMARK    3  A    between atoms: C_17  and  C_19
REMARK    4  A    between atoms: C_17  and  C_30
REMARK                            x       y       z     vdW  Elec       q    Type
REMARK                         _______ _______ _______ _____ _____    ______ ____
ROOT
ATOM      1  C   UNL     1      -5.735   3.362  -1.289  0.00  0.00    +0.038 C 
ATOM      2  C   UNL     1      -5.525   4.111   0.029  0.00  0.00    -0.009 C 
ATOM      3  C   UNL     1      -4.124   4.728   0.042  0.00  0.00    -0.077 C 
ATOM      4  N   UNL     1      -3.119   3.667  -0.105  0.00  0.00    +0.392 N 
ATOM      5  C   UNL     1      -3.272   2.965  -1.386  0.00  0.00    -0.077 C 
ATOM      6  C   UNL     1      -4.647   2.295  -1.441  0.00  0.00    -0.009 C 
ATOM      7  H   UNL     1      -3.284   2.936   0.700  0.00  0.00    -0.080 HD
ENDROOT
BRANCH   1  17
ATOM      8  C   UNL     1      -9.493   3.792  -4.044  0.00  0.00    +0.039 A 
ATOM      9  C   UNL     1      -8.321   3.787  -3.342  0.00  0.00    +0.016 A 
ATOM     10  C   UNL     1      -8.179   2.950  -2.233  0.00  0.00    +0.045 A 
ATOM     11  C   UNL     1      -9.243   2.119  -1.842  0.00  0.00    +0.170 A 
ATOM     12  C   UNL     1     -10.427   2.138  -2.568  0.00  0.00    +0.088 A 
ATOM     13  C   UNL     1     -10.547   2.971  -3.662  0.00  0.00    +0.127 A 
ATOM     14  F   UNL     1     -11.700   2.990  -4.367  0.00  0.00    -0.205 F 
ATOM     15  O   UNL     1      -8.832   1.433  -0.757  0.00  0.00    -0.354 OA
ATOM     16  N   UNL     1      -7.506   1.808  -0.440  0.00  0.00    -0.082 NA
ATOM     17  C   UNL     1      -7.091   2.703  -1.284  0.00  0.00    +0.094 A 
ENDBRANCH   1  17
BRANCH   4  18
ATOM     18  C   UNL     1      -1.760   4.205   0.041  0.00  0.00    +0.080 C 
BRANCH  18  19
ATOM     19  C   UNL     1      -1.592   4.774   1.427  0.00  0.00    -0.025 A 
ATOM     20  C   UNL     1      -2.275   4.415   2.525  0.00  0.00    +0.086 A 
ATOM     21  N   UNL     1      -1.851   5.151   3.599  0.00  0.00    -0.360 N 
ATOM     22  H   UNL     1      -2.309   4.995   4.587  0.00  0.00    +0.165 HD
ATOM     23  C   UNL     1      -0.852   6.015   3.209  0.00  0.00    +0.047 A 
ATOM     24  C   UNL     1      -0.646   5.817   1.831  0.00  0.00    +0.003 A 
ATOM     25  C   UNL     1       0.319   6.566   1.156  0.00  0.00    +0.025 A 
ATOM     26  C   UNL     1       1.065   7.496   1.845  0.00  0.00    +0.019 A 
ATOM     27  C   UNL     1       0.861   7.691   3.205  0.00  0.00    +0.017 A 
ATOM     28  C   UNL     1      -0.088   6.960   3.885  0.00  0.00    +0.027 A 
ATOM     29 BR   UNL     1       2.374   8.513   0.936  0.00  0.00    -0.050 Br
ENDBRANCH  18  19
BRANCH  18  30
ATOM     30  C   UNL     1      -0.757   3.102  -0.175  0.00  0.00    +0.347 C 
ATOM     31  O   UNL     1      -1.040   1.963   0.113  0.00  0.00    -0.248 OA
ATOM     32  O   UNL     1       0.451   3.385  -0.687  0.00  0.00    -0.248 OA
ENDBRANCH  18  30
ENDBRANCH   4  18
TORSDOF 4
