REMARK  Name = ZINC36065076
REMARK  11 active torsions:
REMARK  status: ('A' for Active; 'I' for Inactive)
REMARK    1  A    between atoms: C_1  and  C_2
REMARK    2  A    between atoms: C_3  and  C_36
REMARK    3  A    between atoms: C_4  and  C_23
REMARK    4  A    between atoms: C_7  and  C_12
REMARK    5  A    between atoms: C_13  and  N_15
REMARK    6  A    between atoms: N_15  and  C_16
REMARK    7  A    between atoms: C_16  and  C_17
REMARK    8  A    between atoms: C_27  and  O_29
REMARK    9  A    between atoms: O_29  and  C_30
REMARK   10  A    between atoms: C_36  and  O_38
REMARK   11  A    between atoms: O_38  and  C_39
REMARK                            x       y       z     vdW  Elec       q    Type
REMARK                         _______ _______ _______ _____ _____    ______ ____
ROOT
ATOM      1  C   UNL     1       0.663   1.325  -1.596  0.00  0.00    +0.066 C 
ATOM      2  C   UNL     1       0.452  -0.152  -1.384  0.00  0.00    +0.053 C 
ATOM      3  C   UNL     1      -0.832  -0.653  -1.277  0.00  0.00    +0.082 C 
ATOM      4  C   UNL     1      -0.992  -2.142  -1.065  0.00  0.00    +0.150 C 
ATOM      5  N   UNL     1       0.253  -2.953  -0.989  0.00  0.00    -0.267 N 
ATOM      6  C   UNL     1       0.345  -4.317  -0.802  0.00  0.00    +0.048 C 
ATOM      7  C   UNL     1       1.581  -4.862  -0.764  0.00  0.00    +0.072 C 
ATOM      8  S   UNL     1       2.621  -3.434  -0.993  0.00  0.00    -0.060 S 
ATOM      9  C   UNL     1       1.426  -2.263  -1.120  0.00  0.00    +0.166 C 
ATOM     10  N   UNL     1       1.496  -0.961  -1.308  0.00  0.00    -0.230 NA
ENDROOT
BRANCH   4  11
ATOM     11  C   UNL     1      -1.758  -2.349   0.216  0.00  0.00    -0.019 A 
ATOM     12  C   UNL     1      -1.118  -2.209   1.434  0.00  0.00    +0.006 A 
ATOM     13  C   UNL     1      -1.818  -2.398   2.611  0.00  0.00    +0.004 A 
ATOM     14  C   UNL     1      -3.159  -2.726   2.574  0.00  0.00    +0.046 A 
ATOM     15  C   UNL     1      -3.804  -2.866   1.353  0.00  0.00    +0.129 A 
ATOM     16  C   UNL     1      -3.100  -2.671   0.173  0.00  0.00    +0.052 A 
BRANCH  15  17
ATOM     17  O   UNL     1      -5.123  -3.189   1.314  0.00  0.00    -0.456 OA
BRANCH  17  18
ATOM     18  C   UNL     1      -6.027  -2.216   1.600  0.00  0.00    +0.128 A 
ATOM     19  C   UNL     1      -5.602  -0.912   1.808  0.00  0.00    +0.046 A 
ATOM     20  C   UNL     1      -6.522   0.076   2.098  0.00  0.00    +0.004 A 
ATOM     21  C   UNL     1      -7.867  -0.234   2.183  0.00  0.00    +0.000 A 
ATOM     22  C   UNL     1      -8.294  -1.533   1.976  0.00  0.00    +0.004 A 
ATOM     23  C   UNL     1      -7.378  -2.523   1.679  0.00  0.00    +0.046 A 
ENDBRANCH  17  18
ENDBRANCH  15  17
ENDBRANCH   4  11
BRANCH   6  24
ATOM     24  C   UNL     1      -0.858  -5.148  -0.651  0.00  0.00    +0.091 C 
ATOM     25  C   UNL     1      -0.740  -6.455  -0.346  0.00  0.00    +0.239 C 
ATOM     26  O   UNL     1       0.478  -6.977  -0.062  0.00  0.00    -0.271 OA
BRANCH  25  27
ATOM     27  N   UNL     1      -1.863  -7.264  -0.323  0.00  0.00    -0.309 N 
ATOM     28  H   UNL     1      -2.742  -6.877  -0.453  0.00  0.00    +0.149 HD
BRANCH  27  29
ATOM     29  C   UNL     1      -1.722  -8.706  -0.102  0.00  0.00    +0.136 C 
BRANCH  29  30
ATOM     30  C   UNL     1      -3.088  -9.380  -0.246  0.00  0.00    +0.135 C 
ATOM     31  C   UNL     1      -2.945 -10.903  -0.041  0.00  0.00    +0.035 C 
ATOM     32  C   UNL     1      -3.916 -11.473  -1.111  0.00  0.00    +0.031 C 
ATOM     33  C   UNL     1      -3.754 -10.426  -2.242  0.00  0.00    +0.160 C 
ATOM     34  O   UNL     1      -3.598  -9.165  -1.568  0.00  0.00    -0.375 OA
ENDBRANCH  29  30
ENDBRANCH  27  29
ENDBRANCH  25  27
ENDBRANCH   6  24
BRANCH   3  35
ATOM     35  C   UNL     1      -1.947   0.190  -1.360  0.00  0.00    +0.339 C 
ATOM     36  O   UNL     1      -1.794   1.387  -1.531  0.00  0.00    -0.245 OA
BRANCH  35  37
ATOM     37  O   UNL     1      -3.192  -0.324  -1.252  0.00  0.00    -0.465 OA
ATOM     38  C   UNL     1      -4.283   0.594  -1.347  0.00  0.00    +0.280 C 
ENDBRANCH  35  37
ENDBRANCH   3  35
TORSDOF 9
