REMARK  Name = ZINC11730600
REMARK  5 active torsions:
REMARK  status: ('A' for Active; 'I' for Inactive)
REMARK    1  A    between atoms: C_3  and  C_29
REMARK    2  A    between atoms: C_5  and  N_7
REMARK    3  A    between atoms: C_8  and  C_22
REMARK    4  A    between atoms: C_9  and  S_12
REMARK    5  A    between atoms: S_12  and  C_15
REMARK                            x       y       z     vdW  Elec       q    Type
REMARK                         _______ _______ _______ _____ _____    ______ ____
ROOT
ATOM      1  N   UNL     1       0.051   1.444   0.072  0.00  0.00    -0.210 N 
ATOM      2  C   UNL     1       0.004   0.108   0.370  0.00  0.00    +0.120 A 
ATOM      3  C   UNL     1       1.256  -0.383   0.141  0.00  0.00    +0.231 A 
ATOM      4  N   UNL     1       2.036   0.610  -0.278  0.00  0.00    -0.109 NA
ATOM      5  N   UNL     1       1.368   1.708  -0.335  0.00  0.00    -0.058 NA
ENDROOT
BRANCH   2   6
ATOM      6  C   UNL     1      -1.173  -0.653   0.844  0.00  0.00    +0.004 A 
ATOM      7  C   UNL     1      -1.637  -1.750   0.118  0.00  0.00    +0.011 A 
ATOM      8  C   UNL     1      -2.732  -2.459   0.568  0.00  0.00    +0.016 A 
ATOM      9  C   UNL     1      -3.376  -2.077   1.733  0.00  0.00    +0.018 A 
ATOM     10  C   UNL     1      -2.923  -0.986   2.455  0.00  0.00    +0.016 A 
ATOM     11  C   UNL     1      -1.826  -0.273   2.017  0.00  0.00    +0.011 A 
ATOM     12 BR   UNL     1      -4.880  -3.050   2.340  0.00  0.00    -0.050 Br
ENDBRANCH   2   6
BRANCH   1  17
ATOM     13  C   UNL     1      -3.346   2.861  -0.077  0.00  0.00    +0.003 A 
ATOM     14  C   UNL     1      -3.111   4.167   0.302  0.00  0.00    +0.015 A 
ATOM     15  C   UNL     1      -1.814   4.581   0.611  0.00  0.00    +0.065 A 
ATOM     16  C   UNL     1      -0.759   3.671   0.534  0.00  0.00    +0.043 A 
ATOM     17  C   UNL     1      -1.005   2.362   0.151  0.00  0.00    +0.069 A 
ATOM     18  C   UNL     1      -2.299   1.961  -0.159  0.00  0.00    +0.028 A 
BRANCH  15  19
ATOM     19  C   UNL     1      -1.559   5.978   1.018  0.00  0.00    +0.387 C 
ATOM     20  O   UNL     1      -0.430   6.337   1.285  0.00  0.00    -0.241 OA
ATOM     21  O   UNL     1      -2.579   6.855   1.091  0.00  0.00    -0.241 OA
ENDBRANCH  15  19
ENDBRANCH   1  17
BRANCH   3  22
ATOM     22  S   UNL     1       1.758  -2.057   0.366  0.00  0.00    +0.046 S 
ATOM     23  O   UNL     1       0.571  -2.838   0.380  0.00  0.00    -0.163 OA
ATOM     24  O   UNL     1       2.813  -2.291  -0.556  0.00  0.00    -0.163 OA
BRANCH  22  25
ATOM     25  C   UNL     1       2.460  -2.178   1.977  0.00  0.00    +0.096 A 
ATOM     26  C   UNL     1       3.792  -1.866   2.176  0.00  0.00    +0.030 A 
ATOM     27  C   UNL     1       4.342  -1.957   3.440  0.00  0.00    +0.040 A 
ATOM     28  C   UNL     1       3.562  -2.370   4.506  0.00  0.00    +0.124 A 
ATOM     29  C   UNL     1       2.229  -2.688   4.305  0.00  0.00    +0.040 A 
ATOM     30  C   UNL     1       1.680  -2.592   3.041  0.00  0.00    +0.030 A 
ATOM     31  F   UNL     1       4.101  -2.464   5.742  0.00  0.00    -0.205 F 
ENDBRANCH  22  25
ENDBRANCH   3  22
TORSDOF 5
