REMARK  Name = ZINC03258698
REMARK  6 active torsions:
REMARK  status: ('A' for Active; 'I' for Inactive)
REMARK    1  A    between atoms: C_7  and  N_11
REMARK    2  A    between atoms: C_8  and  C_9
REMARK    3  A    between atoms: C_12  and  C_14
REMARK    4  A    between atoms: C_17  and  C_20
REMARK    5  A    between atoms: N_22  and  C_23
REMARK    6  A    between atoms: C_24  and  C_33
REMARK                            x       y       z     vdW  Elec       q    Type
REMARK                         _______ _______ _______ _____ _____    ______ ____
ROOT
ATOM      1  C   UNL     1      -0.729   1.579   1.267  0.00  0.00    +0.075 C 
ATOM      2  C   UNL     1      -0.013   1.086   0.008  0.00  0.00    +0.013 C 
ATOM      3  C   UNL     1      -0.753   1.593  -1.232  0.00  0.00    +0.013 C 
ATOM      4  C   UNL     1      -0.773   3.123  -1.223  0.00  0.00    +0.075 C 
ATOM      5  C   UNL     1      -1.490   3.616   0.036  0.00  0.00    +0.013 C 
ATOM      6  C   UNL     1      -0.750   3.109   1.275  0.00  0.00    +0.013 C 
ENDROOT
BRANCH   1   8
ATOM      7  N   UNL     1      -0.453   1.393   3.718  0.00  0.00    -0.279 N 
ATOM      8  C   UNL     1       0.000   1.080   2.488  0.00  0.00    +0.221 C 
ATOM      9  O   UNL     1       0.994   0.397   2.363  0.00  0.00    -0.275 OA
ATOM     10  H   UNL     1      -1.248   1.939   3.817  0.00  0.00    +0.155 HD
BRANCH   7  17
ATOM     11  C   UNL     1       2.101  -0.909   9.796  0.00  0.00    +0.001 C 
ATOM     12  C   UNL     1       1.844   0.552   9.435  0.00  0.00    +0.005 C 
ATOM     13  C   UNL     1       0.531   0.692   8.673  0.00  0.00    +0.037 C 
ATOM     14  C   UNL     1       0.781   0.546   7.177  0.00  0.00    -0.018 A 
ATOM     15  C   UNL     1       1.818  -0.162   6.679  0.00  0.00    -0.004 A 
ATOM     16  S   UNL     1       1.640  -0.053   4.919  0.00  0.00    -0.077 S 
ATOM     17  C   UNL     1       0.218   0.933   4.842  0.00  0.00    +0.090 A 
ATOM     18  C   UNL     1      -0.089   1.146   6.176  0.00  0.00    +0.084 A 
ATOM     19  C   UNL     1       2.889  -0.878   7.441  0.00  0.00    +0.043 C 
ATOM     20  C   UNL     1       2.241  -1.746   8.528  0.00  0.00    +0.005 C 
BRANCH  18  21
ATOM     21  C   UNL     1      -1.225   1.930   6.557  0.00  0.00    +0.102 C 
ATOM     22  N   UNL     1      -2.126   2.553   6.860  0.00  0.00    -0.191 NA
ENDBRANCH  18  21
ENDBRANCH   7  17
ENDBRANCH   1   8
BRANCH   4  23
ATOM     23  C   UNL     1      -1.502   3.622  -2.444  0.00  0.00    +0.221 C 
ATOM     24  O   UNL     1      -1.960   2.832  -3.242  0.00  0.00    -0.275 OA
ATOM     25  N   UNL     1      -1.645   4.946  -2.649  0.00  0.00    -0.279 N 
ATOM     26  H   UNL     1      -1.279   5.578  -2.010  0.00  0.00    +0.155 HD
BRANCH  25  27
ATOM     27  C   UNL     1      -2.317   5.406  -3.773  0.00  0.00    +0.090 A 
ATOM     28  C   UNL     1      -2.563   6.715  -4.154  0.00  0.00    +0.084 A 
ATOM     29  C   UNL     1      -3.295   6.934  -5.393  0.00  0.00    -0.018 A 
ATOM     30  C   UNL     1      -3.665   5.810  -6.043  0.00  0.00    -0.004 A 
ATOM     31  S   UNL     1      -3.043   4.483  -5.046  0.00  0.00    -0.077 S 
ATOM     32  C   UNL     1      -4.435   5.701  -7.322  0.00  0.00    +0.043 C 
ATOM     33  C   UNL     1      -3.811   6.633  -8.368  0.00  0.00    +0.005 C 
ATOM     34  C   UNL     1      -4.474   8.002  -8.255  0.00  0.00    +0.001 C 
ATOM     35  C   UNL     1      -4.852   8.284  -6.802  0.00  0.00    +0.005 C 
ATOM     36  C   UNL     1      -3.606   8.328  -5.924  0.00  0.00    +0.037 C 
BRANCH  28  37
ATOM     37  C   UNL     1      -2.114   7.815  -3.355  0.00  0.00    +0.102 C 
ATOM     38  N   UNL     1      -1.758   8.688  -2.721  0.00  0.00    -0.191 NA
ENDBRANCH  28  37
ENDBRANCH  25  27
ENDBRANCH   4  23
TORSDOF 6
