REMARK  Name = ZINC14742864
REMARK  10 active torsions:
REMARK  status: ('A' for Active; 'I' for Inactive)
REMARK    1  A    between atoms: C_1  and  N_2
REMARK    2  A    between atoms: N_2  and  S_3
REMARK    3  A    between atoms: S_3  and  C_6
REMARK    4  A    between atoms: C_8  and  C_23
REMARK    5  A    between atoms: C_10  and  N_12
REMARK    6  A    between atoms: N_12  and  C_13
REMARK    7  A    between atoms: C_13  and  C_14
REMARK    8  A    between atoms: N_25  and  C_26
REMARK    9  A    between atoms: C_29  and  O_32
REMARK   10  A    between atoms: O_32  and  C_33
REMARK                            x       y       z     vdW  Elec       q    Type
REMARK                         _______ _______ _______ _____ _____    ______ ____
ROOT
ATOM      1  C   UNL     1      -2.256  -0.505  -1.502  0.00  0.00    +0.108 A 
ATOM      2  C   UNL     1      -2.022  -1.292  -2.611  0.00  0.00    +0.041 A 
ATOM      3  C   UNL     1      -2.677  -1.016  -3.813  0.00  0.00    +0.041 A 
ATOM      4  C   UNL     1      -3.567   0.056  -3.887  0.00  0.00    +0.036 A 
ATOM      5  C   UNL     1      -3.795   0.840  -2.767  0.00  0.00    +0.030 A 
ATOM      6  C   UNL     1      -3.141   0.553  -1.573  0.00  0.00    +0.051 A 
ENDROOT
BRANCH   3   7
ATOM      7  C   UNL     1      -2.428  -1.857  -5.003  0.00  0.00    +0.248 C 
ATOM      8  O   UNL     1      -1.652  -2.791  -4.936  0.00  0.00    -0.270 OA
ATOM      9  N   UNL     1      -3.061  -1.589  -6.162  0.00  0.00    -0.281 N 
ATOM     10  H   UNL     1      -3.730  -0.887  -6.198  0.00  0.00    +0.155 HD
BRANCH   9  11
ATOM     11  C   UNL     1      -2.754  -2.323  -7.314  0.00  0.00    +0.034 A 
ATOM     12  C   UNL     1      -2.774  -1.705  -8.558  0.00  0.00    +0.027 A 
ATOM     13  C   UNL     1      -2.465  -2.428  -9.693  0.00  0.00    +0.047 A 
ATOM     14  C   UNL     1      -2.145  -3.774  -9.592  0.00  0.00    +0.120 A 
ATOM     15  C   UNL     1      -2.130  -4.394  -8.351  0.00  0.00    +0.047 A 
ATOM     16  C   UNL     1      -2.433  -3.670  -7.215  0.00  0.00    +0.027 A 
BRANCH  14  17
ATOM     17  O   UNL     1      -1.846  -4.487 -10.711  0.00  0.00    -0.495 OA
ATOM     18  C   UNL     1      -1.881  -3.786 -11.956  0.00  0.00    +0.277 C 
ENDBRANCH  14  17
ENDBRANCH   9  11
ENDBRANCH   3   7
BRANCH   1  19
ATOM     19  S   UNL     1      -1.428  -0.856   0.014  0.00  0.00    +0.058 S 
ATOM     20  O   UNL     1      -1.071  -2.231  -0.028  0.00  0.00    -0.153 OA
ATOM     21  O   UNL     1      -2.230  -0.308   1.051  0.00  0.00    -0.153 OA
BRANCH  19  23
ATOM     22  C   UNL     1      -0.041   1.466   0.019  0.00  0.00    +0.127 C 
ATOM     23  N   UNL     1      -0.011   0.001   0.007  0.00  0.00    -0.193 NA
ATOM     24  H   UNL     1       0.839  -0.467  -0.004  0.00  0.00    +0.148 HD
ENDBRANCH  19  23
ENDBRANCH   1  19
BRANCH   5  25
ATOM     25  N   UNL     1      -4.685   1.914  -2.835  0.00  0.00    -0.339 N 
ATOM     26  H   UNL     1      -4.845   2.463  -2.051  0.00  0.00    +0.146 HD
BRANCH  25  27
ATOM     27  C   UNL     1      -5.378   2.212  -4.091  0.00  0.00    +0.144 C 
BRANCH  27  28
ATOM     28  C   UNL     1      -6.273   3.409  -3.899  0.00  0.00    +0.008 A 
ATOM     29  C   UNL     1      -5.975   4.705  -4.073  0.00  0.00    +0.021 A 
ATOM     30  C   UNL     1      -7.000   5.710  -3.834  0.00  0.00    -0.011 A 
ATOM     31  C   UNL     1      -6.907   7.117  -3.958  0.00  0.00    +0.009 A 
ATOM     32  C   UNL     1      -7.977   7.911  -3.686  0.00  0.00    +0.001 A 
ATOM     33  C   UNL     1      -9.192   7.377  -3.278  0.00  0.00    +0.001 A 
ATOM     34  C   UNL     1      -9.323   6.009  -3.144  0.00  0.00    +0.015 A 
ATOM     35  C   UNL     1      -8.246   5.193  -3.418  0.00  0.00    +0.020 A 
ATOM     36  S   UNL     1      -7.978   3.440  -3.380  0.00  0.00    -0.092 S 
ENDBRANCH  27  28
ENDBRANCH  25  27
ENDBRANCH   5  25
TORSDOF 8
