REMARK  Name = ZINC56229194
REMARK  7 active torsions:
REMARK  status: ('A' for Active; 'I' for Inactive)
REMARK    1  A    between atoms: C_1  and  C_2
REMARK    2  A    between atoms: C_2  and  C_3
REMARK    3  A    between atoms: C_2  and  C_4
REMARK    4  A    between atoms: C_6  and  C_9
REMARK    5  A    between atoms: C_9  and  S_10
REMARK    6  A    between atoms: S_10  and  C_11
REMARK    7  A    between atoms: C_11  and  C_12
REMARK                            x       y       z     vdW  Elec       q    Type
REMARK                         _______ _______ _______ _____ _____    ______ ____
ROOT
ATOM      1  C   UNL     1       4.365  -6.553  -2.810  0.00  0.00    +0.146 A 
ATOM      2  N   UNL     1       4.311  -7.248  -1.687  0.00  0.00    -0.199 NA
ATOM      3  C   UNL     1       4.084  -8.559  -1.724  0.00  0.00    +0.217 A 
ATOM      4  N   UNL     1       3.912  -9.169  -2.891  0.00  0.00    -0.181 NA
ATOM      5  C   UNL     1       3.967  -8.467  -4.018  0.00  0.00    +0.217 A 
ATOM      6  N   UNL     1       4.189  -7.156  -3.973  0.00  0.00    -0.199 NA
ATOM      7  N   UNL     1       3.789  -9.097  -5.233  0.00  0.00    -0.327 N 
ATOM      8  N   UNL     1       4.028  -9.284  -0.550  0.00  0.00    -0.327 N 
ATOM      9  H   UNL     1       3.623 -10.052  -5.265  0.00  0.00    +0.145 HD
ATOM     10  H   UNL     1       3.829  -8.584  -6.055  0.00  0.00    +0.145 HD
ATOM     11  H   UNL     1       4.154  -8.837   0.302  0.00  0.00    +0.145 HD
ATOM     12  H   UNL     1       3.862 -10.239  -0.578  0.00  0.00    +0.145 HD
ENDROOT
BRANCH   1  13
ATOM     13  C   UNL     1       4.622  -5.069  -2.764  0.00  0.00    +0.145 C 
BRANCH  13  14
ATOM     14  S   UNL     1       3.043  -4.186  -2.640  0.00  0.00    -0.147 S 
BRANCH  14  15
ATOM     15  C   UNL     1       3.521  -2.436  -2.596  0.00  0.00    +0.125 C 
BRANCH  15  18
ATOM     16  C   UNL     1       0.707  -0.490  -1.238  0.00  0.00    +0.081 A 
ATOM     17  N   UNL     1       1.782  -1.234  -1.324  0.00  0.00    -0.248 NA
ATOM     18  C   UNL     1       2.285  -1.580  -2.492  0.00  0.00    +0.059 A 
ATOM     19  C   UNL     1       1.639  -1.130  -3.598  0.00  0.00    +0.071 A 
ATOM     20  S   UNL     1       0.302  -0.214  -2.848  0.00  0.00    -0.080 S 
BRANCH  16  22
ATOM     21  C   UNL     1      -0.019   1.526   0.010  0.00  0.00    +0.014 C 
ATOM     22  C   UNL     1       0.002  -0.004   0.002  0.00  0.00    +0.038 C 
ATOM     23  C   UNL     1      -1.433  -0.534   0.013  0.00  0.00    +0.014 C 
ENDBRANCH  16  22
ENDBRANCH  15  18
ENDBRANCH  14  15
ENDBRANCH  13  14
ENDBRANCH   1  13
TORSDOF 5
