REMARK  Name = ZINC00623033
REMARK  7 active torsions:
REMARK  status: ('A' for Active; 'I' for Inactive)
REMARK    1  A    between atoms: C_4  and  C_7
REMARK    2  A    between atoms: C_7  and  O_8
REMARK    3  A    between atoms: O_8  and  C_9
REMARK    4  A    between atoms: C_12  and  C_15
REMARK    5  A    between atoms: C_18  and  C_29
REMARK    6  A    between atoms: C_24  and  N_28
REMARK    7  A    between atoms: C_25  and  C_26
REMARK                            x       y       z     vdW  Elec       q    Type
REMARK                         _______ _______ _______ _____ _____    ______ ____
ROOT
ATOM      1  C   UNL     1       9.134  -3.728   1.937  0.00  0.00    +0.102 C 
ATOM      2  C   UNL     1       8.861  -4.906   2.836  0.00  0.00    +0.054 A 
ATOM      3  C   UNL     1       8.168  -6.088   2.559  0.00  0.00    +0.100 A 
ATOM      4  N   UNL     1       8.181  -6.831   3.650  0.00  0.00    -0.171 NA
ATOM      5  N   UNL     1       8.884  -6.139   4.648  0.00  0.00    -0.246 N 
ATOM      6  H   UNL     1       9.047  -6.452   5.551  0.00  0.00    +0.192 HD
ATOM      7  C   UNL     1       9.293  -4.963   4.129  0.00  0.00    +0.223 A 
ATOM      8  O   UNL     1      10.005  -3.964   4.707  0.00  0.00    -0.423 OA
ATOM      9  C   UNL     1      10.522  -3.016   3.899  0.00  0.00    +0.200 C 
ATOM     10  C   UNL     1      10.165  -2.853   2.605  0.00  0.00    +0.098 C 
ENDROOT
BRANCH   3  11
ATOM     11  C   UNL     1       7.529  -6.444   1.268  0.00  0.00    +0.003 A 
ATOM     12  C   UNL     1       6.269  -7.039   1.251  0.00  0.00    +0.011 A 
ATOM     13  C   UNL     1       5.680  -7.368   0.048  0.00  0.00    +0.020 A 
ATOM     14  C   UNL     1       6.338  -7.108  -1.142  0.00  0.00    +0.041 A 
ATOM     15  C   UNL     1       7.590  -6.518  -1.131  0.00  0.00    +0.020 A 
ATOM     16  C   UNL     1       8.185  -6.180   0.067  0.00  0.00    +0.011 A 
ATOM     17 CL   UNL     1       5.591  -7.525  -2.653  0.00  0.00    -0.084 Cl
ENDBRANCH   3  11
BRANCH   1  21
ATOM     18  C   UNL     1       5.531  -1.510   1.335  0.00  0.00    +0.121 A 
ATOM     19  C   UNL     1       6.238  -1.995   0.245  0.00  0.00    +0.046 A 
ATOM     20  C   UNL     1       7.403  -2.712   0.442  0.00  0.00    +0.008 A 
ATOM     21  C   UNL     1       7.863  -2.946   1.725  0.00  0.00    -0.034 A 
ATOM     22  C   UNL     1       7.160  -2.463   2.813  0.00  0.00    +0.008 A 
ATOM     23  C   UNL     1       5.998  -1.741   2.621  0.00  0.00    +0.046 A 
BRANCH  18  24
ATOM     24  O   UNL     1       4.386  -0.804   1.144  0.00  0.00    -0.487 OA
BRANCH  24  25
ATOM     25  C   UNL     1       3.964  -0.605  -0.207  0.00  0.00    +0.264 C 
BRANCH  25  29
ATOM     26  C   UNL     1       0.339   1.655  -0.251  0.00  0.00    +0.000 A 
ATOM     27  C   UNL     1       1.559   2.304  -0.291  0.00  0.00    +0.000 A 
ATOM     28  C   UNL     1       2.732   1.573  -0.276  0.00  0.00    +0.007 A 
ATOM     29  C   UNL     1       2.685   0.192  -0.222  0.00  0.00    -0.010 A 
ATOM     30  C   UNL     1       1.466  -0.457  -0.181  0.00  0.00    +0.007 A 
ATOM     31  C   UNL     1       0.293   0.274  -0.198  0.00  0.00    +0.000 A 
ENDBRANCH  25  29
ENDBRANCH  24  25
ENDBRANCH  18  24
ENDBRANCH   1  21
BRANCH   9  32
ATOM     32  N   UNL     1      11.467  -2.167   4.420  0.00  0.00    -0.328 N 
ATOM     33  H   UNL     1      11.743  -2.258   5.345  0.00  0.00    +0.145 HD
ATOM     34  H   UNL     1      11.857  -1.475   3.863  0.00  0.00    +0.145 HD
ENDBRANCH   9  32
BRANCH  10  35
ATOM     35  C   UNL     1      10.787  -1.814   1.841  0.00  0.00    +0.101 C 
ATOM     36  N   UNL     1      11.281  -0.990   1.236  0.00  0.00    -0.191 NA
ENDBRANCH  10  35
TORSDOF 7
