REMARK  Name = ZINC39673844
REMARK  8 active torsions:
REMARK  status: ('A' for Active; 'I' for Inactive)
REMARK    1  A    between atoms: C_1  and  C_2
REMARK    2  A    between atoms: C_2  and  C_3
REMARK    3  A    between atoms: C_3  and  C_4
REMARK    4  A    between atoms: C_4  and  C_6
REMARK    5  A    between atoms: C_4  and  N_7
REMARK    6  A    between atoms: C_8  and  C_10
REMARK    7  A    between atoms: C_21  and  C_23
REMARK    8  A    between atoms: C_26  and  C_28
REMARK                            x       y       z     vdW  Elec       q    Type
REMARK                         _______ _______ _______ _____ _____    ______ ____
ROOT
ATOM      1  C   UNL     1       2.161  -4.236   1.519  0.00  0.00    +0.100 C 
ATOM      2  C   UNL     1       2.037  -3.278   2.725  0.00  0.00    +0.121 C 
ATOM      3  N   UNL     1       0.969  -3.870   3.565  0.00  0.00    -0.294 N 
ATOM      4  C   UNL     1       1.210  -5.331   3.493  0.00  0.00    +0.115 C 
ATOM      5  C   UNL     1       1.621  -5.583   2.028  0.00  0.00    -0.004 C 
ATOM      6  C   UNL     1       2.710  -6.649   1.961  0.00  0.00    -0.010 C 
ATOM      7  C   UNL     1       2.133  -7.992   2.417  0.00  0.00    -0.082 C 
ATOM      8  N   UNL     1       1.006  -8.361   1.552  0.00  0.00    +0.379 N 
ATOM      9  C   UNL     1      -0.076  -7.379   1.693  0.00  0.00    -0.082 C 
ATOM     10  C   UNL     1       0.408  -6.010   1.207  0.00  0.00    -0.010 C 
ATOM     11  C   UNL     1      -0.001  -3.225   4.243  0.00  0.00    +0.282 C 
ATOM     12  O   UNL     1      -0.811  -3.857   4.895  0.00  0.00    -0.267 OA
ATOM     13  H   UNL     1       1.314  -8.384   0.592  0.00  0.00    -0.086 HD
ATOM     14  H   UNL     1       0.666  -9.274   1.815  0.00  0.00    -0.086 HD
ENDROOT
BRANCH  11  15
ATOM     15  C   UNL     1      -0.081  -1.763   4.195  0.00  0.00    +0.190 A 
ATOM     16  C   UNL     1      -1.013  -0.982   4.842  0.00  0.00    +0.055 A 
ATOM     17  C   UNL     1      -0.719   0.347   4.522  0.00  0.00    +0.050 A 
ATOM     18  C   UNL     1       0.372   0.330   3.700  0.00  0.00    +0.136 A 
ATOM     19  O   UNL     1       0.751  -0.946   3.515  0.00  0.00    -0.450 OA
BRANCH  18  20
ATOM     20  C   UNL     1       1.029   1.516   3.116  0.00  0.00    +0.017 A 
ATOM     21  C   UNL     1       0.542   2.795   3.396  0.00  0.00    +0.014 A 
ATOM     22  C   UNL     1       1.160   3.900   2.849  0.00  0.00    +0.039 A 
ATOM     23  C   UNL     1       2.261   3.743   2.022  0.00  0.00    +0.123 A 
ATOM     24  C   UNL     1       2.748   2.476   1.741  0.00  0.00    +0.039 A 
ATOM     25  C   UNL     1       2.142   1.364   2.287  0.00  0.00    +0.014 A 
ATOM     26  F   UNL     1       2.863   4.828   1.488  0.00  0.00    -0.205 F 
ENDBRANCH  18  20
ENDBRANCH  11  15
BRANCH   1  28
ATOM     27  N   UNL     1       1.689  -4.028  -0.900  0.00  0.00    -0.312 N 
ATOM     28  C   UNL     1       1.328  -3.739   0.366  0.00  0.00    +0.218 C 
ATOM     29  O   UNL     1       0.333  -3.078   0.577  0.00  0.00    -0.275 OA
ATOM     30  H   UNL     1       2.485  -4.557  -1.069  0.00  0.00    +0.149 HD
BRANCH  27  31
ATOM     31  C   UNL     1       0.879  -3.545  -2.021  0.00  0.00    +0.070 C 
ATOM     32  C   UNL     1      -0.269  -4.522  -2.280  0.00  0.00    +0.028 C 
BRANCH  31  33
ATOM     33  C   UNL     1       1.753  -3.440  -3.273  0.00  0.00    +0.022 C 
BRANCH  33  35
ATOM     34  C   UNL     1       3.699  -2.267  -4.310  0.00  0.00    +0.004 C 
ATOM     35  C   UNL     1       2.826  -2.372  -3.058  0.00  0.00    -0.002 C 
ENDBRANCH  33  35
ENDBRANCH  31  33
ENDBRANCH  27  31
ENDBRANCH   1  28
TORSDOF 6
