REMARK  Name = ZINC13060272
REMARK  10 active torsions:
REMARK  status: ('A' for Active; 'I' for Inactive)
REMARK    1  A    between atoms: C_1  and  C_2
REMARK    2  A    between atoms: C_2  and  O_3
REMARK    3  A    between atoms: O_3  and  C_4
REMARK    4  A    between atoms: C_4  and  C_6
REMARK    5  A    between atoms: C_7  and  C_31
REMARK    6  A    between atoms: N_8  and  C_23
REMARK    7  A    between atoms: C_12  and  C_14
REMARK    8  A    between atoms: C_17  and  O_21
REMARK    9  A    between atoms: O_21  and  C_22
REMARK   10  A    between atoms: C_26  and  C_29
REMARK                            x       y       z     vdW  Elec       q    Type
REMARK                         _______ _______ _______ _____ _____    ______ ____
ROOT
ATOM      1  C   UNL     1      -6.061   6.034   0.275  0.00  0.00    +0.078 C 
ATOM      2  C   UNL     1      -4.915   5.328   0.161  0.00  0.00    +0.029 C 
ATOM      3  N   UNL     1      -4.937   3.977  -0.051  0.00  0.00    -0.228 N 
ATOM      4  C   UNL     1      -6.063   3.262  -0.166  0.00  0.00    +0.311 C 
ATOM      5  O   UNL     1      -5.982   2.065  -0.359  0.00  0.00    -0.252 OA
ATOM      6  N   UNL     1      -7.283   3.826  -0.070  0.00  0.00    -0.288 N 
ATOM      7  C   UNL     1      -7.369   5.278   0.159  0.00  0.00    +0.144 C 
ATOM      8  C   UNL     1      -3.592   6.041   0.270  0.00  0.00    +0.062 C 
ATOM      9  H   UNL     1      -8.086   3.288  -0.153  0.00  0.00    +0.151 HD
ENDROOT
BRANCH   7  10
ATOM     10  C   UNL     1      -8.155   5.881  -0.977  0.00  0.00    -0.021 A 
ATOM     11  C   UNL     1      -7.853   5.540  -2.283  0.00  0.00    +0.009 A 
ATOM     12  C   UNL     1      -8.575   6.088  -3.325  0.00  0.00    +0.047 A 
ATOM     13  C   UNL     1      -9.597   6.988  -3.063  0.00  0.00    +0.134 A 
ATOM     14  C   UNL     1      -9.894   7.333  -1.752  0.00  0.00    +0.060 A 
ATOM     15  C   UNL     1      -9.172   6.779  -0.712  0.00  0.00    +0.024 A 
ATOM     16 BR   UNL     1     -11.286   8.561  -1.389  0.00  0.00    -0.047 Br
BRANCH  13  17
ATOM     17  O   UNL     1     -10.305   7.532  -4.088  0.00  0.00    -0.494 OA
ATOM     18  C   UNL     1      -9.943   7.131  -5.411  0.00  0.00    +0.277 C 
ENDBRANCH  13  17
ENDBRANCH   7  10
BRANCH   3  19
ATOM     19  C   UNL     1      -3.716   3.307  -0.159  0.00  0.00    +0.043 A 
ATOM     20  C   UNL     1      -3.116   2.771   0.975  0.00  0.00    +0.025 A 
ATOM     21  C   UNL     1      -1.913   2.110   0.872  0.00  0.00    +0.017 A 
ATOM     22  C   UNL     1      -1.295   1.978  -0.375  0.00  0.00    +0.063 A 
ATOM     23  C   UNL     1      -1.898   2.522  -1.512  0.00  0.00    +0.017 A 
ATOM     24  C   UNL     1      -3.104   3.177  -1.402  0.00  0.00    +0.025 A 
BRANCH  22  25
ATOM     25  C   UNL     1      -0.005   1.271  -0.489  0.00  0.00    +0.387 C 
ATOM     26  O   UNL     1       0.521   0.802   0.501  0.00  0.00    -0.241 OA
ATOM     27  O   UNL     1       0.586   1.139  -1.692  0.00  0.00    -0.241 OA
ENDBRANCH  22  25
ENDBRANCH   3  19
BRANCH   1  28
ATOM     28  C   UNL     1      -6.040   7.431   0.495  0.00  0.00    +0.339 C 
ATOM     29  O   UNL     1      -4.978   8.018   0.585  0.00  0.00    -0.245 OA
BRANCH  28  30
ATOM     30  O   UNL     1      -7.199   8.114   0.605  0.00  0.00    -0.462 OA
BRANCH  30  32
ATOM     31  C   UNL     1      -8.509  10.120   0.923  0.00  0.00    +0.048 C 
ATOM     32  C   UNL     1      -7.104   9.522   0.826  0.00  0.00    +0.229 C 
ENDBRANCH  30  32
ENDBRANCH  28  30
ENDBRANCH   1  28
TORSDOF 7
