REMARK  Name = ZINC21262960
REMARK  17 active torsions:
REMARK  status: ('A' for Active; 'I' for Inactive)
REMARK    1  A    between atoms: C_1  and  C_2
REMARK    2  A    between atoms: C_2  and  C_34
REMARK    3  A    between atoms: C_4  and  N_10
REMARK    4  A    between atoms: C_6  and  C_8
REMARK    5  A    between atoms: C_6  and  C_9
REMARK    6  A    between atoms: N_10  and  C_11
REMARK    7  A    between atoms: C_11  and  N_13
REMARK    8  A    between atoms: N_13  and  C_14
REMARK    9  A    between atoms: N_13  and  C_21
REMARK   10  A    between atoms: C_14  and  C_15
REMARK   11  A    between atoms: C_21  and  C_22
REMARK   12  A    between atoms: C_24  and  O_32
REMARK   13  A    between atoms: C_25  and  O_30
REMARK   14  A    between atoms: C_26  and  O_28
REMARK   15  A    between atoms: O_28  and  C_29
REMARK   16  A    between atoms: O_30  and  C_31
REMARK   17  A    between atoms: O_32  and  C_33
REMARK                            x       y       z     vdW  Elec       q    Type
REMARK                         _______ _______ _______ _____ _____    ______ ____
ROOT
ATOM      1  N   UNL     1      -2.919   0.578   1.259  0.00  0.00    -0.304 N 
ENDROOT
BRANCH   1   2
ATOM      2  C   UNL     1      -3.740   1.357   1.992  0.00  0.00    +0.134 C 
ATOM      3  S   UNL     1      -4.307   2.841   1.354  0.00  0.00    -0.019 S 
BRANCH   2   4
ATOM      4  N   UNL     1      -4.115   0.967   3.226  0.00  0.00    -0.324 N 
ATOM      5  H   UNL     1      -3.751   0.013   3.635  0.00  0.00    +0.148 HD
BRANCH   4   9
ATOM      6  C   UNL     1      -7.912   2.213   5.073  0.00  0.00    -0.010 C 
ATOM      7  C   UNL     1      -6.682   1.806   5.892  0.00  0.00    -0.072 C 
ATOM      8  C   UNL     1      -5.759   0.946   5.033  0.00  0.00    +0.009 C 
ATOM      9  C   UNL     1      -5.009   1.815   4.024  0.00  0.00    +0.069 C 
ATOM     10  C   UNL     1      -4.177   2.842   4.791  0.00  0.00    +0.009 C 
ATOM     11  C   UNL     1      -5.080   3.724   5.649  0.00  0.00    -0.072 C 
ATOM     12  N   UNL     1      -6.017   2.965   6.450  0.00  0.00    +0.386 N 
ATOM     13  C   UNL     1      -5.807   4.736   4.755  0.00  0.00    -0.010 C 
ATOM     14  C   UNL     1      -4.171   4.530   6.604  0.00  0.00    -0.010 C 
ATOM     15  C   UNL     1      -7.182   0.928   7.061  0.00  0.00    -0.010 C 
ATOM     16  H   UNL     1      -6.769   3.709   6.751  0.00  0.00    -0.084 HD
ATOM     17  H   UNL     1      -5.428   2.663   7.328  0.00  0.00    -0.084 HD
ENDBRANCH   4   9
ENDBRANCH   2   4
ENDBRANCH   1   2
BRANCH   1  18
ATOM     18  C   UNL     1      -2.434  -0.692   1.804  0.00  0.00    +0.142 C 
BRANCH  18  19
ATOM     19  C   UNL     1      -1.142  -0.460   2.545  0.00  0.00    -0.030 A 
ATOM     20  C   UNL     1       0.058  -0.460   1.858  0.00  0.00    +0.005 A 
ATOM     21  C   UNL     1       1.242  -0.242   2.536  0.00  0.00    +0.000 A 
ATOM     22  C   UNL     1       1.228  -0.035   3.903  0.00  0.00    +0.000 A 
ATOM     23  C   UNL     1       0.029  -0.041   4.590  0.00  0.00    +0.000 A 
ATOM     24  C   UNL     1      -1.156  -0.253   3.911  0.00  0.00    +0.005 A 
ENDBRANCH  18  19
ENDBRANCH   1  18
BRANCH   1  25
ATOM     25  C   UNL     1      -2.512   1.002  -0.083  0.00  0.00    +0.142 C 
BRANCH  25  26
ATOM     26  C   UNL     1      -3.421   0.372  -1.106  0.00  0.00    -0.023 A 
ATOM     27  C   UNL     1      -4.513   1.074  -1.583  0.00  0.00    +0.054 A 
ATOM     28  C   UNL     1      -5.349   0.500  -2.528  0.00  0.00    +0.165 A 
ATOM     29  C   UNL     1      -5.091  -0.784  -2.993  0.00  0.00    +0.204 A 
ATOM     30  C   UNL     1      -3.995  -1.488  -2.508  0.00  0.00    +0.165 A 
ATOM     31  C   UNL     1      -3.164  -0.907  -1.563  0.00  0.00    +0.054 A 
BRANCH  30  32
ATOM     32  O   UNL     1      -3.739  -2.745  -2.960  0.00  0.00    -0.491 OA
ATOM     33  C   UNL     1      -2.596  -3.408  -2.417  0.00  0.00    +0.277 C 
ENDBRANCH  30  32
BRANCH  29  34
ATOM     34  O   UNL     1      -5.910  -1.351  -3.921  0.00  0.00    -0.488 OA
ATOM     35  C   UNL     1      -5.578  -1.139  -5.295  0.00  0.00    +0.277 C 
ENDBRANCH  29  34
BRANCH  28  36
ATOM     36  O   UNL     1      -6.420   1.193  -3.000  0.00  0.00    -0.491 OA
ATOM     37  C   UNL     1      -6.692   2.458  -2.394  0.00  0.00    +0.277 C 
ENDBRANCH  28  36
ENDBRANCH  25  26
ENDBRANCH   1  25
TORSDOF 10
