REMARK  Name = ZINC09346028
REMARK  15 active torsions:
REMARK  status: ('A' for Active; 'I' for Inactive)
REMARK    1  A    between atoms: C_1  and  C_2
REMARK    2  A    between atoms: C_2  and  O_3
REMARK    3  A    between atoms: O_3  and  C_4
REMARK    4  A    between atoms: C_4  and  C_6
REMARK    5  A    between atoms: C_7  and  C_25
REMARK    6  A    between atoms: C_10  and  N_11
REMARK    7  A    between atoms: N_11  and  C_12
REMARK    8  A    between atoms: C_12  and  N_14
REMARK    9  A    between atoms: C_15  and  C_17
REMARK   10  A    between atoms: C_17  and  N_67
REMARK   11  A    between atoms: C_18  and  N_67
REMARK   12  A    between atoms: C_28  and  O_33
REMARK   13  A    between atoms: C_29  and  O_31
REMARK   14  A    between atoms: O_31  and  C_32
REMARK   15  A    between atoms: O_33  and  C_34
REMARK                            x       y       z     vdW  Elec       q    Type
REMARK                         _______ _______ _______ _____ _____    ______ ____
ROOT
ATOM      1  C   UNL     1      -1.248  -2.094   0.003  0.00  0.00    +0.095 A 
ATOM      2  C   UNL     1      -1.290  -2.848  -1.236  0.00  0.00    +0.005 A 
ATOM      3  C   UNL     1      -1.341  -4.200  -1.127  0.00  0.00    +0.056 A 
ATOM      4  S   UNL     1      -1.334  -4.469   0.633  0.00  0.00    -0.080 S 
ATOM      5  C   UNL     1      -1.259  -2.829   1.182  0.00  0.00    +0.086 A 
ENDROOT
BRANCH   2   6
ATOM      6  C   UNL     1      -1.277  -2.175  -2.557  0.00  0.00    -0.013 A 
ATOM      7  C   UNL     1      -2.168  -1.136  -2.820  0.00  0.00    +0.012 A 
ATOM      8  C   UNL     1      -2.152  -0.506  -4.048  0.00  0.00    +0.050 A 
ATOM      9  C   UNL     1      -1.257  -0.912  -5.026  0.00  0.00    +0.162 A 
ATOM     10  C   UNL     1      -0.368  -1.953  -4.771  0.00  0.00    +0.162 A 
ATOM     11  C   UNL     1      -0.377  -2.584  -3.540  0.00  0.00    +0.058 A 
BRANCH  10  12
ATOM     12  O   UNL     1       0.508  -2.349  -5.733  0.00  0.00    -0.491 OA
ATOM     13  C   UNL     1       1.391  -3.423  -5.402  0.00  0.00    +0.277 C 
ENDBRANCH  10  12
BRANCH   9  14
ATOM     14  O   UNL     1      -1.248  -0.292  -6.237  0.00  0.00    -0.491 OA
ATOM     15  C   UNL     1      -2.187   0.768  -6.430  0.00  0.00    +0.277 C 
ENDBRANCH   9  14
ENDBRANCH   2   6
BRANCH   1  16
ATOM     16  C   UNL     1      -1.192  -0.633   0.010  0.00  0.00    +0.342 C 
ATOM     17  O   UNL     1      -2.221   0.016   0.023  0.00  0.00    -0.245 OA
BRANCH  16  18
ATOM     18  O   UNL     1       0.002  -0.004   0.002  0.00  0.00    -0.461 OA
BRANCH  18  20
ATOM     19  C   UNL     1       1.418   1.954  -0.001  0.00  0.00    +0.048 C 
ATOM     20  C   UNL     1      -0.017   1.425   0.010  0.00  0.00    +0.229 C 
ENDBRANCH  18  20
ENDBRANCH  16  18
ENDBRANCH   1  16
BRANCH   5  21
ATOM     21  N   UNL     1      -1.222  -2.361   2.484  0.00  0.00    -0.290 N 
ATOM     22  H   UNL     1      -1.183  -1.407   2.656  0.00  0.00    +0.154 HD
BRANCH  21  23
ATOM     23  C   UNL     1      -1.241  -3.231   3.514  0.00  0.00    +0.141 C 
ATOM     24  S   UNL     1      -1.310  -4.914   3.210  0.00  0.00    -0.018 S 
BRANCH  23  25
ATOM     25  N   UNL     1      -1.204  -2.776   4.782  0.00  0.00    -0.269 N 
ATOM     26  C   UNL     1      -1.223  -3.645   5.811  0.00  0.00    +0.201 C 
ATOM     27  O   UNL     1      -1.272  -4.838   5.596  0.00  0.00    -0.278 OA
ATOM     28  H   UNL     1      -1.165  -1.822   4.953  0.00  0.00    +0.156 HD
BRANCH  26  29
ATOM     29  C   UNL     1      -1.182  -3.136   7.229  0.00  0.00    +0.016 C 
BRANCH  29  30
ATOM     30  N   UNL     1      -1.213  -4.283   8.155  0.00  0.00    +0.387 N 
ATOM     31  H   UNL     1      -0.400  -4.884   7.977  0.00  0.00    -0.085 HD
ATOM     32  H   UNL     1      -2.075  -4.819   8.002  0.00  0.00    -0.085 HD
BRANCH  30  33
ATOM     33  C   UNL     1      -1.174  -3.814   9.553  0.00  0.00    -0.071 C 
ATOM     34  C   UNL     1       0.289  -3.523   9.943  0.00  0.00    -0.016 C 
ATOM     35  C   UNL     1       0.293  -2.601  11.132  0.00  0.00    -0.002 C 
ATOM     36  C   UNL     1       0.388  -3.361  12.469  0.00  0.00    -0.000 C 
ATOM     37  C   UNL     1      -0.494  -4.624  12.501  0.00  0.00    -0.000 C 
ATOM     38  C   UNL     1      -1.846  -4.398  11.880  0.00  0.00    -0.002 C 
ATOM     39  C   UNL     1      -1.784  -4.828  10.400  0.00  0.00    -0.016 C 
ENDBRANCH  30  33
ENDBRANCH  29  30
ENDBRANCH  26  29
ENDBRANCH  23  25
ENDBRANCH  21  23
ENDBRANCH   5  21
TORSDOF 12
