REMARK  Name = ZINC66346537
REMARK  6 active torsions:
REMARK  status: ('A' for Active; 'I' for Inactive)
REMARK    1  A    between atoms: C_1  and  C_2
REMARK    2  A    between atoms: N_4  and  C_5
REMARK    3  A    between atoms: C_8  and  N_11
REMARK    4  A    between atoms: N_14  and  C_15
REMARK    5  A    between atoms: C_15  and  C_17
REMARK    6  A    between atoms: C_15  and  C_24
REMARK                            x       y       z     vdW  Elec       q    Type
REMARK                         _______ _______ _______ _____ _____    ______ ____
ROOT
ATOM      1  N   UNL     1      -0.710  -6.245   0.176  0.00  0.00    -0.269 N 
ATOM      2  C   UNL     1      -1.810  -7.013   0.051  0.00  0.00    +0.305 C 
ATOM      3  O   UNL     1      -2.909  -6.496  -0.008  0.00  0.00    -0.252 OA
ATOM      4  N   UNL     1      -1.691  -8.354  -0.011  0.00  0.00    -0.288 N 
ATOM      5  H   UNL     1       0.160  -6.658   0.291  0.00  0.00    +0.156 HD
ATOM      6  H   UNL     1      -0.815  -8.766   0.036  0.00  0.00    +0.151 HD
ENDROOT
BRANCH   1  10
ATOM      7  C   UNL     1      -1.047  -2.089   0.076  0.00  0.00    +0.033 A 
ATOM      8  C   UNL     1       0.068  -2.709  -0.474  0.00  0.00    +0.025 A 
ATOM      9  C   UNL     1       0.179  -4.084  -0.440  0.00  0.00    +0.025 A 
ATOM     10  C   UNL     1      -0.823  -4.848   0.143  0.00  0.00    +0.035 A 
ATOM     11  C   UNL     1      -1.938  -4.229   0.692  0.00  0.00    +0.025 A 
ATOM     12  C   UNL     1      -2.046  -2.853   0.664  0.00  0.00    +0.025 A 
BRANCH   7  16
ATOM     13  C   UNL     1      -1.766   1.468   1.081  0.00  0.00    +0.109 C 
ATOM     14  C   UNL     1      -1.736  -0.039   1.069  0.00  0.00    +0.214 C 
ATOM     15  O   UNL     1      -2.232  -0.662   1.984  0.00  0.00    -0.276 OA
ATOM     16  N   UNL     1      -1.160  -0.693   0.042  0.00  0.00    -0.286 N 
ATOM     17  H   UNL     1      -0.824  -0.198  -0.722  0.00  0.00    +0.155 HD
ENDBRANCH   7  16
ENDBRANCH   1  10
BRANCH   4  18
ATOM     18  C   UNL     1      -2.887  -9.190  -0.147  0.00  0.00    +0.136 C 
BRANCH  18  19
ATOM     19  C   UNL     1      -2.606 -10.563   0.406  0.00  0.00    -0.023 A 
ATOM     20  C   UNL     1      -1.381 -11.162   0.180  0.00  0.00    +0.007 A 
ATOM     21  C   UNL     1      -1.123 -12.421   0.687  0.00  0.00    +0.020 A 
ATOM     22  C   UNL     1      -2.091 -13.083   1.420  0.00  0.00    +0.041 A 
ATOM     23  C   UNL     1      -3.317 -12.484   1.646  0.00  0.00    +0.020 A 
ATOM     24  C   UNL     1      -3.572 -11.222   1.143  0.00  0.00    +0.007 A 
ATOM     25 CL   UNL     1      -1.768 -14.666   2.057  0.00  0.00    -0.084 Cl
ENDBRANCH  18  19
BRANCH  18  26
ATOM     26  C   UNL     1      -3.258  -9.301  -1.604  0.00  0.00    -0.016 A 
ATOM     27  C   UNL     1      -4.583  -9.253  -1.996  0.00  0.00    +0.013 A 
ATOM     28  C   UNL     1      -4.883  -9.356  -3.314  0.00  0.00    +0.045 A 
ATOM     29  S   UNL     1      -3.264  -9.526  -4.048  0.00  0.00    -0.105 S 
ATOM     30  C   UNL     1      -2.297  -9.443  -2.550  0.00  0.00    +0.051 A 
ENDBRANCH  18  26
ENDBRANCH   4  18
TORSDOF 5
