REMARK  Name = ZINC36029881
REMARK  9 active torsions:
REMARK  status: ('A' for Active; 'I' for Inactive)
REMARK    1  A    between atoms: C_1  and  C_2
REMARK    2  A    between atoms: C_2  and  C_3
REMARK    3  A    between atoms: C_3  and  C_5
REMARK    4  A    between atoms: C_3  and  C_6
REMARK    5  A    between atoms: N_10  and  C_31
REMARK    6  A    between atoms: N_15  and  S_18
REMARK    7  A    between atoms: S_18  and  C_21
REMARK    8  A    between atoms: C_25  and  C_27
REMARK    9  A    between atoms: C_31  and  C_32
REMARK                            x       y       z     vdW  Elec       q    Type
REMARK                         _______ _______ _______ _____ _____    ______ ____
ROOT
ATOM      1  C   UNL     1       1.281  -2.326  -2.026  0.00  0.00    +0.022 C 
ATOM      2  C   UNL     1       1.782  -2.637  -0.632  0.00  0.00    +0.201 C 
ATOM      3  O   UNL     1       1.331  -2.186   0.400  0.00  0.00    -0.277 OA
ATOM      4  N   UNL     1       2.813  -3.501  -0.731  0.00  0.00    -0.309 N 
ATOM      5  C   UNL     1       3.054  -3.815  -2.142  0.00  0.00    +0.006 C 
ATOM      6  N   UNL     1       2.372  -2.765  -2.929  0.00  0.00    +0.401 N 
ATOM      7  C   UNL     1       4.552  -3.794  -2.439  0.00  0.00    +0.023 C 
ATOM      8  C   UNL     1       5.254  -4.861  -1.593  0.00  0.00    +0.109 C 
ATOM      9  N   UNL     1       4.601  -6.156  -1.828  0.00  0.00    -0.177 NA
ATOM     10  C   UNL     1       3.148  -6.260  -1.640  0.00  0.00    +0.109 C 
ATOM     11  C   UNL     1       2.463  -5.181  -2.487  0.00  0.00    +0.023 C 
ATOM     12  H   UNL     1       1.995  -3.146  -3.784  0.00  0.00    -0.082 HD
ATOM     13  H   UNL     1       3.001  -2.001  -3.124  0.00  0.00    -0.082 HD
ENDROOT
BRANCH   9  14
ATOM     14  S   UNL     1       5.487  -7.474  -2.296  0.00  0.00    +0.061 S 
ATOM     15  O   UNL     1       4.589  -8.351  -2.963  0.00  0.00    -0.153 OA
ATOM     16  O   UNL     1       6.664  -6.973  -2.917  0.00  0.00    -0.153 OA
BRANCH  14  17
ATOM     17  C   UNL     1       6.005  -8.302  -0.830  0.00  0.00    +0.106 A 
ATOM     18  C   UNL     1       7.202  -7.961  -0.229  0.00  0.00    +0.028 A 
ATOM     19  C   UNL     1       7.608  -8.611   0.922  0.00  0.00    +0.002 A 
ATOM     20  C   UNL     1       6.816  -9.601   1.472  0.00  0.00    +0.012 A 
ATOM     21  C   UNL     1       5.618  -9.942   0.872  0.00  0.00    +0.057 A 
ATOM     22  C   UNL     1       5.210  -9.289  -0.277  0.00  0.00    +0.041 A 
BRANCH  21  23
ATOM     23  C   UNL     1       4.755 -11.022   1.471  0.00  0.00    +0.417 C 
ATOM     24  F   UNL     1       5.372 -11.527   2.621  0.00  0.00    -0.166 F 
ATOM     25  F   UNL     1       3.507 -10.489   1.808  0.00  0.00    -0.166 F 
ATOM     26  F   UNL     1       4.587 -12.054   0.541  0.00  0.00    -0.166 F 
ENDBRANCH  21  23
ENDBRANCH  14  17
ENDBRANCH   9  14
BRANCH   1  27
ATOM     27  C   UNL     1       1.033  -0.824  -2.180  0.00  0.00    -0.020 C 
ATOM     28  C   UNL     1       0.599  -0.523  -3.616  0.00  0.00    +0.006 C 
BRANCH  27  30
ATOM     29  C   UNL     1      -0.230   1.133  -1.276  0.00  0.00    +0.004 C 
ATOM     30  C   UNL     1      -0.068  -0.387  -1.212  0.00  0.00    -0.001 C 
ENDBRANCH  27  30
ENDBRANCH   1  27
BRANCH   4  31
ATOM     31  C   UNL     1       3.575  -4.041   0.398  0.00  0.00    +0.142 C 
BRANCH  31  32
ATOM     32  C   UNL     1       4.593  -3.026   0.849  0.00  0.00    -0.012 A 
ATOM     33  C   UNL     1       5.672  -2.706   0.038  0.00  0.00    +0.008 A 
ATOM     34  C   UNL     1       6.584  -1.766   0.494  0.00  0.00    +0.020 A 
ATOM     35  C   UNL     1       6.388  -1.183   1.732  0.00  0.00    +0.111 A 
ATOM     36  N   UNL     1       5.351  -1.512   2.476  0.00  0.00    -0.263 NA
ATOM     37  C   UNL     1       4.461  -2.397   2.072  0.00  0.00    +0.115 A 
ENDBRANCH  31  32
ENDBRANCH   4  31
TORSDOF 7
