REMARK  Name = ZINC37605745
REMARK  5 active torsions:
REMARK  status: ('A' for Active; 'I' for Inactive)
REMARK    1  A    between atoms: C_1  and  C_2
REMARK    2  A    between atoms: C_2  and  C_3
REMARK    3  A    between atoms: C_2  and  C_4
REMARK    4  A    between atoms: C_6  and  C_9
REMARK    5  A    between atoms: C_11  and  N_17
REMARK                            x       y       z     vdW  Elec       q    Type
REMARK                         _______ _______ _______ _____ _____    ______ ____
ROOT
ATOM      1  C   UNL     1      -4.135  -2.408  -1.402  0.00  0.00    +0.076 A 
ATOM      2  C   UNL     1      -5.441  -2.616  -0.953  0.00  0.00    +0.041 A 
ATOM      3  C   UNL     1      -6.309  -3.395  -1.699  0.00  0.00    +0.061 A 
ATOM      4  C   UNL     1      -5.879  -3.970  -2.892  0.00  0.00    +0.147 A 
ATOM      5  C   UNL     1      -4.586  -3.766  -3.338  0.00  0.00    +0.079 A 
ATOM      6  C   UNL     1      -3.713  -2.984  -2.604  0.00  0.00    +0.139 A 
ATOM      7  F   UNL     1      -2.453  -2.781  -3.045  0.00  0.00    -0.205 F 
ATOM      8  F   UNL     1      -6.729  -4.731  -3.617  0.00  0.00    -0.203 F 
ENDROOT
BRANCH   1  11
ATOM      9  C   UNL     1      -1.412  -0.526   0.013  0.00  0.00    +0.175 A 
ATOM     10  N   UNL     1      -1.957  -1.303  -0.925  0.00  0.00    -0.191 NA
ATOM     11  C   UNL     1      -3.204  -1.578  -0.612  0.00  0.00    +0.261 A 
ATOM     12  O   UNL     1      -3.483  -0.970   0.555  0.00  0.00    -0.333 OA
ATOM     13  N   UNL     1      -2.295  -0.294   0.942  0.00  0.00    -0.061 NA
BRANCH   9  15
ATOM     14  C   UNL     1      -0.019   1.526   0.010  0.00  0.00    +0.015 C 
ATOM     15  C   UNL     1       0.002  -0.004   0.002  0.00  0.00    +0.054 C 
ATOM     16  C   UNL     1       0.742  -0.511   1.242  0.00  0.00    +0.015 C 
ENDBRANCH   9  15
ENDBRANCH   1  11
BRANCH   3  17
ATOM     17  N   UNL     1      -7.619  -3.606  -1.252  0.00  0.00    -0.356 N 
ATOM     18  H   UNL     1      -7.918  -3.206  -0.420  0.00  0.00    +0.142 HD
ATOM     19  H   UNL     1      -8.227  -4.152  -1.774  0.00  0.00    +0.142 HD
ENDBRANCH   3  17
TORSDOF 3
