REMARK  Name = ZINC12955759
REMARK  7 active torsions:
REMARK  status: ('A' for Active; 'I' for Inactive)
REMARK    1  A    between atoms: C_1  and  N_2
REMARK    2  A    between atoms: C_3  and  N_19
REMARK    3  A    between atoms: C_6  and  S_7
REMARK    4  A    between atoms: S_7  and  C_8
REMARK    5  A    between atoms: C_11  and  C_14
REMARK    6  A    between atoms: N_22  and  N_23
REMARK    7  A    between atoms: C_27  and  C_30
REMARK                            x       y       z     vdW  Elec       q    Type
REMARK                         _______ _______ _______ _____ _____    ______ ____
ROOT
ATOM      1  N   UNL     1      -4.473  -2.697   0.031  0.00  0.00    -0.253 N 
ATOM      2  C   UNL     1      -5.798  -2.451   0.045  0.00  0.00    +0.321 C 
ATOM      3  O   UNL     1      -6.203  -1.304   0.056  0.00  0.00    -0.251 OA
ATOM      4  N   UNL     1      -6.674  -3.475   0.048  0.00  0.00    -0.219 N 
ATOM      5  H   UNL     1      -4.150  -3.612   0.022  0.00  0.00    +0.158 HD
ATOM      6  H   UNL     1      -7.628  -3.298   0.058  0.00  0.00    +0.174 HD
ENDROOT
BRANCH   4   7
ATOM      7  N   UNL     1      -6.207  -4.796   0.035  0.00  0.00    -0.246 N 
ATOM      8  C   UNL     1      -7.111  -5.853   0.038  0.00  0.00    +0.153 A 
ATOM      9  C   UNL     1      -6.640  -7.163   0.020  0.00  0.00    +0.083 A 
ATOM     10  C   UNL     1      -7.551  -8.205   0.028  0.00  0.00    +0.037 A 
ATOM     11  C   UNL     1      -8.906  -7.900   0.043  0.00  0.00    +0.074 A 
ATOM     12  C   UNL     1      -9.302  -6.578   0.055  0.00  0.00    +0.125 A 
ATOM     13  N   UNL     1      -8.411  -5.604   0.052  0.00  0.00    -0.237 NA
ATOM     14 CL   UNL     1      -4.935  -7.486  -0.006  0.00  0.00    -0.080 Cl
ATOM     15  H   UNL     1      -5.253  -4.973   0.025  0.00  0.00    +0.172 HD
BRANCH  11  16
ATOM     16  C   UNL     1      -9.934  -9.002   0.047  0.00  0.00    +0.419 C 
ATOM     17  F   UNL     1     -11.216  -8.444   0.063  0.00  0.00    -0.166 F 
ATOM     18  F   UNL     1      -9.781  -9.786  -1.102  0.00  0.00    -0.166 F 
ATOM     19  F   UNL     1      -9.758  -9.800   1.182  0.00  0.00    -0.166 F 
ENDBRANCH  11  16
ENDBRANCH   4   7
BRANCH   1  22
ATOM     20  C   UNL     1      -1.402  -2.963  -0.001  0.00  0.00    +0.152 C 
ATOM     21  N   UNL     1      -2.190  -1.728   0.014  0.00  0.00    -0.310 N 
ATOM     22  C   UNL     1      -3.563  -1.633   0.028  0.00  0.00    +0.127 A 
ATOM     23  C   UNL     1      -3.865  -0.316   0.038  0.00  0.00    +0.155 A 
ATOM     24  N   UNL     1      -2.713   0.380   0.036  0.00  0.00    -0.228 NA
ATOM     25  C   UNL     1      -1.702  -0.454   0.016  0.00  0.00    +0.176 A 
BRANCH  25  26
ATOM     26  S   UNL     1       0.002  -0.004   0.002  0.00  0.00    -0.030 S 
BRANCH  26  27
ATOM     27  C   UNL     1      -0.022   1.758   0.012  0.00  0.00    +0.123 A 
ATOM     28  C   UNL     1       1.178   2.465   0.004  0.00  0.00    +0.074 A 
ATOM     29  C   UNL     1       1.144   3.848   0.011  0.00  0.00    +0.036 A 
ATOM     30  C   UNL     1      -0.093   4.480   0.026  0.00  0.00    +0.074 A 
ATOM     31  C   UNL     1      -1.243   3.717   0.033  0.00  0.00    +0.124 A 
ATOM     32  N   UNL     1      -1.181   2.398   0.021  0.00  0.00    -0.246 NA
ATOM     33 CL   UNL     1       2.696   1.622  -0.014  0.00  0.00    -0.081 Cl
BRANCH  30  34
ATOM     34  C   UNL     1      -0.178   5.985   0.035  0.00  0.00    +0.419 C 
ATOM     35  F   UNL     1      -0.217   6.457  -1.281  0.00  0.00    -0.166 F 
ATOM     36  F   UNL     1      -1.339   6.382   0.707  0.00  0.00    -0.166 F 
ATOM     37  F   UNL     1       0.942   6.511   0.687  0.00  0.00    -0.166 F 
ENDBRANCH  30  34
ENDBRANCH  26  27
ENDBRANCH  25  26
ENDBRANCH   1  22
TORSDOF 6
