REMARK  Name = ZINC66037983
REMARK  5 active torsions:
REMARK  status: ('A' for Active; 'I' for Inactive)
REMARK    1  A    between atoms: C_4  and  C_7
REMARK    2  A    between atoms: C_7  and  N_8
REMARK    3  A    between atoms: C_11  and  N_14
REMARK    4  A    between atoms: C_20  and  C_23
REMARK    5  A    between atoms: N_25  and  C_26
REMARK                            x       y       z     vdW  Elec       q    Type
REMARK                         _______ _______ _______ _____ _____    ______ ____
ROOT
ATOM      1  N   UNL     1       4.501  -5.861  -2.483  0.00  0.00    -0.297 N 
ATOM      2  C   UNL     1       5.371  -6.570  -3.229  0.00  0.00    +0.302 C 
ATOM      3  O   UNL     1       6.095  -6.001  -4.024  0.00  0.00    -0.253 OA
ATOM      4  N   UNL     1       5.439  -7.909  -3.095  0.00  0.00    -0.286 N 
ATOM      5  C   UNL     1       4.493  -8.623  -2.227  0.00  0.00    +0.110 C 
ATOM      6  C   UNL     1       5.285  -9.482  -1.236  0.00  0.00    +0.032 C 
ATOM      7  C   UNL     1       6.241 -10.394  -2.008  0.00  0.00    +0.078 C 
ATOM      8  C   UNL     1       7.230  -9.541  -2.806  0.00  0.00    +0.032 C 
ATOM      9  C   UNL     1       6.457  -8.683  -3.819  0.00  0.00    +0.110 C 
ATOM     10  H   UNL     1       3.873  -6.320  -1.903  0.00  0.00    +0.151 HD
ENDROOT
BRANCH   1  14
ATOM     11  N   UNL     1       2.999  -1.923  -2.473  0.00  0.00    +0.380 N 
ATOM     12  C   UNL     1       3.866  -2.301  -1.350  0.00  0.00    -0.077 C 
ATOM     13  C   UNL     1       3.934  -3.826  -1.246  0.00  0.00    +0.004 C 
ATOM     14  C   UNL     1       4.504  -4.397  -2.547  0.00  0.00    +0.071 C 
ATOM     15  C   UNL     1       3.634  -3.934  -3.720  0.00  0.00    +0.004 C 
ATOM     16  C   UNL     1       3.577  -2.405  -3.733  0.00  0.00    -0.077 C 
ATOM     17  H   UNL     1       2.086  -2.333  -2.344  0.00  0.00    -0.082 HD
BRANCH  11  18
ATOM     18  C   UNL     1       2.874  -0.460  -2.522  0.00  0.00    -0.075 C 
BRANCH  18  22
ATOM     19  C   UNL     1      -0.012   1.527   0.017  0.00  0.00    +0.000 C 
ATOM     20  C   UNL     1       1.423   2.056   0.006  0.00  0.00    +0.000 C 
ATOM     21  C   UNL     1       2.139   1.563  -1.253  0.00  0.00    +0.002 C 
ATOM     22  C   UNL     1       2.159   0.033  -1.262  0.00  0.00    -0.028 C 
ATOM     23  C   UNL     1       0.723  -0.496  -1.252  0.00  0.00    +0.002 C 
ATOM     24  C   UNL     1       0.007  -0.003   0.008  0.00  0.00    +0.000 C 
ENDBRANCH  18  22
ENDBRANCH  11  18
ENDBRANCH   1  14
BRANCH   7  25
ATOM     25  C   UNL     1       6.998 -11.265  -1.038  0.00  0.00    +0.216 C 
ATOM     26  O   UNL     1       6.793 -11.166   0.153  0.00  0.00    -0.276 OA
ATOM     27  N   UNL     1       7.902 -12.153  -1.495  0.00  0.00    -0.312 N 
ATOM     28  H   UNL     1       8.066 -12.233  -2.448  0.00  0.00    +0.149 HD
BRANCH  27  29
ATOM     29  C   UNL     1       8.638 -13.000  -0.552  0.00  0.00    +0.073 C 
ATOM     30  C   UNL     1      10.140 -13.178  -0.785  0.00  0.00    +0.024 C 
ATOM     31  C   UNL     1       9.179 -14.333  -1.073  0.00  0.00    +0.024 C 
ENDBRANCH  27  29
ENDBRANCH   7  25
TORSDOF 5
