REMARK  Name = ZINC08934571
REMARK  9 active torsions:
REMARK  status: ('A' for Active; 'I' for Inactive)
REMARK    1  A    between atoms: C_1  and  C_2
REMARK    2  A    between atoms: C_5  and  S_8
REMARK    3  A    between atoms: S_8  and  N_11
REMARK    4  A    between atoms: N_14  and  C_15
REMARK    5  A    between atoms: N_14  and  O_32
REMARK    6  A    between atoms: C_17  and  C_30
REMARK    7  A    between atoms: C_17  and  C_31
REMARK    8  A    between atoms: N_21  and  C_22
REMARK    9  A    between atoms: C_22  and  C_23
REMARK                            x       y       z     vdW  Elec       q    Type
REMARK                         _______ _______ _______ _____ _____    ______ ____
ROOT
ATOM      1  N   UNL     1      -1.453   6.958   0.316  0.00  0.00    -0.167 N 
ATOM      2  C   UNL     1      -0.975   5.788   0.782  0.00  0.00    +0.346 C 
ATOM      3  O   UNL     1       0.166   5.453   0.527  0.00  0.00    -0.249 OA
ATOM      4  N   UNL     1      -1.761   4.989   1.530  0.00  0.00    -0.144 N 
ATOM      5  H   UNL     1      -2.384   7.193   0.457  0.00  0.00    +0.178 HD
ENDROOT
BRANCH   4   6
ATOM      6  C   UNL     1      -1.209   3.772   2.131  0.00  0.00    +0.210 C 
ATOM      7  C   UNL     1      -1.626   3.719   3.615  0.00  0.00    +0.054 C 
ATOM      8  S   UNL     1      -2.544   2.133   3.658  0.00  0.00    -0.093 S 
ATOM      9  C   UNL     1      -2.376   1.657   1.950  0.00  0.00    +0.112 C 
ATOM     10  S   UNL     1      -2.997   0.246   1.204  0.00  0.00    -0.028 S 
ATOM     11  N   UNL     1      -1.662   2.631   1.369  0.00  0.00    -0.293 N 
ATOM     12  C   UNL     1      -0.402   3.673   4.531  0.00  0.00    +0.026 C 
ATOM     13  C   UNL     1      -2.538   4.894   3.974  0.00  0.00    +0.026 C 
BRANCH  11  14
ATOM     14  C   UNL     1      -1.342   2.541  -0.057  0.00  0.00    +0.143 C 
BRANCH  14  15
ATOM     15  C   UNL     1      -0.029   1.823  -0.233  0.00  0.00    -0.030 A 
ATOM     16  C   UNL     1       1.153   2.540  -0.255  0.00  0.00    +0.008 A 
ATOM     17  C   UNL     1       2.357   1.883  -0.422  0.00  0.00    +0.038 A 
ATOM     18  C   UNL     1       2.380   0.506  -0.567  0.00  0.00    +0.123 A 
ATOM     19  C   UNL     1       1.196  -0.211  -0.545  0.00  0.00    +0.038 A 
ATOM     20  C   UNL     1      -0.007   0.449  -0.378  0.00  0.00    +0.008 A 
ATOM     21  F   UNL     1       3.557  -0.137  -0.730  0.00  0.00    -0.205 F 
ENDBRANCH  14  15
ENDBRANCH  11  14
ENDBRANCH   4   6
BRANCH   1  22
ATOM     22  S   UNL     1      -0.452   7.997  -0.498  0.00  0.00    +0.076 S 
ATOM     23  O   UNL     1      -1.246   9.112  -0.879  0.00  0.00    -0.150 OA
ATOM     24  O   UNL     1       0.722   8.131   0.291  0.00  0.00    -0.150 OA
BRANCH  22  29
ATOM     25  C   UNL     1       1.209   5.241  -5.603  0.00  0.00    +0.044 C 
ATOM     26  C   UNL     1       0.794   5.929  -4.328  0.00  0.00    -0.050 A 
ATOM     27  C   UNL     1      -0.343   6.716  -4.305  0.00  0.00    +0.005 A 
ATOM     28  C   UNL     1      -0.723   7.347  -3.136  0.00  0.00    +0.029 A 
ATOM     29  C   UNL     1       0.033   7.192  -1.989  0.00  0.00    +0.109 A 
ATOM     30  C   UNL     1       1.172   6.409  -2.013  0.00  0.00    +0.029 A 
ATOM     31  C   UNL     1       1.550   5.773  -3.181  0.00  0.00    +0.005 A 
ENDBRANCH  22  29
ENDBRANCH   1  22
BRANCH   4  32
ATOM     32  O   UNL     1      -3.121   5.325   1.735  0.00  0.00    -0.289 OA
ATOM     33  H   UNL     1      -3.414   6.100   1.236  0.00  0.00    +0.242 HD
ENDBRANCH   4  32
TORSDOF 6
