REMARK  Name = ZINC20745141
REMARK  9 active torsions:
REMARK  status: ('A' for Active; 'I' for Inactive)
REMARK    1  A    between atoms: C_1  and  O_2
REMARK    2  A    between atoms: O_2  and  C_3
REMARK    3  A    between atoms: C_3  and  C_5
REMARK    4  A    between atoms: C_5  and  C_7
REMARK    5  A    between atoms: C_5  and  N_11
REMARK    6  A    between atoms: C_7  and  C_8
REMARK    7  A    between atoms: C_8  and  S_9
REMARK    8  A    between atoms: S_9  and  C_10
REMARK    9  A    between atoms: C_23  and  C_25
REMARK                            x       y       z     vdW  Elec       q    Type
REMARK                         _______ _______ _______ _____ _____    ______ ____
ROOT
ATOM      1  N   UNL     1       3.168  -2.309   1.353  0.00  0.00    -0.286 N 
ATOM      2  C   UNL     1       2.616  -2.714   2.514  0.00  0.00    +0.304 C 
ATOM      3  O   UNL     1       1.411  -2.651   2.670  0.00  0.00    -0.253 OA
ATOM      4  N   UNL     1       3.399  -3.188   3.504  0.00  0.00    -0.273 N 
ATOM      5  C   UNL     1       2.809  -3.740   4.732  0.00  0.00    +0.116 C 
ATOM      6  C   UNL     1       3.156  -5.231   4.829  0.00  0.00    +0.074 C 
ATOM      7  C   UNL     1       4.615  -5.412   4.500  0.00  0.00    +0.040 A 
ATOM      8  C   UNL     1       5.379  -4.504   3.855  0.00  0.00    +0.062 A 
ATOM      9  N   UNL     1       6.610  -5.006   3.737  0.00  0.00    -0.348 N 
ATOM     10  C   UNL     1       6.643  -6.192   4.287  0.00  0.00    +0.171 A 
ATOM     11  N   UNL     1       5.415  -6.480   4.776  0.00  0.00    -0.349 N 
ATOM     12  H   UNL     1       5.153  -7.293   5.235  0.00  0.00    +0.166 HD
ATOM     13  C   UNL     1       4.867  -3.170   3.378  0.00  0.00    +0.159 C 
ATOM     14  H   UNL     1       4.133  -2.291   1.255  0.00  0.00    +0.151 HD
ATOM     15  H   UNL     1       7.360  -4.562   3.311  0.00  0.00    +0.167 HD
ENDROOT
BRANCH  13  16
ATOM     16  C   UNL     1       5.442  -2.070   4.233  0.00  0.00    +0.014 A 
ATOM     17  C   UNL     1       6.519  -2.329   5.061  0.00  0.00    +0.010 A 
ATOM     18  C   UNL     1       7.047  -1.321   5.844  0.00  0.00    +0.016 A 
ATOM     19  C   UNL     1       6.498  -0.051   5.802  0.00  0.00    +0.021 A 
ATOM     20  C   UNL     1       5.421   0.210   4.975  0.00  0.00    +0.054 A 
ATOM     21  C   UNL     1       4.896  -0.799   4.185  0.00  0.00    +0.130 A 
ATOM     22  F   UNL     1       3.847  -0.544   3.372  0.00  0.00    -0.205 F 
ATOM     23 BR   UNL     1       7.222   1.327   6.875  0.00  0.00    -0.050 Br
ENDBRANCH  13  16
BRANCH   1  24
ATOM     24  C   UNL     1       2.310  -1.897   0.239  0.00  0.00    +0.184 C 
BRANCH  24  25
ATOM     25  C   UNL     1       1.893  -3.112  -0.549  0.00  0.00    +0.327 C 
ATOM     26  O   UNL     1       2.273  -4.209  -0.215  0.00  0.00    -0.249 OA
BRANCH  25  28
ATOM     27  C   UNL     1       0.744  -4.169  -2.323  0.00  0.00    +0.280 C 
ATOM     28  O   UNL     1       1.099  -2.975  -1.623  0.00  0.00    -0.467 OA
ENDBRANCH  25  28
ENDBRANCH  24  25
BRANCH  24  29
ATOM     29  C   UNL     1       3.081  -0.939  -0.671  0.00  0.00    +0.044 C 
BRANCH  29  30
ATOM     30  C   UNL     1       3.397   0.348   0.095  0.00  0.00    +0.071 C 
BRANCH  30  31
ATOM     31  S   UNL     1       4.311   1.484  -0.984  0.00  0.00    -0.164 S 
ATOM     32  C   UNL     1       4.603   2.940   0.059  0.00  0.00    +0.084 C 
ENDBRANCH  30  31
ENDBRANCH  29  30
ENDBRANCH  24  29
ENDBRANCH   1  24
TORSDOF 7
