REMARK  Name = ZINC13390747
REMARK  7 active torsions:
REMARK  status: ('A' for Active; 'I' for Inactive)
REMARK    1  A    between atoms: C_1  and  C_2
REMARK    2  A    between atoms: C_5  and  S_8
REMARK    3  A    between atoms: S_8  and  N_11
REMARK    4  A    between atoms: C_14  and  C_17
REMARK    5  A    between atoms: N_19  and  C_20
REMARK    6  A    between atoms: C_23  and  C_27
REMARK    7  A    between atoms: C_25  and  C_26
REMARK                            x       y       z     vdW  Elec       q    Type
REMARK                         _______ _______ _______ _____ _____    ______ ____
ROOT
ATOM      1  N   UNL     1       1.390   2.010   0.020  0.00  0.00    -0.177 NA
ATOM      2  C   UNL     1       0.003   1.528   0.025  0.00  0.00    +0.110 C 
ATOM      3  C   UNL     1       0.013  -0.004   0.010  0.00  0.00    +0.030 C 
ATOM      4  C   UNL     1       0.845  -0.493  -1.179  0.00  0.00    +0.078 C 
ATOM      5  C   UNL     1       2.287  -0.001  -1.031  0.00  0.00    +0.030 C 
ATOM      6  C   UNL     1       2.302   1.531  -1.028  0.00  0.00    +0.110 C 
ENDROOT
BRANCH   4   7
ATOM      7  C   UNL     1       0.830  -1.999  -1.217  0.00  0.00    +0.220 C 
ATOM      8  O   UNL     1       0.214  -2.620  -0.376  0.00  0.00    -0.275 OA
ATOM      9  N   UNL     1       1.500  -2.656  -2.184  0.00  0.00    -0.285 N 
ATOM     10  H   UNL     1       1.925  -2.160  -2.902  0.00  0.00    +0.155 HD
BRANCH   9  11
ATOM     11  C   UNL     1       1.582  -4.047  -2.154  0.00  0.00    +0.036 A 
ATOM     12  C   UNL     1       1.458  -4.724  -0.944  0.00  0.00    +0.024 A 
ATOM     13  C   UNL     1       1.533  -6.098  -0.912  0.00  0.00    +0.017 A 
ATOM     14  C   UNL     1       1.745  -6.813  -2.094  0.00  0.00    +0.064 A 
ATOM     15  C   UNL     1       1.874  -6.129  -3.307  0.00  0.00    +0.020 A 
ATOM     16  C   UNL     1       1.793  -4.755  -3.333  0.00  0.00    -0.028 A 
ATOM     17  C   UNL     1       1.931  -4.018  -4.640  0.00  0.00    +0.045 C 
BRANCH  14  18
ATOM     18  C   UNL     1       1.833  -8.284  -2.062  0.00  0.00    +0.387 C 
ATOM     19  O   UNL     1       2.017  -8.905  -3.091  0.00  0.00    -0.241 OA
ATOM     20  O   UNL     1       1.708  -8.941  -0.893  0.00  0.00    -0.241 OA
ENDBRANCH  14  18
ENDBRANCH   9  11
ENDBRANCH   4   7
BRANCH   1  21
ATOM     21  S   UNL     1       1.917   3.075   1.175  0.00  0.00    +0.061 S 
ATOM     22  O   UNL     1       3.031   3.759   0.618  0.00  0.00    -0.153 OA
ATOM     23  O   UNL     1       0.766   3.756   1.655  0.00  0.00    -0.153 OA
BRANCH  21  28
ATOM     24  C   UNL     1       4.033  -0.196   5.783  0.00  0.00    +0.044 C 
ATOM     25  C   UNL     1       3.504   0.621   4.632  0.00  0.00    -0.050 A 
ATOM     26  C   UNL     1       4.350   0.997   3.605  0.00  0.00    +0.005 A 
ATOM     27  C   UNL     1       3.866   1.746   2.550  0.00  0.00    +0.029 A 
ATOM     28  C   UNL     1       2.535   2.119   2.520  0.00  0.00    +0.105 A 
ATOM     29  C   UNL     1       1.690   1.748   3.549  0.00  0.00    +0.029 A 
ATOM     30  C   UNL     1       2.174   0.995   4.603  0.00  0.00    +0.005 A 
ENDBRANCH  21  28
ENDBRANCH   1  21
TORSDOF 5
