REMARK  Name = ZINC14468144
REMARK  9 active torsions:
REMARK  status: ('A' for Active; 'I' for Inactive)
REMARK    1  A    between atoms: C_1  and  C_2
REMARK    2  A    between atoms: C_2  and  O_4
REMARK    3  A    between atoms: O_4  and  C_5
REMARK    4  A    between atoms: C_8  and  C_13
REMARK    5  A    between atoms: C_10  and  O_11
REMARK    6  A    between atoms: O_11  and  C_12
REMARK    7  A    between atoms: C_24  and  S_29
REMARK    8  A    between atoms: S_29  and  N_32
REMARK    9  A    between atoms: N_32  and  C_33
REMARK                            x       y       z     vdW  Elec       q    Type
REMARK                         _______ _______ _______ _____ _____    ______ ____
ROOT
ATOM      1  C   UNL     1       3.698  -0.732  -0.043  0.00  0.00    +0.105 C 
ATOM      2  C   UNL     1       4.275  -0.810   1.359  0.00  0.00    +0.029 C 
ATOM      3  C   UNL     1       3.531  -1.688   2.374  0.00  0.00    +0.033 C 
ATOM      4  C   UNL     1       4.672  -2.130   3.293  0.00  0.00    -0.030 C 
ATOM      5  C   UNL     1       5.823  -2.104   2.632  0.00  0.00    -0.023 C 
ATOM      6  C   UNL     1       5.557  -1.686   1.232  0.00  0.00    +0.049 C 
ATOM      7  C   UNL     1       6.549  -0.924   0.442  0.00  0.00    -0.018 A 
ATOM      8  C   UNL     1       7.903  -0.993   0.690  0.00  0.00    +0.034 A 
ATOM      9  C   UNL     1       8.792  -0.272  -0.085  0.00  0.00    +0.106 A 
ATOM     10  C   UNL     1       8.323   0.523  -1.116  0.00  0.00    +0.030 A 
ATOM     11  C   UNL     1       6.969   0.603  -1.368  0.00  0.00    +0.025 A 
ATOM     12  C   UNL     1       6.066  -0.113  -0.591  0.00  0.00    +0.031 A 
ATOM     13  N   UNL     1       4.695   0.012  -0.843  0.00  0.00    -0.336 N 
ATOM     14  H   UNL     1       4.393   0.597  -1.555  0.00  0.00    +0.147 HD
ENDROOT
BRANCH   1  18
ATOM     15  C   UNL     1      -0.021   1.380   0.008  0.00  0.00    +0.173 A 
ATOM     16  C   UNL     1       1.176   2.078   0.027  0.00  0.00    +0.050 A 
ATOM     17  C   UNL     1       2.376   1.393   0.010  0.00  0.00    +0.009 A 
ATOM     18  C   UNL     1       2.386   0.011  -0.025  0.00  0.00    -0.023 A 
ATOM     19  C   UNL     1       1.196  -0.692  -0.044  0.00  0.00    +0.055 A 
ATOM     20  C   UNL     1      -0.011  -0.011  -0.028  0.00  0.00    +0.163 A 
BRANCH  20  21
ATOM     21  O   UNL     1      -1.183  -0.701  -0.045  0.00  0.00    -0.491 OA
ATOM     22  C   UNL     1      -1.096  -2.127  -0.082  0.00  0.00    +0.277 C 
ENDBRANCH  20  21
BRANCH  15  23
ATOM     23  O   UNL     1      -1.203   2.053   0.019  0.00  0.00    -0.422 OA
BRANCH  23  25
ATOM     24  C   UNL     1      -3.197   2.793   1.272  0.00  0.00    +0.136 C 
ATOM     25  C   UNL     1      -1.827   2.168   1.201  0.00  0.00    +0.309 C 
ATOM     26  O   UNL     1      -1.292   1.772   2.209  0.00  0.00    -0.251 OA
ENDBRANCH  23  25
ENDBRANCH  15  23
ENDBRANCH   1  18
BRANCH   9  27
ATOM     27  S   UNL     1      10.521  -0.364   0.239  0.00  0.00    +0.059 S 
ATOM     28  O   UNL     1      11.096   0.828  -0.278  0.00  0.00    -0.153 OA
ATOM     29  O   UNL     1      10.659  -0.748   1.601  0.00  0.00    -0.153 OA
BRANCH  27  30
ATOM     30  N   UNL     1      11.124  -1.612  -0.668  0.00  0.00    -0.187 NA
ATOM     31  H   UNL     1      11.491  -2.396  -0.231  0.00  0.00    +0.148 HD
BRANCH  30  32
ATOM     32  C   UNL     1      11.101  -1.532  -2.130  0.00  0.00    +0.077 C 
ATOM     33  C   UNL     1       9.850  -2.233  -2.661  0.00  0.00    +0.020 C 
ATOM     34  C   UNL     1       9.826  -2.150  -4.188  0.00  0.00    +0.002 C 
ATOM     35  C   UNL     1      11.073  -2.832  -4.755  0.00  0.00    +0.000 C 
ATOM     36  C   UNL     1      12.325  -2.130  -4.225  0.00  0.00    +0.002 C 
ATOM     37  C   UNL     1      12.348  -2.214  -2.697  0.00  0.00    +0.020 C 
ENDBRANCH  30  32
ENDBRANCH  27  30
ENDBRANCH   9  27
TORSDOF 7
