REMARK  Name = ZINC39686437
REMARK  8 active torsions:
REMARK  status: ('A' for Active; 'I' for Inactive)
REMARK    1  A    between atoms: C_1  and  C_2
REMARK    2  A    between atoms: C_2  and  C_4
REMARK    3  A    between atoms: C_2  and  N_13
REMARK    4  A    between atoms: C_4  and  C_5
REMARK    5  A    between atoms: C_10  and  O_11
REMARK    6  A    between atoms: O_11  and  C_12
REMARK    7  A    between atoms: C_14  and  C_16
REMARK    8  A    between atoms: C_27  and  C_29
REMARK                            x       y       z     vdW  Elec       q    Type
REMARK                         _______ _______ _______ _____ _____    ______ ____
ROOT
ATOM      1  C   UNL     1       2.660  -0.833   2.398  0.00  0.00    +0.100 C 
ATOM      2  C   UNL     1       2.419  -2.317   2.754  0.00  0.00    +0.121 C 
ATOM      3  N   UNL     1       3.675  -3.003   2.369  0.00  0.00    -0.296 N 
ATOM      4  C   UNL     1       4.747  -2.059   2.766  0.00  0.00    +0.115 C 
ATOM      5  C   UNL     1       4.189  -0.667   2.410  0.00  0.00    -0.004 C 
ATOM      6  C   UNL     1       4.685  -0.237   1.033  0.00  0.00    -0.010 C 
ATOM      7  C   UNL     1       6.200  -0.024   1.085  0.00  0.00    -0.082 C 
ATOM      8  N   UNL     1       6.517   1.004   2.084  0.00  0.00    +0.379 N 
ATOM      9  C   UNL     1       6.120   0.543   3.420  0.00  0.00    -0.082 C 
ATOM     10  C   UNL     1       4.602   0.353   3.467  0.00  0.00    -0.010 C 
ATOM     11  C   UNL     1       3.811  -4.212   1.790  0.00  0.00    +0.247 C 
ATOM     12  O   UNL     1       2.827  -4.827   1.428  0.00  0.00    -0.270 OA
ATOM     13  H   UNL     1       7.510   1.186   2.074  0.00  0.00    -0.086 HD
ATOM     14  H   UNL     1       6.020   1.853   1.861  0.00  0.00    -0.086 HD
ENDROOT
BRANCH  11  15
ATOM     15  C   UNL     1       5.157  -4.790   1.594  0.00  0.00    +0.037 A 
ATOM     16  C   UNL     1       6.256  -4.250   2.286  0.00  0.00    +0.013 A 
ATOM     17  C   UNL     1       7.502  -4.763   2.123  0.00  0.00    +0.009 A 
ATOM     18  C   UNL     1       7.707  -5.849   1.252  0.00  0.00    -0.018 A 
ATOM     19  C   UNL     1       8.988  -6.397   1.067  0.00  0.00    +0.008 A 
ATOM     20  C   UNL     1       9.156  -7.447   0.218  0.00  0.00    +0.001 A 
ATOM     21  C   UNL     1       8.075  -7.991  -0.474  0.00  0.00    +0.001 A 
ATOM     22  C   UNL     1       6.821  -7.487  -0.321  0.00  0.00    +0.008 A 
ATOM     23  C   UNL     1       6.608  -6.402   0.548  0.00  0.00    -0.017 A 
ATOM     24  C   UNL     1       5.326  -5.862   0.734  0.00  0.00    +0.021 A 
ENDBRANCH  11  15
BRANCH   1  26
ATOM     25  N   UNL     1       1.799   0.743   0.697  0.00  0.00    -0.312 N 
ATOM     26  C   UNL     1       2.110  -0.526   1.029  0.00  0.00    +0.218 C 
ATOM     27  O   UNL     1       1.946  -1.420   0.227  0.00  0.00    -0.275 OA
ATOM     28  H   UNL     1       1.998   1.468   1.310  0.00  0.00    +0.149 HD
BRANCH  25  30
ATOM     29  C   UNL     1       2.235   1.129  -1.679  0.00  0.00    +0.028 C 
ATOM     30  C   UNL     1       1.163   1.028  -0.592  0.00  0.00    +0.074 C 
BRANCH  30  31
ATOM     31  C   UNL     1       0.400   2.351  -0.502  0.00  0.00    +0.060 C 
BRANCH  31  32
ATOM     32  C   UNL     1      -0.746   2.205   0.465  0.00  0.00    -0.004 A 
ATOM     33  C   UNL     1      -1.999   1.848   0.004  0.00  0.00    +0.007 A 
ATOM     34  C   UNL     1      -3.051   1.715   0.890  0.00  0.00    +0.000 A 
ATOM     35  C   UNL     1      -2.853   1.939   2.240  0.00  0.00    +0.004 A 
ATOM     36  C   UNL     1      -1.603   2.296   2.706  0.00  0.00    +0.046 A 
ATOM     37  C   UNL     1      -0.544   2.425   1.819  0.00  0.00    +0.123 A 
BRANCH  37  38
ATOM     38  O   UNL     1       0.688   2.771   2.276  0.00  0.00    -0.495 OA
ATOM     39  C   UNL     1       0.797   3.104   3.662  0.00  0.00    +0.277 C 
ENDBRANCH  37  38
ENDBRANCH  31  32
ENDBRANCH  30  31
ENDBRANCH  25  30
ENDBRANCH   1  26
TORSDOF 6
