REMARK  Name = ZINC08854971
REMARK  7 active torsions:
REMARK  status: ('A' for Active; 'I' for Inactive)
REMARK    1  A    between atoms: C_5  and  C_7
REMARK    2  A    between atoms: C_7  and  O_8
REMARK    3  A    between atoms: O_8  and  C_9
REMARK    4  A    between atoms: C_12  and  C_15
REMARK    5  A    between atoms: C_18  and  C_29
REMARK    6  A    between atoms: C_24  and  N_28
REMARK    7  A    between atoms: C_25  and  C_26
REMARK                            x       y       z     vdW  Elec       q    Type
REMARK                         _______ _______ _______ _____ _____    ______ ____
ROOT
ATOM      1  C   UNL     1      -0.746  -8.364  -0.031  0.00  0.00    +0.102 C 
ATOM      2  C   UNL     1      -1.649  -8.715  -1.185  0.00  0.00    +0.054 A 
ATOM      3  C   UNL     1      -1.380  -8.693  -2.557  0.00  0.00    +0.102 A 
ATOM      4  N   UNL     1      -2.471  -9.079  -3.191  0.00  0.00    -0.171 NA
ATOM      5  N   UNL     1      -3.462  -9.357  -2.236  0.00  0.00    -0.246 N 
ATOM      6  H   UNL     1      -4.364  -9.660  -2.422  0.00  0.00    +0.192 HD
ATOM      7  C   UNL     1      -2.938  -9.128  -1.014  0.00  0.00    +0.223 A 
ATOM      8  O   UNL     1      -3.509  -9.259   0.210  0.00  0.00    -0.423 OA
ATOM      9  C   UNL     1      -2.695  -9.235   1.285  0.00  0.00    +0.200 C 
ATOM     10  C   UNL     1      -1.404  -8.834   1.243  0.00  0.00    +0.098 C 
ENDROOT
BRANCH   3  11
ATOM     11  C   UNL     1      -0.094  -8.304  -3.188  0.00  0.00    +0.021 A 
ATOM     12  C   UNL     1       1.105  -8.836  -2.719  0.00  0.00    +0.013 A 
ATOM     13  C   UNL     1       2.297  -8.471  -3.309  0.00  0.00    +0.021 A 
ATOM     14  C   UNL     1       2.304  -7.579  -4.368  0.00  0.00    +0.042 A 
ATOM     15  C   UNL     1       1.117  -7.047  -4.839  0.00  0.00    +0.040 A 
ATOM     16  C   UNL     1      -0.083  -7.410  -4.258  0.00  0.00    +0.052 A 
ATOM     17 CL   UNL     1      -1.573  -6.748  -4.854  0.00  0.00    -0.083 Cl
ATOM     18 CL   UNL     1       3.808  -7.125  -5.106  0.00  0.00    -0.083 Cl
ENDBRANCH   3  11
BRANCH   1  22
ATOM     19  C   UNL     1      -0.175  -4.132   0.118  0.00  0.00    +0.121 A 
ATOM     20  C   UNL     1       0.920  -4.978   0.021  0.00  0.00    +0.046 A 
ATOM     21  C   UNL     1       0.733  -6.345  -0.027  0.00  0.00    +0.008 A 
ATOM     22  C   UNL     1      -0.544  -6.872   0.022  0.00  0.00    -0.034 A 
ATOM     23  C   UNL     1      -1.638  -6.031   0.119  0.00  0.00    +0.008 A 
ATOM     24  C   UNL     1      -1.456  -4.662   0.173  0.00  0.00    +0.046 A 
BRANCH  19  25
ATOM     25  O   UNL     1       0.007  -2.786   0.166  0.00  0.00    -0.487 OA
BRANCH  25  26
ATOM     26  C   UNL     1       1.353  -2.310   0.105  0.00  0.00    +0.267 C 
BRANCH  26  31
ATOM     27  C   UNL     1       0.168   1.267   0.332  0.00  0.00    +0.001 A 
ATOM     28  C   UNL     1       1.364   1.959   0.290  0.00  0.00    +0.003 A 
ATOM     29  C   UNL     1       2.558   1.271   0.188  0.00  0.00    +0.039 A 
ATOM     30  C   UNL     1       2.555  -0.113   0.128  0.00  0.00    +0.130 A 
ATOM     31  C   UNL     1       1.357  -0.804   0.171  0.00  0.00    +0.025 A 
ATOM     32  C   UNL     1       0.164  -0.114   0.273  0.00  0.00    +0.010 A 
ATOM     33  F   UNL     1       3.722  -0.787   0.028  0.00  0.00    -0.205 F 
ENDBRANCH  26  31
ENDBRANCH  25  26
ENDBRANCH  19  25
ENDBRANCH   1  22
BRANCH   9  34
ATOM     34  N   UNL     1      -3.206  -9.641   2.492  0.00  0.00    -0.328 N 
ATOM     35  H   UNL     1      -4.128  -9.934   2.554  0.00  0.00    +0.145 HD
ATOM     36  H   UNL     1      -2.645  -9.635   3.283  0.00  0.00    +0.145 HD
ENDBRANCH   9  34
BRANCH  10  37
ATOM     37  C   UNL     1      -0.633  -8.857   2.450  0.00  0.00    +0.101 C 
ATOM     38  N   UNL     1      -0.022  -8.875   3.407  0.00  0.00    -0.191 NA
ENDBRANCH  10  37
TORSDOF 7
