REMARK  Name = ZINC39678206
REMARK  6 active torsions:
REMARK  status: ('A' for Active; 'I' for Inactive)
REMARK    1  A    between atoms: C_1  and  C_2
REMARK    2  A    between atoms: C_5  and  C_8
REMARK    3  A    between atoms: C_12  and  C_21
REMARK    4  A    between atoms: N_23  and  C_24
REMARK    5  A    between atoms: C_24  and  C_25
REMARK    6  A    between atoms: C_30  and  N_31
REMARK                            x       y       z     vdW  Elec       q    Type
REMARK                         _______ _______ _______ _____ _____    ______ ____
ROOT
ATOM      1  C   UNL     1       0.166  -4.726  -0.124  0.00  0.00    +0.247 C 
ATOM      2  O   UNL     1      -0.101  -5.384  -1.110  0.00  0.00    -0.270 OA
ATOM      3  N   UNL     1       0.179  -5.308   1.091  0.00  0.00    -0.296 N 
ATOM      4  C   UNL     1       0.350  -4.654   2.410  0.00  0.00    +0.121 C 
ATOM      5  C   UNL     1      -0.633  -5.396   3.344  0.00  0.00    +0.100 C 
ATOM      6  C   UNL     1      -0.842  -6.769   2.684  0.00  0.00    -0.004 C 
ATOM      7  C   UNL     1       0.017  -6.747   1.411  0.00  0.00    +0.115 C 
ATOM      8  C   UNL     1      -2.310  -6.962   2.318  0.00  0.00    -0.010 C 
ATOM      9  C   UNL     1      -2.502  -8.356   1.716  0.00  0.00    -0.082 C 
ATOM     10  N   UNL     1      -2.081  -9.373   2.687  0.00  0.00    +0.379 N 
ATOM     11  C   UNL     1      -0.646  -9.238   2.963  0.00  0.00    -0.082 C 
ATOM     12  C   UNL     1      -0.375  -7.881   3.618  0.00  0.00    -0.010 C 
ATOM     13  H   UNL     1      -2.600  -9.253   3.545  0.00  0.00    -0.086 HD
ATOM     14  H   UNL     1      -2.266 -10.291   2.312  0.00  0.00    -0.086 HD
ENDROOT
BRANCH   1  19
ATOM     15  C   UNL     1       1.378   0.876  -0.642  0.00  0.00    +0.044 C 
ATOM     16  C   UNL     1       1.061  -0.591  -0.506  0.00  0.00    -0.050 A 
ATOM     17  C   UNL     1       0.343  -1.235  -1.498  0.00  0.00    +0.004 A 
ATOM     18  C   UNL     1       0.050  -2.578  -1.381  0.00  0.00    +0.013 A 
ATOM     19  C   UNL     1       0.478  -3.287  -0.257  0.00  0.00    +0.037 A 
ATOM     20  C   UNL     1       1.202  -2.631   0.740  0.00  0.00    +0.013 A 
ATOM     21  C   UNL     1       1.494  -1.289   0.607  0.00  0.00    +0.004 A 
ENDBRANCH   1  19
BRANCH   5  22
ATOM     22  C   UNL     1      -0.032  -5.556   4.717  0.00  0.00    +0.218 C 
ATOM     23  O   UNL     1       1.135  -5.863   4.836  0.00  0.00    -0.275 OA
ATOM     24  N   UNL     1      -0.792  -5.359   5.812  0.00  0.00    -0.311 N 
ATOM     25  H   UNL     1      -1.726  -5.114   5.717  0.00  0.00    +0.149 HD
BRANCH  24  26
ATOM     26  C   UNL     1      -0.209  -5.516   7.147  0.00  0.00    +0.141 C 
BRANCH  26  27
ATOM     27  C   UNL     1      -1.260  -5.242   8.191  0.00  0.00    -0.009 A 
ATOM     28  C   UNL     1      -1.309  -4.013   8.818  0.00  0.00    +0.007 A 
ATOM     29  C   UNL     1      -2.273  -3.761   9.776  0.00  0.00    +0.000 A 
ATOM     30  C   UNL     1      -3.193  -4.738  10.109  0.00  0.00    +0.002 A 
ATOM     31  C   UNL     1      -3.151  -5.969   9.486  0.00  0.00    +0.023 A 
ATOM     32  C   UNL     1      -2.186  -6.224   8.519  0.00  0.00    +0.034 A 
BRANCH  32  33
ATOM     33  N   UNL     1      -2.144  -7.467   7.882  0.00  0.00    -0.330 N 
ATOM     34  C   UNL     1      -1.349  -8.568   8.442  0.00  0.00    +0.105 C 
ATOM     35  C   UNL     1      -2.251  -9.796   8.603  0.00  0.00    +0.019 C 
ATOM     36  C   UNL     1      -2.912 -10.117   7.261  0.00  0.00    +0.003 C 
ATOM     37  C   UNL     1      -3.779  -8.935   6.821  0.00  0.00    +0.019 C 
ATOM     38  C   UNL     1      -2.899  -7.699   6.644  0.00  0.00    +0.105 C 
ENDBRANCH  32  33
ENDBRANCH  26  27
ENDBRANCH  24  26
ENDBRANCH   5  22
TORSDOF 5
