REMARK  Name = ZINC13364638
REMARK  9 active torsions:
REMARK  status: ('A' for Active; 'I' for Inactive)
REMARK    1  A    between atoms: C_1  and  C_2
REMARK    2  A    between atoms: C_2  and  C_3
REMARK    3  A    between atoms: C_10  and  C_12
REMARK    4  A    between atoms: C_15  and  S_18
REMARK    5  A    between atoms: N_16  and  C_17
REMARK    6  A    between atoms: S_18  and  C_19
REMARK    7  A    between atoms: C_19  and  C_20
REMARK    8  A    between atoms: N_22  and  C_23
REMARK    9  A    between atoms: C_26  and  C_29
REMARK                            x       y       z     vdW  Elec       q    Type
REMARK                         _______ _______ _______ _____ _____    ______ ____
ROOT
ATOM      1  C   UNL     1       7.245   0.625   0.351  0.00  0.00    +0.171 A 
ATOM      2  N   UNL     1       6.417  -0.396   0.376  0.00  0.00    -0.128 NA
ATOM      3  N   UNL     1       5.204   0.021   0.303  0.00  0.00    -0.122 NA
ATOM      4  C   UNL     1       5.180   1.331   0.216  0.00  0.00    +0.192 A 
ATOM      5  N   UNL     1       6.477   1.763   0.247  0.00  0.00    -0.305 N 
ATOM      6  C   UNL     1       6.951   3.148   0.183  0.00  0.00    +0.153 C 
ENDROOT
BRANCH   1  13
ATOM      7  C   UNL     1      13.249  -1.110   0.637  0.00  0.00    -0.007 C 
ATOM      8  C   UNL     1      13.665   0.301   1.063  0.00  0.00    +0.009 C 
ATOM      9  C   UNL     1      12.803   1.320   0.302  0.00  0.00    +0.043 C 
ATOM     10  C   UNL     1      11.375   0.891   0.398  0.00  0.00    -0.006 A 
ATOM     11  C   UNL     1      10.897  -0.325   0.789  0.00  0.00    -0.036 A 
ATOM     12  C   UNL     1       9.517  -0.481   0.796  0.00  0.00    +0.023 A 
ATOM     13  C   UNL     1       8.714   0.562   0.420  0.00  0.00    +0.057 A 
ATOM     14  S   UNL     1       9.914   1.826   0.029  0.00  0.00    -0.090 S 
ATOM     15  C   UNL     1      11.862  -1.437   1.191  0.00  0.00    +0.039 C 
BRANCH   7  17
ATOM     16  C   UNL     1      13.919  -3.517   0.650  0.00  0.00    +0.004 C 
ATOM     17  C   UNL     1      14.261  -2.123   1.178  0.00  0.00    +0.000 C 
ENDBRANCH   7  17
ENDBRANCH   1  13
BRANCH   4  18
ATOM     18  S   UNL     1       3.744   2.345   0.090  0.00  0.00    -0.077 S 
BRANCH  18  19
ATOM     19  C   UNL     1       2.458   1.071   0.111  0.00  0.00    +0.173 C 
BRANCH  19  20
ATOM     20  C   UNL     1       1.103   1.724   0.010  0.00  0.00    +0.227 C 
ATOM     21  O   UNL     1       1.016   2.931  -0.068  0.00  0.00    -0.275 OA
ATOM     22  N   UNL     1      -0.011   0.966   0.007  0.00  0.00    -0.285 N 
ATOM     23  H   UNL     1       0.060  -0.002   0.003  0.00  0.00    +0.155 HD
BRANCH  22  24
ATOM     24  C   UNL     1      -1.266   1.572   0.005  0.00  0.00    +0.033 A 
ATOM     25  C   UNL     1      -1.460   2.765  -0.684  0.00  0.00    +0.024 A 
ATOM     26  C   UNL     1      -2.699   3.364  -0.693  0.00  0.00    +0.017 A 
ATOM     27  C   UNL     1      -3.762   2.778   0.001  0.00  0.00    +0.063 A 
ATOM     28  C   UNL     1      -3.562   1.582   0.697  0.00  0.00    +0.017 A 
ATOM     29  C   UNL     1      -2.322   0.986   0.697  0.00  0.00    +0.024 A 
BRANCH  27  30
ATOM     30  C   UNL     1      -5.090   3.419  -0.002  0.00  0.00    +0.387 C 
ATOM     31  O   UNL     1      -6.012   2.908   0.601  0.00  0.00    -0.241 OA
ATOM     32  O   UNL     1      -5.280   4.572  -0.674  0.00  0.00    -0.241 OA
ENDBRANCH  27  30
ENDBRANCH  22  24
ENDBRANCH  19  20
ENDBRANCH  18  19
ENDBRANCH   4  18
TORSDOF 7
