REMARK  Name = ZINC13131792
REMARK  6 active torsions:
REMARK  status: ('A' for Active; 'I' for Inactive)
REMARK    1  A    between atoms: C_1  and  C_2
REMARK    2  A    between atoms: C_7  and  N_11
REMARK    3  A    between atoms: C_12  and  C_14
REMARK    4  A    between atoms: C_18  and  S_20
REMARK    5  A    between atoms: S_20  and  N_23
REMARK    6  A    between atoms: N_26  and  C_29
REMARK                            x       y       z     vdW  Elec       q    Type
REMARK                         _______ _______ _______ _____ _____    ______ ____
ROOT
ATOM      1  C   UNL     1       6.316   5.864  -0.243  0.00  0.00    +0.039 A 
ATOM      2  C   UNL     1       7.476   5.088  -0.258  0.00  0.00    +0.013 A 
ATOM      3  C   UNL     1       8.708   5.698  -0.372  0.00  0.00    +0.003 A 
ATOM      4  C   UNL     1       8.795   7.075  -0.471  0.00  0.00    +0.028 A 
ATOM      5  C   UNL     1       7.649   7.850  -0.457  0.00  0.00    +0.106 A 
ATOM      6  C   UNL     1       6.410   7.252  -0.349  0.00  0.00    +0.041 A 
ENDROOT
BRANCH   1   8
ATOM      7  N   UNL     1       4.904   3.876  -0.026  0.00  0.00    -0.281 N 
ATOM      8  C   UNL     1       4.992   5.217  -0.122  0.00  0.00    +0.248 C 
ATOM      9  O   UNL     1       3.983   5.895  -0.110  0.00  0.00    -0.270 OA
ATOM     10  H   UNL     1       5.710   3.339   0.033  0.00  0.00    +0.155 HD
BRANCH   7  17
ATOM     11  C   UNL     1      -2.510   1.788   0.902  0.00  0.00    +0.073 C 
ATOM     12  C   UNL     1      -1.068   2.181   0.714  0.00  0.00    +0.076 A 
ATOM     13  N   UNL     1      -0.123   1.519   0.107  0.00  0.00    -0.244 NA
ATOM     14  C   UNL     1       1.139   1.986   0.007  0.00  0.00    +0.079 A 
ATOM     15  C   UNL     1       2.261   1.390  -0.613  0.00  0.00    +0.031 A 
ATOM     16  C   UNL     1       3.469   2.013  -0.615  0.00  0.00    +0.025 A 
ATOM     17  C   UNL     1       3.649   3.256  -0.009  0.00  0.00    +0.035 A 
ATOM     18  C   UNL     1       2.570   3.873   0.610  0.00  0.00    +0.040 A 
ATOM     19  C   UNL     1       1.348   3.245   0.613  0.00  0.00    +0.041 A 
ATOM     20  S   UNL     1      -0.264   3.622   1.253  0.00  0.00    -0.072 S 
ENDBRANCH   7  17
ENDBRANCH   1   8
BRANCH   5  21
ATOM     21  S   UNL     1       7.771   9.603  -0.583  0.00  0.00    +0.061 S 
ATOM     22  O   UNL     1       6.591  10.136   0.003  0.00  0.00    -0.153 OA
ATOM     23  O   UNL     1       9.072   9.954  -0.130  0.00  0.00    -0.153 OA
BRANCH  21  24
ATOM     24  N   UNL     1       7.713   9.983  -2.194  0.00  0.00    -0.174 NA
ATOM     25  C   UNL     1       8.944  10.070  -2.994  0.00  0.00    +0.128 C 
ATOM     26  C   UNL     1       8.764   9.205  -4.252  0.00  0.00    +0.122 C 
ATOM     27  N   UNL     1       7.539   9.617  -4.951  0.00  0.00    -0.327 N 
ATOM     28  C   UNL     1       6.349   9.383  -4.123  0.00  0.00    +0.122 C 
ATOM     29  C   UNL     1       6.430  10.249  -2.861  0.00  0.00    +0.128 C 
BRANCH  27  30
ATOM     30  C   UNL     1       7.426   8.970  -6.186  0.00  0.00    +0.030 A 
ATOM     31  C   UNL     1       6.291   8.226  -6.479  0.00  0.00    +0.026 A 
ATOM     32  C   UNL     1       6.179   7.592  -7.701  0.00  0.00    +0.040 A 
ATOM     33  C   UNL     1       7.202   7.690  -8.629  0.00  0.00    +0.124 A 
ATOM     34  C   UNL     1       8.337   8.428  -8.337  0.00  0.00    +0.040 A 
ATOM     35  C   UNL     1       8.450   9.068  -7.118  0.00  0.00    +0.026 A 
ATOM     36  F   UNL     1       7.092   7.066  -9.822  0.00  0.00    -0.205 F 
ENDBRANCH  27  30
ENDBRANCH  21  24
ENDBRANCH   5  21
TORSDOF 5
