REMARK  Name = ZINC20800105
REMARK  8 active torsions:
REMARK  status: ('A' for Active; 'I' for Inactive)
REMARK    1  A    between atoms: C_1  and  C_2
REMARK    2  A    between atoms: C_5  and  N_23
REMARK    3  A    between atoms: C_7  and  N_8
REMARK    4  A    between atoms: C_9  and  C_11
REMARK    5  A    between atoms: N_13  and  C_14
REMARK    6  A    between atoms: C_17  and  N_20
REMARK    7  A    between atoms: N_20  and  C_21
REMARK    8  A    between atoms: N_20  and  C_22
REMARK                            x       y       z     vdW  Elec       q    Type
REMARK                         _______ _______ _______ _____ _____    ______ ____
ROOT
ATOM      1  N   UNL     1       2.357   3.891   0.011  0.00  0.00    -0.277 N 
ATOM      2  C   UNL     1       2.342   5.234  -0.106  0.00  0.00    +0.303 C 
ATOM      3  O   UNL     1       1.284   5.829  -0.129  0.00  0.00    -0.265 OA
ATOM      4  H   UNL     1       3.314   3.360   0.126  0.00  0.00    +0.155 HD
ENDROOT
BRANCH   1  11
ATOM      5  C   UNL     1       2.289   1.349   1.283  0.00  0.00    +0.045 C 
ATOM      6  C   UNL     1       1.080   1.928   0.595  0.00  0.00    -0.029 A 
ATOM      7  C   UNL     1      -0.105   1.218   0.570  0.00  0.00    +0.007 A 
ATOM      8  C   UNL     1      -1.214   1.742  -0.065  0.00  0.00    +0.025 A 
ATOM      9  C   UNL     1      -1.145   2.990  -0.672  0.00  0.00    +0.053 A 
ATOM     10  C   UNL     1       0.044   3.706  -0.649  0.00  0.00    +0.048 A 
ATOM     11  C   UNL     1       1.158   3.174  -0.015  0.00  0.00    +0.039 A 
BRANCH   9  12
ATOM     12  N   UNL     1      -2.268   3.522  -1.309  0.00  0.00    -0.207 N 
ATOM     13  C   UNL     1      -2.566   4.947  -1.544  0.00  0.00    +0.133 C 
ATOM     14  C   UNL     1      -3.417   5.123  -2.819  0.00  0.00    +0.045 C 
ATOM     15  C   UNL     1      -4.531   4.039  -2.710  0.00  0.00    +0.190 C 
ATOM     16  S   UNL     1      -3.559   2.671  -1.957  0.00  0.00    +0.046 S 
ATOM     17  O   UNL     1      -2.998   1.839  -2.963  0.00  0.00    -0.155 OA
ATOM     18  O   UNL     1      -4.247   2.119  -0.843  0.00  0.00    -0.155 OA
ENDBRANCH   9  12
ENDBRANCH   1  11
BRANCH   2  19
ATOM     19  C   UNL     1       3.625   5.989  -0.206  0.00  0.00    +0.303 C 
ATOM     20  O   UNL     1       4.683   5.393  -0.184  0.00  0.00    -0.265 OA
ATOM     21  N   UNL     1       3.610   7.331  -0.323  0.00  0.00    -0.278 N 
ATOM     22  H   UNL     1       2.659   7.879  -0.249  0.00  0.00    +0.155 HD
BRANCH  21  23
ATOM     23  C   UNL     1       4.804   8.029  -0.537  0.00  0.00    +0.034 A 
ATOM     24  C   UNL     1       4.913   9.356  -0.142  0.00  0.00    +0.025 A 
ATOM     25  C   UNL     1       6.093  10.042  -0.348  0.00  0.00    +0.025 A 
ATOM     26  C   UNL     1       7.167   9.409  -0.961  0.00  0.00    +0.029 A 
ATOM     27  C   UNL     1       7.056   8.083  -1.361  0.00  0.00    +0.025 A 
ATOM     28  C   UNL     1       5.878   7.395  -1.150  0.00  0.00    +0.025 A 
BRANCH  26  29
ATOM     29  N   UNL     1       8.360  10.106  -1.175  0.00  0.00    -0.336 N 
ATOM     30  C   UNL     1       9.453   9.476  -1.921  0.00  0.00    +0.129 C 
ATOM     31  C   UNL     1       8.518  11.465  -0.653  0.00  0.00    +0.129 C 
ENDBRANCH  26  29
ENDBRANCH  21  23
ENDBRANCH   2  19
TORSDOF 5
