REMARK  Name = ZINC29770030
REMARK  7 active torsions:
REMARK  status: ('A' for Active; 'I' for Inactive)
REMARK    1  A    between atoms: C_1  and  C_2
REMARK    2  A    between atoms: C_3  and  C_14
REMARK    3  A    between atoms: C_7  and  O_12
REMARK    4  A    between atoms: O_12  and  C_13
REMARK    5  A    between atoms: C_19  and  C_22
REMARK    6  A    between atoms: C_25  and  N_28
REMARK    7  A    between atoms: C_29  and  C_31
REMARK                            x       y       z     vdW  Elec       q    Type
REMARK                         _______ _______ _______ _____ _____    ______ ____
ROOT
ATOM      1  C   UNL     1       2.214  -4.097  -0.596  0.00  0.00    +0.251 C 
ATOM      2  O   UNL     1       1.114  -4.614  -0.614  0.00  0.00    -0.270 OA
ATOM      3  N   UNL     1       2.338  -2.770  -0.800  0.00  0.00    -0.261 N 
ATOM      4  C   UNL     1       1.210  -1.995  -1.033  0.00  0.00    +0.165 A 
ATOM      5  N   UNL     1       1.120  -0.698  -1.258  0.00  0.00    -0.225 NA
ATOM      6  C   UNL     1      -0.053  -0.114  -1.457  0.00  0.00    +0.080 A 
ATOM      7  C   UNL     1      -1.191  -0.871  -1.439  0.00  0.00    +0.076 A 
ATOM      8  S   UNL     1      -0.506  -2.490  -1.112  0.00  0.00    -0.060 S 
ATOM      9  H   UNL     1       3.333  -2.302  -0.784  0.00  0.00    +0.157 HD
ENDROOT
BRANCH   1  12
ATOM     10  C   UNL     1       1.906  -6.879   0.112  0.00  0.00    +0.066 C 
ATOM     11  C   UNL     1       3.283  -6.278  -0.003  0.00  0.00    +0.051 A 
ATOM     12  C   UNL     1       3.414  -4.921  -0.349  0.00  0.00    +0.059 A 
ATOM     13  C   UNL     1       4.683  -4.364  -0.461  0.00  0.00    +0.025 A 
ATOM     14  C   UNL     1       5.791  -5.192  -0.211  0.00  0.00    +0.005 A 
ATOM     15  C   UNL     1       7.103  -4.697  -0.300  0.00  0.00    +0.055 A 
ATOM     16  C   UNL     1       8.156  -5.531  -0.054  0.00  0.00    +0.121 A 
ATOM     17  C   UNL     1       7.942  -6.870   0.285  0.00  0.00    +0.048 A 
ATOM     18  C   UNL     1       6.684  -7.378   0.378  0.00  0.00    +0.032 A 
ATOM     19  C   UNL     1       5.574  -6.550   0.133  0.00  0.00    +0.072 A 
ATOM     20  N   UNL     1       4.329  -7.031   0.221  0.00  0.00    -0.251 NA
BRANCH  16  21
ATOM     21  O   UNL     1       9.425  -5.053  -0.139  0.00  0.00    -0.495 OA
ATOM     22  C   UNL     1      10.485  -5.974   0.129  0.00  0.00    +0.277 C 
ENDBRANCH  16  21
ENDBRANCH   1  12
BRANCH   6  23
ATOM     23  C   UNL     1      -0.130   1.347  -1.702  0.00  0.00    +0.001 A 
ATOM     24  C   UNL     1      -1.365   1.954  -1.922  0.00  0.00    +0.012 A 
ATOM     25  C   UNL     1      -1.435   3.313  -2.145  0.00  0.00    +0.024 A 
ATOM     26  C   UNL     1      -0.273   4.076  -2.161  0.00  0.00    +0.033 A 
ATOM     27  C   UNL     1       0.960   3.472  -1.947  0.00  0.00    +0.024 A 
ATOM     28  C   UNL     1       1.034   2.114  -1.719  0.00  0.00    +0.012 A 
BRANCH  26  29
ATOM     29  N   UNL     1      -0.345   5.454  -2.393  0.00  0.00    -0.286 N 
ATOM     30  C   UNL     1       0.626   6.071  -3.094  0.00  0.00    +0.214 C 
ATOM     31  O   UNL     1       1.604   5.449  -3.453  0.00  0.00    -0.276 OA
ATOM     32  C   UNL     1       0.498   7.534  -3.432  0.00  0.00    +0.109 C 
ATOM     33  H   UNL     1      -1.196   6.033  -2.004  0.00  0.00    +0.155 HD
ENDBRANCH  26  29
ENDBRANCH   6  23
TORSDOF 4
