REMARK  Name = ZINC12858068
REMARK  8 active torsions:
REMARK  status: ('A' for Active; 'I' for Inactive)
REMARK    1  A    between atoms: C_1  and  C_2
REMARK    2  A    between atoms: C_2  and  C_3
REMARK    3  A    between atoms: C_9  and  C_29
REMARK    4  A    between atoms: C_11  and  N_28
REMARK    5  A    between atoms: C_12  and  C_16
REMARK    6  A    between atoms: N_18  and  C_19
REMARK    7  A    between atoms: C_22  and  C_25
REMARK    8  A    between atoms: C_25  and  C_27
REMARK                            x       y       z     vdW  Elec       q    Type
REMARK                         _______ _______ _______ _____ _____    ______ ____
ROOT
ATOM      1  C   UNL     1       9.041  -0.757  -1.895  0.00  0.00    -0.007 C 
ATOM      2  C   UNL     1       8.488  -2.037  -2.533  0.00  0.00    +0.010 C 
ATOM      3  C   UNL     1       7.275  -2.493  -1.725  0.00  0.00    +0.056 C 
ATOM      4  C   UNL     1       6.301  -1.357  -1.545  0.00  0.00    +0.046 A 
ATOM      5  C   UNL     1       6.660  -0.035  -1.731  0.00  0.00    -0.013 A 
ATOM      6  C   UNL     1       5.728   0.967  -1.536  0.00  0.00    +0.071 A 
ATOM      7  C   UNL     1       4.410   0.631  -1.152  0.00  0.00    +0.041 A 
ATOM      8  C   UNL     1       3.280   1.512  -0.896  0.00  0.00    +0.054 A 
ATOM      9  C   UNL     1       2.079   0.946  -0.531  0.00  0.00    +0.097 A 
ATOM     10  S   UNL     1       2.435  -0.800  -0.512  0.00  0.00    -0.062 S 
ATOM     11  C   UNL     1       4.143  -0.748  -0.992  0.00  0.00    +0.112 A 
ATOM     12  N   UNL     1       5.062  -1.664  -1.186  0.00  0.00    -0.244 NA
ATOM     13  C   UNL     1       8.049   0.375  -2.148  0.00  0.00    +0.041 C 
ENDROOT
BRANCH   9  14
ATOM     14  C   UNL     1       0.855   1.596  -0.235  0.00  0.00    +0.257 C 
ATOM     15  O   UNL     1       0.782   2.810  -0.290  0.00  0.00    -0.269 OA
ATOM     16  N   UNL     1      -0.228   0.871   0.107  0.00  0.00    -0.281 N 
ATOM     17  H   UNL     1      -0.205  -0.097   0.038  0.00  0.00    +0.155 HD
BRANCH  16  18
ATOM     18  C   UNL     1      -1.380   1.510   0.556  0.00  0.00    +0.034 A 
ATOM     19  C   UNL     1      -2.146   0.932   1.565  0.00  0.00    +0.024 A 
ATOM     20  C   UNL     1      -3.275   1.558   2.012  0.00  0.00    +0.013 A 
ATOM     21  C   UNL     1      -3.667   2.778   1.446  0.00  0.00    +0.017 A 
ATOM     22  C   UNL     1      -2.896   3.353   0.427  0.00  0.00    +0.013 A 
ATOM     23  C   UNL     1      -1.766   2.722  -0.010  0.00  0.00    +0.024 A 
BRANCH  21  24
ATOM     24  C   UNL     1      -4.882   3.453   1.920  0.00  0.00    +0.160 C 
ATOM     25  O   UNL     1      -5.219   4.509   1.429  0.00  0.00    -0.292 OA
ATOM     26  C   UNL     1      -5.709   2.833   3.016  0.00  0.00    +0.091 C 
ENDBRANCH  21  24
ENDBRANCH  16  18
ENDBRANCH   9  14
BRANCH   6  27
ATOM     27  C   UNL     1       6.115   2.410  -1.734  0.00  0.00    +0.418 C 
ATOM     28  F   UNL     1       6.395   2.993  -0.494  0.00  0.00    -0.166 F 
ATOM     29  F   UNL     1       7.251   2.481  -2.549  0.00  0.00    -0.166 F 
ATOM     30  F   UNL     1       5.060   3.097  -2.345  0.00  0.00    -0.166 F 
ENDBRANCH   6  27
BRANCH   8  31
ATOM     31  N   UNL     1       3.411   2.889  -1.017  0.00  0.00    -0.356 N 
ATOM     32  H   UNL     1       2.691   3.412  -1.403  0.00  0.00    +0.142 HD
ATOM     33  H   UNL     1       4.222   3.328  -0.716  0.00  0.00    +0.142 HD
ENDBRANCH   8  31
BRANCH   1  35
ATOM     34  C   UNL     1      11.416  -1.487  -2.163  0.00  0.00    +0.004 C 
ATOM     35  C   UNL     1      10.391  -0.409  -2.525  0.00  0.00    +0.000 C 
ENDBRANCH   1  35
TORSDOF 6
