REMARK  Name = ZINC62562133
REMARK  5 active torsions:
REMARK  status: ('A' for Active; 'I' for Inactive)
REMARK    1  A    between atoms: C_1  and  C_2
REMARK    2  A    between atoms: C_2  and  C_3
REMARK    3  A    between atoms: C_2  and  C_4
REMARK    4  A    between atoms: C_6  and  N_23
REMARK    5  A    between atoms: C_11  and  C_16
REMARK                            x       y       z     vdW  Elec       q    Type
REMARK                         _______ _______ _______ _____ _____    ______ ____
ROOT
ATOM      1  C   UNL     1      -1.412  -0.526   0.013  0.00  0.00    +0.000 A 
ATOM      2  C   UNL     1      -2.260  -0.204   1.057  0.00  0.00    +0.030 A 
ATOM      3  C   UNL     1      -3.563  -0.682   1.070  0.00  0.00    +0.027 A 
ATOM      4  C   UNL     1      -4.020  -1.485   0.032  0.00  0.00    +0.049 A 
ATOM      5  C   UNL     1      -3.171  -1.807  -1.012  0.00  0.00    +0.078 A 
ATOM      6  C   UNL     1      -1.863  -1.321  -1.025  0.00  0.00    +0.147 A 
ATOM      7  O   UNL     1      -1.040  -1.644  -2.060  0.00  0.00    -0.473 OA
ATOM      8  C   UNL     1      -1.233  -2.928  -2.658  0.00  0.00    +0.289 C 
ATOM      9  C   UNL     1      -2.702  -3.156  -2.905  0.00  0.00    +0.263 C 
ATOM     10  O   UNL     1      -3.063  -3.832  -3.846  0.00  0.00    -0.271 OA
ATOM     11  N   UNL     1      -3.611  -2.616  -2.070  0.00  0.00    -0.279 N 
ATOM     12  H   UNL     1      -4.559  -2.775  -2.205  0.00  0.00    +0.155 HD
ENDROOT
BRANCH   8  13
ATOM     13  C   UNL     1      -0.708  -3.996  -1.733  0.00  0.00    +0.002 A 
ATOM     14  C   UNL     1      -0.922  -3.896  -0.371  0.00  0.00    +0.010 A 
ATOM     15  C   UNL     1      -0.442  -4.874   0.479  0.00  0.00    +0.039 A 
ATOM     16  C   UNL     1       0.253  -5.956  -0.035  0.00  0.00    +0.123 A 
ATOM     17  C   UNL     1       0.466  -6.056  -1.400  0.00  0.00    +0.039 A 
ATOM     18  C   UNL     1      -0.020  -5.079  -2.248  0.00  0.00    +0.010 A 
ATOM     19  F   UNL     1       0.723  -6.914   0.794  0.00  0.00    -0.205 F 
ENDBRANCH   8  13
BRANCH   1  21
ATOM     20  C   UNL     1      -0.019   1.526   0.010  0.00  0.00    +0.012 C 
ATOM     21  C   UNL     1       0.002  -0.004   0.002  0.00  0.00    +0.017 C 
ATOM     22  C   UNL     1       0.742  -0.511   1.242  0.00  0.00    +0.012 C 
ENDBRANCH   1  21
BRANCH   3  23
ATOM     23  N   UNL     1      -4.418  -0.354   2.128  0.00  0.00    -0.358 N 
ATOM     24  H   UNL     1      -4.099   0.206   2.853  0.00  0.00    +0.142 HD
ATOM     25  H   UNL     1      -5.329  -0.688   2.137  0.00  0.00    +0.142 HD
ENDBRANCH   3  23
TORSDOF 3
