REMARK  Name = ZINC17094003
REMARK  6 active torsions:
REMARK  status: ('A' for Active; 'I' for Inactive)
REMARK    1  A    between atoms: C_1  and  C_2
REMARK    2  A    between atoms: C_6  and  N_8
REMARK    3  A    between atoms: C_9  and  C_11
REMARK    4  A    between atoms: C_15  and  N_16
REMARK    5  A    between atoms: C_17  and  C_19
REMARK    6  A    between atoms: C_25  and  C_27
REMARK                            x       y       z     vdW  Elec       q    Type
REMARK                         _______ _______ _______ _____ _____    ______ ____
ROOT
ATOM      1  C   UNL     1      -1.255   7.362  -0.162  0.00  0.00    +0.069 A 
ATOM      2  C   UNL     1      -1.306   8.205   1.032  0.00  0.00    -0.023 A 
ATOM      3  C   UNL     1      -1.311   9.530   0.795  0.00  0.00    -0.004 A 
ATOM      4  S   UNL     1      -1.253   9.673  -0.974  0.00  0.00    -0.077 S 
ATOM      5  C   UNL     1      -1.215   7.994  -1.393  0.00  0.00    +0.084 A 
ATOM      6  C   UNL     1      -1.360  10.330   2.069  0.00  0.00    +0.043 C 
ATOM      7  C   UNL     1      -0.952   9.330   3.173  0.00  0.00    +0.010 C 
ATOM      8  C   UNL     1      -1.361   7.983   2.544  0.00  0.00    +0.037 C 
ENDROOT
BRANCH   1  10
ATOM      9  N   UNL     1      -0.069   5.241   0.029  0.00  0.00    -0.281 N 
ATOM     10  C   UNL     1      -1.242   5.899  -0.058  0.00  0.00    +0.251 C 
ATOM     11  O   UNL     1      -2.289   5.280  -0.051  0.00  0.00    -0.270 OA
ATOM     12  H   UNL     1       0.761   5.737   0.101  0.00  0.00    +0.155 HD
BRANCH   9  18
ATOM     13  C   UNL     1       1.964   1.024   1.529  0.00  0.00    +0.044 C 
ATOM     14  C   UNL     1       0.925   1.772   0.734  0.00  0.00    -0.049 A 
ATOM     15  C   UNL     1      -0.011   1.076  -0.009  0.00  0.00    +0.003 A 
ATOM     16  C   UNL     1      -0.962   1.759  -0.744  0.00  0.00    +0.002 A 
ATOM     17  C   UNL     1      -0.988   3.140  -0.729  0.00  0.00    +0.023 A 
ATOM     18  C   UNL     1      -0.050   3.842   0.017  0.00  0.00    +0.034 A 
ATOM     19  C   UNL     1       0.908   3.153   0.749  0.00  0.00    +0.026 A 
ENDBRANCH   9  18
ENDBRANCH   1  10
BRANCH   5  20
ATOM     20  N   UNL     1      -1.160   7.422  -2.654  0.00  0.00    -0.279 N 
ATOM     21  C   UNL     1      -1.126   8.206  -3.750  0.00  0.00    +0.222 C 
ATOM     22  O   UNL     1      -1.144   9.413  -3.632  0.00  0.00    -0.275 OA
ATOM     23  H   UNL     1      -1.145   6.456  -2.749  0.00  0.00    +0.155 HD
BRANCH  21  24
ATOM     24  C   UNL     1      -1.066   7.584  -5.121  0.00  0.00    +0.093 C 
ATOM     25  C   UNL     1      -2.297   6.701  -5.340  0.00  0.00    +0.040 C 
ATOM     26  C   UNL     1      -2.388   6.290  -6.780  0.00  0.00    -0.030 C 
ATOM     27  C   UNL     1      -1.750   6.874  -7.743  0.00  0.00    -0.030 C 
ATOM     28  C   UNL     1      -0.823   8.038  -7.553  0.00  0.00    +0.042 C 
ATOM     29  C   UNL     1      -1.064   8.686  -6.188  0.00  0.00    +0.118 C 
BRANCH  29  30
ATOM     30  C   UNL     1       0.037   9.673  -5.894  0.00  0.00    +0.360 C 
ATOM     31  O   UNL     1       0.749   9.515  -4.931  0.00  0.00    -0.246 OA
ATOM     32  O   UNL     1       0.226  10.728  -6.703  0.00  0.00    -0.246 OA
ENDBRANCH  29  30
ENDBRANCH  21  24
ENDBRANCH   5  20
TORSDOF 5
