REMARK  Name = ZINC10129856
REMARK  12 active torsions:
REMARK  status: ('A' for Active; 'I' for Inactive)
REMARK    1  A    between atoms: C_1  and  C_2
REMARK    2  A    between atoms: C_4  and  C_36
REMARK    3  A    between atoms: C_5  and  N_9
REMARK    4  A    between atoms: C_6  and  C_8
REMARK    5  A    between atoms: C_10  and  C_12
REMARK    6  A    between atoms: N_14  and  C_15
REMARK    7  A    between atoms: C_15  and  C_16
REMARK    8  A    between atoms: C_16  and  C_18
REMARK    9  A    between atoms: C_16  and  N_72
REMARK   10  A    between atoms: C_21  and  N_24
REMARK   11  A    between atoms: N_24  and  C_25
REMARK   12  A    between atoms: N_24  and  C_26
REMARK                            x       y       z     vdW  Elec       q    Type
REMARK                         _______ _______ _______ _____ _____    ______ ____
ROOT
ATOM      1  C   UNL     1       1.393   2.728   0.593  0.00  0.00    -0.020 C 
ENDROOT
BRANCH   1  11
ATOM      2  C   UNL     1       2.141   4.708  -0.588  0.00  0.00    -0.073 C 
ATOM      3  C   UNL     1       1.727   6.150  -0.883  0.00  0.00    +0.017 C 
ATOM      4  C   UNL     1       1.678   6.943   0.397  0.00  0.00    -0.048 A 
ATOM      5  C   UNL     1       1.674   8.328   0.317  0.00  0.00    +0.004 A 
ATOM      6  C   UNL     1       1.626   9.092   1.466  0.00  0.00    +0.000 A 
ATOM      7  C   UNL     1       1.582   8.475   2.702  0.00  0.00    +0.000 A 
ATOM      8  C   UNL     1       1.586   7.097   2.782  0.00  0.00    +0.002 A 
ATOM      9  C   UNL     1       1.637   6.327   1.629  0.00  0.00    -0.061 A 
ATOM     10  C   UNL     1       1.649   4.827   1.768  0.00  0.00    -0.042 C 
ATOM     11  N   UNL     1       1.270   4.200   0.491  0.00  0.00    +0.388 N 
ATOM     12  H   UNL     1       0.295   4.440   0.276  0.00  0.00    -0.080 HD
ENDBRANCH   1  11
BRANCH   1  13
ATOM     13  C   UNL     1       2.782   2.349   1.037  0.00  0.00    -0.059 A 
ATOM     14  C   UNL     1       3.862   2.595   0.209  0.00  0.00    +0.004 A 
ATOM     15  C   UNL     1       5.137   2.254   0.615  0.00  0.00    +0.023 A 
ATOM     16  C   UNL     1       5.333   1.653   1.852  0.00  0.00    +0.029 A 
ATOM     17  C   UNL     1       4.245   1.403   2.679  0.00  0.00    +0.023 A 
ATOM     18  C   UNL     1       2.974   1.752   2.269  0.00  0.00    +0.004 A 
BRANCH  16  19
ATOM     19  N   UNL     1       6.621   1.301   2.263  0.00  0.00    -0.336 N 
ATOM     20  C   UNL     1       6.826   0.667   3.568  0.00  0.00    +0.129 C 
ATOM     21  C   UNL     1       7.766   1.566   1.389  0.00  0.00    +0.129 C 
ENDBRANCH  16  19
ENDBRANCH   1  13
BRANCH   1  22
ATOM     22  C   UNL     1       1.107   2.106  -0.775  0.00  0.00    +0.094 C 
BRANCH  22  25
ATOM     23  C   UNL     1      -0.603   2.248  -2.506  0.00  0.00    +0.299 C 
ATOM     24  O   UNL     1       0.093   1.547  -3.210  0.00  0.00    -0.265 OA
ATOM     25  N   UNL     1      -0.186   2.586  -1.269  0.00  0.00    -0.309 N 
ATOM     26  H   UNL     1      -0.743   3.147  -0.706  0.00  0.00    +0.149 HD
BRANCH  23  28
ATOM     27  N   UNL     1      -2.337   2.400  -4.246  0.00  0.00    -0.277 N 
ATOM     28  C   UNL     1      -1.921   2.738  -3.009  0.00  0.00    +0.303 C 
ATOM     29  O   UNL     1      -2.617   3.440  -2.305  0.00  0.00    -0.265 OA
ATOM     30  H   UNL     1      -1.821   1.773  -4.777  0.00  0.00    +0.155 HD
BRANCH  27  35
ATOM     31  C   UNL     1      -7.103   4.646  -6.345  0.00  0.00    +0.044 C 
ATOM     32  C   UNL     1      -5.837   4.049  -5.787  0.00  0.00    -0.050 A 
ATOM     33  C   UNL     1      -4.642   4.208  -6.466  0.00  0.00    +0.008 A 
ATOM     34  C   UNL     1      -3.480   3.663  -5.957  0.00  0.00    -0.029 A 
ATOM     35  C   UNL     1      -3.511   2.954  -4.763  0.00  0.00    +0.040 A 
ATOM     36  C   UNL     1      -4.714   2.791  -4.087  0.00  0.00    -0.029 A 
ATOM     37  C   UNL     1      -5.872   3.344  -4.598  0.00  0.00    +0.008 A 
ATOM     38  C   UNL     1      -4.754   2.017  -2.795  0.00  0.00    +0.045 C 
ATOM     39  C   UNL     1      -2.178   3.837  -6.697  0.00  0.00    +0.045 C 
ENDBRANCH  27  35
ENDBRANCH  23  28
ENDBRANCH  22  25
ENDBRANCH   1  22
TORSDOF 7
