REMARK  Name = ZINC04480585
REMARK  5 active torsions:
REMARK  status: ('A' for Active; 'I' for Inactive)
REMARK    1  A    between atoms: C_6  and  N_7
REMARK    2  A    between atoms: N_7  and  C_8
REMARK    3  A    between atoms: C_8  and  N_10
REMARK    4  A    between atoms: N_14  and  C_17
REMARK    5  A    between atoms: C_20  and  C_22
REMARK                            x       y       z     vdW  Elec       q    Type
REMARK                         _______ _______ _______ _____ _____    ______ ____
ROOT
ATOM      1  N   UNL     1      -2.264   1.615  -0.834  0.00  0.00    -0.311 N 
ATOM      2  C   UNL     1      -0.807   1.851  -0.884  0.00  0.00    +0.108 C 
ATOM      3  C   UNL     1      -0.106   1.287   0.363  0.00  0.00    +0.038 C 
ATOM      4  C   UNL     1      -0.952   1.560   1.588  0.00  0.00    +0.108 C 
ATOM      5  N   UNL     1      -1.827   0.414   1.829  0.00  0.00    -0.314 N 
ATOM      6  C   UNL     1      -3.068   0.419   1.149  0.00  0.00    +0.125 C 
ATOM      7  C   UNL     1      -2.833   0.362  -0.380  0.00  0.00    +0.125 C 
ENDROOT
BRANCH   5   8
ATOM      8  C   UNL     1      -2.007   0.202   3.191  0.00  0.00    +0.118 A 
ATOM      9  C   UNL     1      -1.086  -0.569   3.897  0.00  0.00    +0.079 A 
ATOM     10  C   UNL     1      -1.277  -0.772   5.252  0.00  0.00    +0.037 A 
ATOM     11  C   UNL     1      -2.386  -0.196   5.858  0.00  0.00    +0.072 A 
ATOM     12  C   UNL     1      -3.258   0.556   5.098  0.00  0.00    +0.096 A 
ATOM     13 CL   UNL     1       0.283  -1.264   3.087  0.00  0.00    -0.080 Cl
ATOM     14  N   UNL     1      -3.099   0.782   3.766  0.00  0.00    -0.348 N 
ATOM     15  H   UNL     1      -3.760   1.353   3.227  0.00  0.00    +0.167 HD
BRANCH  11  16
ATOM     16  C   UNL     1      -2.635  -0.391   7.332  0.00  0.00    +0.419 C 
ATOM     17  F   UNL     1      -2.006   0.632   8.050  0.00  0.00    -0.166 F 
ATOM     18  F   UNL     1      -4.011  -0.358   7.581  0.00  0.00    -0.166 F 
ATOM     19  F   UNL     1      -2.118  -1.628   7.732  0.00  0.00    -0.166 F 
ENDBRANCH  11  16
ENDBRANCH   5   8
BRANCH   1  20
ATOM     20  C   UNL     1      -3.095   2.601  -1.224  0.00  0.00    +0.137 C 
ATOM     21  S   UNL     1      -2.456   4.094  -1.765  0.00  0.00    -0.018 S 
BRANCH  20  22
ATOM     22  N   UNL     1      -4.429   2.412  -1.188  0.00  0.00    -0.297 N 
ATOM     23  H   UNL     1      -4.793   1.591  -0.823  0.00  0.00    +0.154 HD
BRANCH  22  29
ATOM     24  C   UNL     1      -5.084   4.732  -1.338  0.00  0.00    +0.025 A 
ATOM     25  C   UNL     1      -5.931   5.707  -1.828  0.00  0.00    +0.023 A 
ATOM     26  C   UNL     1      -6.990   5.358  -2.647  0.00  0.00    +0.059 A 
ATOM     27  C   UNL     1      -7.200   4.031  -2.984  0.00  0.00    +0.061 A 
ATOM     28  C   UNL     1      -6.352   3.053  -2.501  0.00  0.00    +0.044 A 
ATOM     29  C   UNL     1      -5.289   3.401  -1.678  0.00  0.00    +0.034 A 
ATOM     30 CL   UNL     1      -8.529   3.597  -4.012  0.00  0.00    -0.082 Cl
ATOM     31 CL   UNL     1      -8.056   6.586  -3.255  0.00  0.00    -0.082 Cl
ENDBRANCH  22  29
ENDBRANCH  20  22
ENDBRANCH   1  20
TORSDOF 5
