REMARK  Name = ZINC35697237
REMARK  11 active torsions:
REMARK  status: ('A' for Active; 'I' for Inactive)
REMARK    1  A    between atoms: C_1  and  C_2
REMARK    2  A    between atoms: C_5  and  C_8
REMARK    3  A    between atoms: C_10  and  C_30
REMARK    4  A    between atoms: C_11  and  C_29
REMARK    5  A    between atoms: C_15  and  C_18
REMARK    6  A    between atoms: C_19  and  N_21
REMARK    7  A    between atoms: N_21  and  C_22
REMARK    8  A    between atoms: C_22  and  C_23
REMARK    9  A    between atoms: C_30  and  O_32
REMARK   10  A    between atoms: O_32  and  C_33
REMARK   11  A    between atoms: C_33  and  C_34
REMARK                            x       y       z     vdW  Elec       q    Type
REMARK                         _______ _______ _______ _____ _____    ______ ____
ROOT
ATOM      1  C   UNL     1       0.241  -4.035   0.230  0.00  0.00    +0.150 C 
ATOM      2  C   UNL     1       1.597  -4.684   0.065  0.00  0.00    +0.082 C 
ATOM      3  C   UNL     1       1.867  -5.812   0.817  0.00  0.00    +0.053 C 
ATOM      4  N   UNL     1       0.959  -6.295   1.650  0.00  0.00    -0.230 NA
ATOM      5  C   UNL     1      -0.237  -5.779   1.840  0.00  0.00    +0.166 C 
ATOM      6  N   UNL     1      -0.698  -4.666   1.196  0.00  0.00    -0.267 N 
ATOM      7  C   UNL     1      -1.977  -4.248   1.504  0.00  0.00    +0.048 C 
ATOM      8  C   UNL     1      -2.669  -4.968   2.416  0.00  0.00    +0.072 C 
ATOM      9  S   UNL     1      -1.504  -6.245   2.838  0.00  0.00    -0.060 S 
ATOM     10  C   UNL     1       3.204  -6.495   0.688  0.00  0.00    +0.066 C 
ENDROOT
BRANCH   1  15
ATOM     11  C   UNL     1       1.077   1.439   1.884  0.00  0.00    +0.044 C 
ATOM     12  C   UNL     1       0.859   0.011   1.452  0.00  0.00    -0.050 A 
ATOM     13  C   UNL     1       0.527  -0.271   0.141  0.00  0.00    +0.004 A 
ATOM     14  C   UNL     1       0.327  -1.581  -0.255  0.00  0.00    +0.006 A 
ATOM     15  C   UNL     1       0.460  -2.607   0.661  0.00  0.00    -0.022 A 
ATOM     16  C   UNL     1       0.793  -2.325   1.973  0.00  0.00    +0.006 A 
ATOM     17  C   UNL     1       0.997  -1.016   2.367  0.00  0.00    +0.004 A 
ENDBRANCH   1  15
BRANCH   7  18
ATOM     18  C   UNL     1      -2.566  -3.062   0.866  0.00  0.00    +0.091 C 
ATOM     19  C   UNL     1      -3.860  -2.755   1.077  0.00  0.00    +0.239 C 
ATOM     20  O   UNL     1      -4.589  -3.470   1.969  0.00  0.00    -0.271 OA
BRANCH  19  21
ATOM     21  N   UNL     1      -4.446  -1.710   0.384  0.00  0.00    -0.308 N 
ATOM     22  H   UNL     1      -3.948  -1.246  -0.307  0.00  0.00    +0.149 HD
BRANCH  21  23
ATOM     23  C   UNL     1      -5.819  -1.304   0.694  0.00  0.00    +0.140 C 
BRANCH  23  24
ATOM     24  C   UNL     1      -6.258  -0.236  -0.274  0.00  0.00    -0.027 A 
ATOM     25  C   UNL     1      -6.046   1.105   0.004  0.00  0.00    +0.025 A 
ATOM     26  C   UNL     1      -6.462   2.057  -0.908  0.00  0.00    +0.111 A 
ATOM     27  N   UNL     1      -7.055   1.701  -2.030  0.00  0.00    -0.263 NA
ATOM     28  C   UNL     1      -7.274   0.435  -2.328  0.00  0.00    +0.111 A 
ATOM     29  C   UNL     1      -6.880  -0.572  -1.468  0.00  0.00    +0.025 A 
ENDBRANCH  23  24
ENDBRANCH  21  23
ENDBRANCH  19  21
ENDBRANCH   7  18
BRANCH   2  30
ATOM     30  C   UNL     1       2.546  -4.162  -0.821  0.00  0.00    +0.339 C 
ATOM     31  O   UNL     1       3.672  -4.628  -0.853  0.00  0.00    -0.245 OA
BRANCH  30  32
ATOM     32  O   UNL     1       2.215  -3.139  -1.640  0.00  0.00    -0.457 OA
BRANCH  32  33
ATOM     33  C   UNL     1       3.234  -2.655  -2.518  0.00  0.00    +0.259 C 
BRANCH  33  34
ATOM     34  C   UNL     1       2.685  -1.524  -3.349  0.00  0.00    +0.006 C 
ATOM     35  C   UNL     1       3.389  -0.433  -3.517  0.00  0.00    +0.007 C 
ENDBRANCH  33  34
ENDBRANCH  32  33
ENDBRANCH  30  32
ENDBRANCH   2  30
TORSDOF 9
