REMARK  Name = ZINC33312712
REMARK  3 active torsions:
REMARK  status: ('A' for Active; 'I' for Inactive)
REMARK    1  A    between atoms: C_8  and  C_22
REMARK    2  A    between atoms: C_9  and  N_10
REMARK    3  A    between atoms: N_13  and  C_14
REMARK                            x       y       z     vdW  Elec       q    Type
REMARK                         _______ _______ _______ _____ _____    ______ ____
ROOT
ATOM      1  C   UNL     1       0.686  -5.244   0.157  0.00  0.00    +0.005 A 
ATOM      2  C   UNL     1       0.225  -3.915   0.165  0.00  0.00    +0.018 A 
ATOM      3  C   UNL     1       1.101  -2.890   0.159  0.00  0.00    +0.094 A 
ATOM      4  N   UNL     1       2.449  -3.126   0.145  0.00  0.00    -0.287 N 
ATOM      5  C   UNL     1       2.929  -4.415   0.137  0.00  0.00    +0.140 A 
ATOM      6  C   UNL     1       2.022  -5.495   0.144  0.00  0.00    +0.047 A 
ATOM      7  N   UNL     1       4.252  -4.371   0.124  0.00  0.00    -0.226 NA
ATOM      8  C   UNL     1       4.654  -3.088   0.117  0.00  0.00    +0.112 A 
ATOM      9  C   UNL     1       3.530  -2.289   0.136  0.00  0.00    +0.139 A 
ENDROOT
BRANCH   8  10
ATOM     10  C   UNL     1       6.059  -2.615   0.096  0.00  0.00    +0.004 A 
ATOM     11  C   UNL     1       6.396  -1.457  -0.604  0.00  0.00    +0.013 A 
ATOM     12  C   UNL     1       7.705  -1.018  -0.616  0.00  0.00    +0.039 A 
ATOM     13  C   UNL     1       8.683  -1.732   0.056  0.00  0.00    +0.123 A 
ATOM     14  C   UNL     1       8.353  -2.886   0.749  0.00  0.00    +0.039 A 
ATOM     15  C   UNL     1       7.047  -3.330   0.771  0.00  0.00    +0.013 A 
ATOM     16  F   UNL     1       9.964  -1.302   0.036  0.00  0.00    -0.205 F 
ENDBRANCH   8  10
BRANCH   9  17
ATOM     17  N   UNL     1       3.502  -0.892   0.140  0.00  0.00    -0.253 N 
ATOM     18  C   UNL     1       2.707  -0.232  -0.726  0.00  0.00    +0.309 C 
ATOM     19  O   UNL     1       1.933  -0.849  -1.432  0.00  0.00    -0.252 OA
ATOM     20  N   UNL     1       2.771   1.112  -0.809  0.00  0.00    -0.267 N 
ATOM     21  H   UNL     1       4.128  -0.331   0.849  0.00  0.00    +0.158 HD
ATOM     22  H   UNL     1       3.527   1.664  -0.231  0.00  0.00    +0.156 HD
BRANCH  20  23
ATOM     23  C   UNL     1       1.874   1.806  -1.632  0.00  0.00    +0.070 A 
ATOM     24  C   UNL     1       0.654   1.236  -1.968  0.00  0.00    +0.029 A 
ATOM     25  C   UNL     1      -0.226   1.919  -2.785  0.00  0.00    +0.040 A 
ATOM     26  C   UNL     1       0.102   3.178  -3.259  0.00  0.00    +0.126 A 
ATOM     27  C   UNL     1       1.317   3.751  -2.926  0.00  0.00    +0.078 A 
ATOM     28  C   UNL     1       2.204   3.068  -2.113  0.00  0.00    +0.147 A 
ATOM     29  F   UNL     1       3.391   3.627  -1.788  0.00  0.00    -0.203 F 
ATOM     30  F   UNL     1      -0.764   3.846  -4.053  0.00  0.00    -0.205 F 
ENDBRANCH  20  23
ENDBRANCH   9  17
TORSDOF 3
