REMARK  Name = ZINC46914827
REMARK  14 active torsions:
REMARK  status: ('A' for Active; 'I' for Inactive)
REMARK    1  A    between atoms: C_1  and  O_2
REMARK    2  A    between atoms: O_2  and  C_3
REMARK    3  A    between atoms: C_6  and  C_11
REMARK    4  A    between atoms: C_8  and  O_9
REMARK    5  A    between atoms: O_9  and  C_10
REMARK    6  A    between atoms: C_13  and  C_16
REMARK    7  A    between atoms: C_17  and  N_35
REMARK    8  A    between atoms: N_18  and  C_23
REMARK    9  A    between atoms: C_20  and  S_21
REMARK   10  A    between atoms: S_21  and  C_22
REMARK   11  A    between atoms: C_23  and  C_24
REMARK   12  A    between atoms: N_26  and  C_27
REMARK   13  A    between atoms: C_31  and  S_33
REMARK   14  A    between atoms: S_33  and  C_34
REMARK                            x       y       z     vdW  Elec       q    Type
REMARK                         _______ _______ _______ _____ _____    ______ ____
ROOT
ATOM      1  C   UNL     1      -8.569  -2.644   0.051  0.00  0.00    +0.112 A 
ATOM      2  C   UNL     1      -9.593  -3.585   0.062  0.00  0.00    +0.129 A 
ATOM      3  N   UNL     1     -10.760  -2.907   0.073  0.00  0.00    -0.240 N 
ATOM      4  N   UNL     1     -10.479  -1.536   0.068  0.00  0.00    -0.162 NA
ATOM      5  C   UNL     1      -9.181  -1.364   0.061  0.00  0.00    +0.133 A 
ENDROOT
BRANCH   1   8
ATOM      6  C   UNL     1      -4.970  -2.631   0.020  0.00  0.00    +0.202 A 
ATOM      7  N   UNL     1      -6.165  -2.022   0.032  0.00  0.00    -0.187 NA
ATOM      8  C   UNL     1      -7.126  -2.923   0.037  0.00  0.00    +0.265 A 
ATOM      9  O   UNL     1      -6.557  -4.143   0.028  0.00  0.00    -0.332 OA
ATOM     10  N   UNL     1      -5.154  -3.929   0.011  0.00  0.00    -0.056 NA
BRANCH   6  14
ATOM     11  C   UNL     1      -1.196  -0.662  -0.005  0.00  0.00    +0.162 A 
ATOM     12  C   UNL     1      -2.366   0.082   0.013  0.00  0.00    +0.050 A 
ATOM     13  C   UNL     1      -3.590  -0.554   0.021  0.00  0.00    +0.015 A 
ATOM     14  C   UNL     1      -3.653  -1.947   0.011  0.00  0.00    +0.026 A 
ATOM     15  C   UNL     1      -2.478  -2.695  -0.007  0.00  0.00    +0.061 A 
ATOM     16  C   UNL     1      -1.252  -2.054  -0.020  0.00  0.00    +0.162 A 
BRANCH  11  18
ATOM     17  C   UNL     1      -0.006   1.397   0.005  0.00  0.00    +0.277 C 
ATOM     18  O   UNL     1       0.009  -0.032  -0.012  0.00  0.00    -0.491 OA
ENDBRANCH  11  18
BRANCH  16  19
ATOM     19  O   UNL     1      -0.104  -2.781  -0.044  0.00  0.00    -0.491 OA
ATOM     20  C   UNL     1      -0.237  -4.204  -0.059  0.00  0.00    +0.277 C 
ENDBRANCH  16  19
ENDBRANCH   6  14
ENDBRANCH   1   8
BRANCH   2  21
ATOM     21  N   UNL     1      -9.444  -4.959   0.061  0.00  0.00    -0.343 N 
ATOM     22  H   UNL     1      -8.557  -5.351   0.052  0.00  0.00    +0.144 HD
ATOM     23  H   UNL     1     -10.227  -5.532   0.070  0.00  0.00    +0.144 HD
ENDBRANCH   2  21
BRANCH   5  24
ATOM     24  S   UNL     1      -8.342   0.185   0.059  0.00  0.00    -0.107 S 
ATOM     25  C   UNL     1      -9.681   1.409   0.076  0.00  0.00    +0.091 C 
ENDBRANCH   5  24
BRANCH   3  26
ATOM     26  C   UNL     1     -12.096  -3.506   0.087  0.00  0.00    +0.241 C 
BRANCH  26  27
ATOM     27  C   UNL     1     -12.541  -3.710   1.512  0.00  0.00    +0.239 C 
ATOM     28  O   UNL     1     -11.812  -3.386   2.426  0.00  0.00    -0.273 OA
ATOM     29  N   UNL     1     -13.747  -4.251   1.771  0.00  0.00    -0.284 N 
ATOM     30  H   UNL     1     -14.357  -4.448   1.043  0.00  0.00    +0.155 HD
BRANCH  29  31
ATOM     31  C   UNL     1     -14.121  -4.530   3.091  0.00  0.00    +0.034 A 
ATOM     32  C   UNL     1     -14.895  -5.649   3.373  0.00  0.00    +0.023 A 
ATOM     33  C   UNL     1     -15.265  -5.925   4.675  0.00  0.00    +0.003 A 
ATOM     34  C   UNL     1     -14.866  -5.090   5.701  0.00  0.00    +0.015 A 
ATOM     35  C   UNL     1     -14.091  -3.969   5.426  0.00  0.00    +0.009 A 
ATOM     36  C   UNL     1     -13.713  -3.693   4.119  0.00  0.00    +0.038 A 
BRANCH  35  37
ATOM     37  S   UNL     1     -13.584  -2.905   6.735  0.00  0.00    -0.129 S 
ATOM     38  C   UNL     1     -14.297  -3.664   8.220  0.00  0.00    +0.090 C 
ENDBRANCH  35  37
ENDBRANCH  29  31
ENDBRANCH  26  27
ENDBRANCH   3  26
TORSDOF 10
