REMARK  Name = ZINC04199842
REMARK  12 active torsions:
REMARK  status: ('A' for Active; 'I' for Inactive)
REMARK    1  A    between atoms: C_1  and  C_2
REMARK    2  A    between atoms: C_3  and  C_24
REMARK    3  A    between atoms: C_4  and  C_20
REMARK    4  A    between atoms: C_5  and  N_7
REMARK    5  A    between atoms: C_8  and  C_10
REMARK    6  A    between atoms: C_16  and  C_18
REMARK    7  A    between atoms: C_20  and  O_22
REMARK    8  A    between atoms: O_22  and  C_23
REMARK    9  A    between atoms: C_27  and  C_30
REMARK   10  A    between atoms: C_30  and  C_31
REMARK   11  A    between atoms: C_30  and  C_32
REMARK   12  A    between atoms: C_30  and  C_33
REMARK                            x       y       z     vdW  Elec       q    Type
REMARK                         _______ _______ _______ _____ _____    ______ ____
ROOT
ATOM      1  C   UNL     1       5.264  -1.674  -0.072  0.00  0.00    +0.052 C 
ATOM      2  C   UNL     1       3.773  -1.500  -0.205  0.00  0.00    -0.003 A 
ATOM      3  C   UNL     1       2.841  -2.433  -0.527  0.00  0.00    +0.008 A 
ATOM      4  C   UNL     1       1.462  -1.985  -0.584  0.00  0.00    +0.095 A 
ATOM      5  C   UNL     1       1.229  -0.646  -0.303  0.00  0.00    +0.087 A 
ATOM      6  S   UNL     1       2.810  -0.018   0.016  0.00  0.00    -0.077 S 
ENDROOT
BRANCH   3   7
ATOM      7  C   UNL     1       3.214  -3.840  -0.807  0.00  0.00    -0.016 A 
ATOM      8  C   UNL     1       2.782  -4.860   0.040  0.00  0.00    +0.009 A 
ATOM      9  C   UNL     1       3.128  -6.169  -0.229  0.00  0.00    +0.005 A 
ATOM     10  C   UNL     1       3.910  -6.468  -1.330  0.00  0.00    -0.042 A 
ATOM     11  C   UNL     1       4.346  -5.460  -2.170  0.00  0.00    +0.005 A 
ATOM     12  C   UNL     1       4.003  -4.148  -1.915  0.00  0.00    +0.009 A 
BRANCH  10  13
ATOM     13  C   UNL     1       4.289  -7.899  -1.614  0.00  0.00    -0.013 C 
ATOM     14  C   UNL     1       5.813  -8.036  -1.600  0.00  0.00    +0.015 C 
ATOM     15  C   UNL     1       3.685  -8.809  -0.543  0.00  0.00    +0.015 C 
ATOM     16  C   UNL     1       3.754  -8.304  -2.989  0.00  0.00    +0.015 C 
ENDBRANCH  10  13
ENDBRANCH   3   7
BRANCH   5  17
ATOM     17  N   UNL     1       0.019   0.030  -0.288  0.00  0.00    -0.279 N 
ATOM     18  C   UNL     1      -0.016   1.344   0.009  0.00  0.00    +0.222 C 
ATOM     19  O   UNL     1       1.011   1.935   0.264  0.00  0.00    -0.275 OA
ATOM     20  H   UNL     1      -0.803  -0.443  -0.492  0.00  0.00    +0.155 HD
BRANCH  18  21
ATOM     21  C   UNL     1      -1.331   2.079   0.020  0.00  0.00    +0.093 C 
ATOM     22  C   UNL     1      -1.141   3.481  -0.565  0.00  0.00    +0.040 C 
ATOM     23  C   UNL     1      -0.344   4.331   0.380  0.00  0.00    -0.030 C 
ATOM     24  C   UNL     1      -0.161   4.050   1.630  0.00  0.00    -0.030 C 
ATOM     25  C   UNL     1      -0.712   2.830   2.307  0.00  0.00    +0.042 C 
ATOM     26  C   UNL     1      -1.833   2.219   1.463  0.00  0.00    +0.118 C 
BRANCH  26  27
ATOM     27  C   UNL     1      -2.200   0.862   2.005  0.00  0.00    +0.360 C 
ATOM     28  O   UNL     1      -2.075  -0.120   1.312  0.00  0.00    -0.246 OA
ATOM     29  O   UNL     1      -2.666   0.744   3.259  0.00  0.00    -0.246 OA
ENDBRANCH  26  27
ENDBRANCH  18  21
ENDBRANCH   5  17
BRANCH   4  30
ATOM     30  C   UNL     1       0.372  -2.900  -0.921  0.00  0.00    +0.342 C 
ATOM     31  O   UNL     1       0.036  -3.047  -2.081  0.00  0.00    -0.245 OA
BRANCH  30  32
ATOM     32  O   UNL     1      -0.262  -3.582   0.056  0.00  0.00    -0.464 OA
ATOM     33  C   UNL     1      -1.335  -4.472  -0.351  0.00  0.00    +0.280 C 
ENDBRANCH  30  32
ENDBRANCH   4  30
TORSDOF 7
