REMARK  Name = ZINC04279574
REMARK  4 active torsions:
REMARK  status: ('A' for Active; 'I' for Inactive)
REMARK    1  A    between atoms: C_1  and  C_2
REMARK    2  A    between atoms: C_3  and  C_26
REMARK    3  A    between atoms: C_4  and  C_19
REMARK    4  A    between atoms: C_10  and  C_12
REMARK                            x       y       z     vdW  Elec       q    Type
REMARK                         _______ _______ _______ _____ _____    ______ ____
ROOT
ATOM      1  C   UNL     1       0.638   1.237   0.151  0.00  0.00    +0.066 C 
ATOM      2  C   UNL     1       0.387  -0.246   0.057  0.00  0.00    +0.052 C 
ATOM      3  C   UNL     1      -0.884  -0.690  -0.181  0.00  0.00    +0.061 C 
ATOM      4  C   UNL     1      -1.089  -2.192  -0.268  0.00  0.00    +0.164 C 
ATOM      5  N   UNL     1       0.109  -3.018  -0.086  0.00  0.00    -0.207 N 
ATOM      6  C   UNL     1       1.315  -2.400   0.147  0.00  0.00    +0.237 C 
ATOM      7  N   UNL     1       1.405  -1.080   0.203  0.00  0.00    -0.218 NA
ATOM      8  N   UNL     1       2.242  -3.362   0.277  0.00  0.00    -0.196 NA
ATOM      9  C   UNL     1       1.690  -4.552   0.140  0.00  0.00    +0.146 C 
ATOM     10  N   UNL     1       0.348  -4.395  -0.090  0.00  0.00    -0.244 N 
ATOM     11  H   UNL     1      -0.305  -5.099  -0.228  0.00  0.00    +0.172 HD
ENDROOT
BRANCH   9  12
ATOM     12  C   UNL     1       2.401  -5.841   0.222  0.00  0.00    +0.016 A 
ATOM     13  C   UNL     1       1.702  -7.040   0.052  0.00  0.00    +0.014 A 
ATOM     14  C   UNL     1       2.372  -8.242   0.129  0.00  0.00    +0.039 A 
ATOM     15  C   UNL     1       3.736  -8.264   0.374  0.00  0.00    +0.123 A 
ATOM     16  C   UNL     1       4.435  -7.078   0.544  0.00  0.00    +0.039 A 
ATOM     17  C   UNL     1       3.777  -5.870   0.462  0.00  0.00    +0.014 A 
ATOM     18  F   UNL     1       4.388  -9.445   0.449  0.00  0.00    -0.205 F 
ENDBRANCH   9  12
BRANCH   4  19
ATOM     19  C   UNL     1      -1.672  -2.509  -1.621  0.00  0.00    -0.021 A 
ATOM     20  C   UNL     1      -0.888  -2.396  -2.754  0.00  0.00    +0.008 A 
ATOM     21  C   UNL     1      -1.421  -2.686  -3.995  0.00  0.00    +0.038 A 
ATOM     22  C   UNL     1      -2.741  -3.091  -4.104  0.00  0.00    +0.123 A 
ATOM     23  C   UNL     1      -3.525  -3.203  -2.969  0.00  0.00    +0.038 A 
ATOM     24  C   UNL     1      -2.988  -2.917  -1.728  0.00  0.00    +0.008 A 
ATOM     25  F   UNL     1      -3.264  -3.374  -5.317  0.00  0.00    -0.205 F 
ENDBRANCH   4  19
BRANCH   3  26
ATOM     26  C   UNL     1      -1.956   0.207  -0.338  0.00  0.00    +0.241 C 
ATOM     27  O   UNL     1      -1.746   1.407  -0.378  0.00  0.00    -0.271 OA
ATOM     28  N   UNL     1      -3.216  -0.260  -0.444  0.00  0.00    -0.325 N 
ATOM     29  H   UNL     1      -3.392  -1.208  -0.336  0.00  0.00    +0.145 HD
ATOM     30  H   UNL     1      -3.946   0.351  -0.629  0.00  0.00    +0.145 HD
ENDBRANCH   3  26
TORSDOF 3
