REMARK  Name = ZINC59045153
REMARK  7 active torsions:
REMARK  status: ('A' for Active; 'I' for Inactive)
REMARK    1  A    between atoms: C_1  and  C_2
REMARK    2  A    between atoms: C_3  and  N_9
REMARK    3  A    between atoms: C_10  and  C_12
REMARK    4  A    between atoms: C_12  and  S_13
REMARK    5  A    between atoms: S_13  and  C_14
REMARK    6  A    between atoms: C_17  and  C_20
REMARK    7  A    between atoms: N_18  and  N_19
REMARK                            x       y       z     vdW  Elec       q    Type
REMARK                         _______ _______ _______ _____ _____    ______ ____
ROOT
ATOM      1  C   UNL     1       0.425  -0.023  -7.681  0.00  0.00    +0.209 A 
ATOM      2  N   UNL     1       0.414   1.292  -7.693  0.00  0.00    -0.121 NA
ATOM      3  N   UNL     1       0.506   1.723  -8.899  0.00  0.00    -0.127 NA
ATOM      4  C   UNL     1       0.581   0.712  -9.733  0.00  0.00    +0.182 A 
ATOM      5  N   UNL     1       0.538  -0.438  -8.978  0.00  0.00    -0.224 N 
ENDROOT
BRANCH   4   6
ATOM      6  C   UNL     1       0.697   0.792 -11.204  0.00  0.00    +0.021 A 
ATOM      7  C   UNL     1       0.450  -0.335 -11.990  0.00  0.00    +0.013 A 
ATOM      8  C   UNL     1       0.560  -0.253 -13.362  0.00  0.00    +0.016 A 
ATOM      9  C   UNL     1       0.915   0.944 -13.961  0.00  0.00    +0.018 A 
ATOM     10  C   UNL     1       1.162   2.065 -13.188  0.00  0.00    +0.016 A 
ATOM     11  C   UNL     1       1.049   1.998 -11.815  0.00  0.00    +0.013 A 
ATOM     12 BR   UNL     1       1.064   1.046 -15.844  0.00  0.00    -0.050 Br
ENDBRANCH   4   6
BRANCH   5  13
ATOM     13  N   UNL     1       0.593  -1.725  -9.431  0.00  0.00    -0.295 N 
ATOM     14  H   UNL     1      -0.331  -2.079  -9.628  0.00  0.00    +0.163 HD
ATOM     15  H   UNL     1       1.189  -1.798 -10.241  0.00  0.00    +0.163 HD
ENDBRANCH   5  13
BRANCH   1  16
ATOM     16  S   UNL     1       0.322  -1.057  -6.258  0.00  0.00    -0.075 S 
BRANCH  16  17
ATOM     17  C   UNL     1       0.192   0.111  -4.876  0.00  0.00    +0.173 C 
BRANCH  17  19
ATOM     18  N   UNL     1      -0.010   0.011  -2.413  0.00  0.00    -0.284 N 
ATOM     19  C   UNL     1       0.095  -0.653  -3.581  0.00  0.00    +0.227 C 
ATOM     20  O   UNL     1       0.112  -1.866  -3.589  0.00  0.00    -0.275 OA
ATOM     21  H   UNL     1      -0.104   0.977  -2.411  0.00  0.00    +0.155 HD
BRANCH  18  24
ATOM     22  C   UNL     1      -1.263   1.190  -0.146  0.00  0.00    +0.048 C 
ATOM     23  C   UNL     1      -0.583  -0.153  -0.073  0.00  0.00    +0.006 A 
ATOM     24  C   UNL     1       0.017  -0.692  -1.203  0.00  0.00    +0.039 A 
ATOM     25  C   UNL     1       0.643  -1.929  -1.132  0.00  0.00    +0.024 A 
ATOM     26  C   UNL     1       0.668  -2.622   0.063  0.00  0.00    +0.005 A 
ATOM     27  C   UNL     1       0.070  -2.085   1.188  0.00  0.00    +0.039 A 
ATOM     28  C   UNL     1      -0.550  -0.848   1.123  0.00  0.00    +0.128 A 
ATOM     29  F   UNL     1      -1.129  -0.324   2.225  0.00  0.00    -0.205 F 
ENDBRANCH  18  24
ENDBRANCH  17  19
ENDBRANCH  16  17
ENDBRANCH   1  16
TORSDOF 6
