REMARK  Name = ZINC59021812
REMARK  10 active torsions:
REMARK  status: ('A' for Active; 'I' for Inactive)
REMARK    1  A    between atoms: C_1  and  C_2
REMARK    2  A    between atoms: C_2  and  C_29
REMARK    3  A    between atoms: N_3  and  N_4
REMARK    4  A    between atoms: C_7  and  S_10
REMARK    5  A    between atoms: S_10  and  C_11
REMARK    6  A    between atoms: C_11  and  C_12
REMARK    7  A    between atoms: N_14  and  C_15
REMARK    8  A    between atoms: C_20  and  S_21
REMARK    9  A    between atoms: S_21  and  C_22
REMARK   10  A    between atoms: C_22  and  C_23
REMARK                            x       y       z     vdW  Elec       q    Type
REMARK                         _______ _______ _______ _____ _____    ______ ____
ROOT
ATOM      1  S   UNL     1      -2.747   1.331   5.546  0.00  0.00    -0.075 S 
ENDROOT
BRANCH   1   5
ATOM      2  N   UNL     1      -1.541   0.179   0.681  0.00  0.00    -0.205 N 
ATOM      3  C   UNL     1      -2.015   0.028   1.971  0.00  0.00    +0.232 A 
ATOM      4  N   UNL     1      -2.011   0.950   2.910  0.00  0.00    -0.186 NA
ATOM      5  C   UNL     1      -2.546   0.454   4.031  0.00  0.00    +0.211 A 
ATOM      6  N   UNL     1      -2.897  -0.792   3.820  0.00  0.00    -0.144 NA
ATOM      7  N   UNL     1      -2.568  -1.091   2.488  0.00  0.00    -0.245 N 
ATOM      8  H   UNL     1      -1.591  -0.561   0.056  0.00  0.00    +0.177 HD
ATOM      9  H   UNL     1      -2.708  -1.934   2.030  0.00  0.00    +0.192 HD
BRANCH   2  12
ATOM     10  C   UNL     1       0.124   2.816  -1.359  0.00  0.00    +0.068 C 
ATOM     11  C   UNL     1      -0.633   1.576  -0.960  0.00  0.00    +0.063 C 
ATOM     12  N   UNL     1      -0.988   1.401   0.277  0.00  0.00    -0.184 NA
BRANCH  11  13
ATOM     13  C   UNL     1      -0.972   0.560  -1.974  0.00  0.00    -0.002 A 
ATOM     14  C   UNL     1      -2.182  -0.134  -1.895  0.00  0.00    +0.012 A 
ATOM     15  C   UNL     1      -2.493  -1.082  -2.846  0.00  0.00    +0.039 A 
ATOM     16  C   UNL     1      -1.608  -1.347  -3.880  0.00  0.00    +0.123 A 
ATOM     17  C   UNL     1      -0.407  -0.661  -3.964  0.00  0.00    +0.039 A 
ATOM     18  C   UNL     1      -0.087   0.294  -3.022  0.00  0.00    +0.012 A 
ATOM     19  F   UNL     1      -1.918  -2.277  -4.810  0.00  0.00    -0.205 F 
ENDBRANCH  11  13
ENDBRANCH   2  12
ENDBRANCH   1   5
BRANCH   1  20
ATOM     20  C   UNL     1      -3.519   0.121   6.655  0.00  0.00    +0.173 C 
BRANCH  20  21
ATOM     21  C   UNL     1      -3.748   0.751   8.004  0.00  0.00    +0.228 C 
ATOM     22  O   UNL     1      -3.423   1.904   8.199  0.00  0.00    -0.275 OA
ATOM     23  N   UNL     1      -4.315   0.035   8.995  0.00  0.00    -0.284 N 
ATOM     24  H   UNL     1      -4.625  -0.868   8.824  0.00  0.00    +0.155 HD
BRANCH  23  25
ATOM     25  C   UNL     1      -4.457   0.595  10.272  0.00  0.00    +0.047 A 
ATOM     26  C   UNL     1      -4.559   1.969  10.421  0.00  0.00    +0.024 A 
ATOM     27  C   UNL     1      -4.699   2.520  11.682  0.00  0.00    +0.002 A 
ATOM     28  C   UNL     1      -4.737   1.703  12.797  0.00  0.00    +0.001 A 
ATOM     29  C   UNL     1      -4.636   0.332  12.659  0.00  0.00    +0.016 A 
ATOM     30  C   UNL     1      -4.502  -0.230  11.396  0.00  0.00    +0.029 A 
BRANCH  30  31
ATOM     31  S   UNL     1      -4.379  -1.978  11.216  0.00  0.00    -0.119 S 
BRANCH  31  32
ATOM     32  C   UNL     1      -4.485  -2.604  12.915  0.00  0.00    +0.109 C 
BRANCH  32  33
ATOM     33  C   UNL     1      -4.392  -4.108  12.904  0.00  0.00    -0.037 A 
ATOM     34  C   UNL     1      -5.539  -4.870  12.792  0.00  0.00    +0.004 A 
ATOM     35  C   UNL     1      -5.454  -6.250  12.781  0.00  0.00    +0.000 A 
ATOM     36  C   UNL     1      -4.221  -6.867  12.882  0.00  0.00    +0.000 A 
ATOM     37  C   UNL     1      -3.074  -6.104  12.993  0.00  0.00    +0.000 A 
ATOM     38  C   UNL     1      -3.159  -4.725  12.999  0.00  0.00    +0.004 A 
ENDBRANCH  32  33
ENDBRANCH  31  32
ENDBRANCH  30  31
ENDBRANCH  23  25
ENDBRANCH  20  21
ENDBRANCH   1  20
TORSDOF 9
