REMARK  Name = ZINC05734061
REMARK  6 active torsions:
REMARK  status: ('A' for Active; 'I' for Inactive)
REMARK    1  A    between atoms: C_4  and  C_7
REMARK    2  A    between atoms: N_9  and  C_10
REMARK    3  A    between atoms: C_10  and  C_21
REMARK    4  A    between atoms: C_11  and  C_12
REMARK    5  A    between atoms: N_23  and  N_24
REMARK    6  A    between atoms: N_24  and  C_25
REMARK                            x       y       z     vdW  Elec       q    Type
REMARK                         _______ _______ _______ _____ _____    ______ ____
ROOT
ATOM      1  C   UNL     1      -5.135   7.981  -0.129  0.00  0.00    +0.098 C 
ATOM      2  C   UNL     1      -5.336   9.316  -0.231  0.00  0.00    +0.036 C 
ENDROOT
BRANCH   2   3
ATOM      3  C   UNL     1      -6.703   9.855  -0.241  0.00  0.00    -0.019 A 
ATOM      4  C   UNL     1      -7.773   9.048  -0.643  0.00  0.00    +0.012 A 
ATOM      5  C   UNL     1      -9.054   9.555  -0.647  0.00  0.00    +0.050 A 
ATOM      6  C   UNL     1      -9.288  10.868  -0.262  0.00  0.00    +0.166 A 
ATOM      7  C   UNL     1      -8.225  11.681   0.135  0.00  0.00    +0.167 A 
ATOM      8  C   UNL     1      -6.939  11.179   0.146  0.00  0.00    +0.057 A 
ATOM      9  O   UNL     1      -8.717  12.913   0.460  0.00  0.00    -0.453 OA
ATOM     10  C   UNL     1     -10.131  12.723   0.650  0.00  0.00    +0.466 C 
ATOM     11  O   UNL     1     -10.442  11.593  -0.185  0.00  0.00    -0.453 OA
ENDBRANCH   2   3
BRANCH   1  14
ATOM     12  C   UNL     1      -6.508   6.135  -0.737  0.00  0.00    +0.248 C 
ATOM     13  O   UNL     1      -5.781   5.922  -1.688  0.00  0.00    -0.270 OA
ATOM     14  N   UNL     1      -6.215   7.129   0.126  0.00  0.00    -0.277 N 
ATOM     15  H   UNL     1      -6.754   7.253   0.923  0.00  0.00    +0.155 HD
BRANCH  12  19
ATOM     16  C   UNL     1      -9.969   3.748  -0.133  0.00  0.00    +0.000 A 
ATOM     17  C   UNL     1      -9.144   3.503  -1.216  0.00  0.00    +0.001 A 
ATOM     18  C   UNL     1      -8.018   4.275  -1.419  0.00  0.00    +0.013 A 
ATOM     19  C   UNL     1      -7.712   5.305  -0.527  0.00  0.00    +0.037 A 
ATOM     20  C   UNL     1      -8.546   5.543   0.567  0.00  0.00    +0.013 A 
ATOM     21  C   UNL     1      -9.671   4.767   0.755  0.00  0.00    +0.001 A 
ENDBRANCH  12  19
ENDBRANCH   1  14
BRANCH   1  22
ATOM     22  C   UNL     1      -3.784   7.427  -0.286  0.00  0.00    +0.274 C 
ATOM     23  O   UNL     1      -2.860   8.155  -0.596  0.00  0.00    -0.267 OA
ATOM     24  N   UNL     1      -3.567   6.112  -0.086  0.00  0.00    -0.231 N 
ATOM     25  H   UNL     1      -4.315   5.518   0.087  0.00  0.00    +0.173 HD
BRANCH  24  26
ATOM     26  N   UNL     1      -2.263   5.603  -0.127  0.00  0.00    -0.264 N 
ATOM     27  H   UNL     1      -1.510   6.206  -0.225  0.00  0.00    +0.170 HD
BRANCH  26  28
ATOM     28  C   UNL     1      -2.049   4.236  -0.028  0.00  0.00    +0.055 A 
ATOM     29  C   UNL     1      -3.098   3.364   0.216  0.00  0.00    +0.045 A 
ATOM     30  C   UNL     1      -2.851   2.001   0.310  0.00  0.00    +0.113 A 
ATOM     31  N   UNL     1      -1.645   1.504   0.163  0.00  0.00    -0.255 NA
ATOM     32  C   UNL     1      -0.588   2.285  -0.086  0.00  0.00    +0.074 A 
ATOM     33  C   UNL     1      -0.755   3.687  -0.191  0.00  0.00    +0.023 A 
ATOM     34  C   UNL     1       0.355   4.501  -0.458  0.00  0.00    +0.013 A 
ATOM     35  C   UNL     1       1.585   3.935  -0.608  0.00  0.00    +0.021 A 
ATOM     36  C   UNL     1       1.754   2.555  -0.500  0.00  0.00    +0.043 A 
ATOM     37  C   UNL     1       0.696   1.737  -0.241  0.00  0.00    +0.048 A 
ATOM     38 CL   UNL     1       3.337   1.870  -0.698  0.00  0.00    -0.083 Cl
ENDBRANCH  26  28
ENDBRANCH  24  26
ENDBRANCH   1  22
TORSDOF 6
