REMARK  Name = ZINC08708095
REMARK  6 active torsions:
REMARK  status: ('A' for Active; 'I' for Inactive)
REMARK    1  A    between atoms: C_6  and  C_7
REMARK    2  A    between atoms: C_7  and  C_9
REMARK    3  A    between atoms: C_7  and  N_48
REMARK    4  A    between atoms: N_14  and  C_17
REMARK    5  A    between atoms: C_20  and  C_26
REMARK    6  A    between atoms: C_22  and  N_23
REMARK                            x       y       z     vdW  Elec       q    Type
REMARK                         _______ _______ _______ _____ _____    ______ ____
ROOT
ATOM      1  C   UNL     1      -3.775   1.715   0.024  0.00  0.00    -0.058 C 
ATOM      2  C   UNL     1      -4.902   0.683  -0.062  0.00  0.00    +0.086 C 
ATOM      3  N   UNL     1      -4.776  -0.270   1.050  0.00  0.00    -0.332 N 
ATOM      4  C   UNL     1      -3.479  -0.960   1.005  0.00  0.00    +0.086 C 
ATOM      5  C   UNL     1      -2.352   0.072   1.091  0.00  0.00    -0.058 C 
ATOM      6  N   UNL     1      -2.477   1.010  -0.045  0.00  0.00    +0.392 N 
ATOM      7  H   UNL     1      -2.432   0.479  -0.923  0.00  0.00    -0.080 HD
ENDROOT
BRANCH   3   8
ATOM      8  C   UNL     1      -5.830  -1.186   1.047  0.00  0.00    +0.062 A 
ATOM      9  C   UNL     1      -6.038  -2.004  -0.057  0.00  0.00    +0.046 A 
ATOM     10  C   UNL     1      -7.079  -2.913  -0.054  0.00  0.00    +0.054 A 
ATOM     11  C   UNL     1      -7.920  -3.001   1.042  0.00  0.00    +0.075 A 
ATOM     12  C   UNL     1      -7.719  -2.183   2.138  0.00  0.00    +0.048 A 
ATOM     13  C   UNL     1      -6.677  -1.277   2.144  0.00  0.00    +0.148 A 
ATOM     14 CL   UNL     1      -7.335  -3.941  -1.429  0.00  0.00    -0.083 Cl
BRANCH  11  15
ATOM     15  C   UNL     1      -9.057  -3.989   1.039  0.00  0.00    +0.419 C 
ATOM     16  F   UNL     1      -9.761  -3.894   2.244  0.00  0.00    -0.166 F 
ATOM     17  F   UNL     1      -9.918  -3.707  -0.027  0.00  0.00    -0.166 F 
ATOM     18  F   UNL     1      -8.549  -5.285   0.897  0.00  0.00    -0.166 F 
ENDBRANCH  11  15
BRANCH  13  19
ATOM     19  N   UNL     1      -6.462  -0.403   3.320  0.00  0.00    +0.058 N 
ATOM     20  O   UNL     1      -7.141  -0.550   4.320  0.00  0.00    -0.126 OA
ATOM     21  O   UNL     1      -5.606   0.463   3.287  0.00  0.00    -0.126 OA
ENDBRANCH  13  19
ENDBRANCH   3   8
BRANCH   6  22
ATOM     22  C   UNL     1      -1.369   1.988  -0.018  0.00  0.00    +0.050 C 
BRANCH  22  28
ATOM     23  C   UNL     1      -1.960   2.482  -2.399  0.00  0.00    +0.004 A 
ATOM     24  C   UNL     1      -2.114   3.361  -3.454  0.00  0.00    +0.020 A 
ATOM     25  C   UNL     1      -1.829   4.704  -3.283  0.00  0.00    +0.041 A 
ATOM     26  C   UNL     1      -1.396   5.167  -2.054  0.00  0.00    +0.020 A 
ATOM     27  C   UNL     1      -1.247   4.288  -0.998  0.00  0.00    +0.004 A 
ATOM     28  C   UNL     1      -1.532   2.946  -1.169  0.00  0.00    -0.052 A 
ATOM     29 CL   UNL     1      -2.015   5.807  -4.610  0.00  0.00    -0.084 Cl
ENDBRANCH  22  28
BRANCH  22  30
ATOM     30  C   UNL     1      -0.062   1.250  -0.159  0.00  0.00    +0.201 C 
ATOM     31  O   UNL     1      -0.056   0.041  -0.253  0.00  0.00    -0.277 OA
ATOM     32  N   UNL     1       1.099   1.935  -0.186  0.00  0.00    -0.330 N 
ATOM     33  H   UNL     1       1.939   1.460  -0.281  0.00  0.00    +0.145 HD
ATOM     34  H   UNL     1       1.093   2.902  -0.110  0.00  0.00    +0.145 HD
ENDBRANCH  22  30
ENDBRANCH   6  22
TORSDOF 6
