REMARK  Name = ZINC09239324
REMARK  8 active torsions:
REMARK  status: ('A' for Active; 'I' for Inactive)
REMARK    1  A    between atoms: C_1  and  C_2
REMARK    2  A    between atoms: C_2  and  C_3
REMARK    3  A    between atoms: C_9  and  C_27
REMARK    4  A    between atoms: C_11  and  C_14
REMARK    5  A    between atoms: N_16  and  C_17
REMARK    6  A    between atoms: C_22  and  C_23
REMARK    7  A    between atoms: C_30  and  O_33
REMARK    8  A    between atoms: O_33  and  C_34
REMARK                            x       y       z     vdW  Elec       q    Type
REMARK                         _______ _______ _______ _____ _____    ______ ____
ROOT
ATOM      1  C   UNL     1       2.004   0.573  -0.039  0.00  0.00    +0.151 A 
ATOM      2  N   UNL     1       1.179  -0.438  -0.035  0.00  0.00    -0.132 NA
ATOM      3  N   UNL     1      -0.039  -0.017  -0.010  0.00  0.00    -0.121 NA
ATOM      4  C   UNL     1      -0.047   1.287  -0.001  0.00  0.00    +0.209 A 
ATOM      5  N   UNL     1       1.251   1.712  -0.010  0.00  0.00    -0.225 N 
ATOM      6  N   UNL     1       1.691   2.996   0.014  0.00  0.00    -0.272 N 
ATOM      7  C   UNL     1       0.702   3.966  -0.456  0.00  0.00    +0.140 C 
ATOM      8  C   UNL     1      -0.561   3.908   0.413  0.00  0.00    +0.166 C 
ATOM      9  S   UNL     1      -1.442   2.368   0.014  0.00  0.00    -0.069 S 
ATOM     10  H   UNL     1       2.034   3.244   0.931  0.00  0.00    +0.167 HD
ENDROOT
BRANCH   7  11
ATOM     11  C   UNL     1       1.288   5.353  -0.382  0.00  0.00    -0.024 A 
ATOM     12  C   UNL     1       2.068   5.715   0.701  0.00  0.00    +0.009 A 
ATOM     13  C   UNL     1       2.612   6.983   0.768  0.00  0.00    +0.046 A 
ATOM     14  C   UNL     1       2.366   7.897  -0.246  0.00  0.00    +0.120 A 
ATOM     15  C   UNL     1       1.579   7.532  -1.329  0.00  0.00    +0.046 A 
ATOM     16  C   UNL     1       1.042   6.261  -1.395  0.00  0.00    +0.009 A 
BRANCH  14  17
ATOM     17  O   UNL     1       2.896   9.147  -0.180  0.00  0.00    -0.495 OA
ATOM     18  C   UNL     1       3.696   9.452   0.964  0.00  0.00    +0.277 C 
ENDBRANCH  14  17
ENDBRANCH   7  11
BRANCH   8  19
ATOM     19  C   UNL     1      -1.443   5.093   0.113  0.00  0.00    +0.233 C 
ATOM     20  O   UNL     1      -1.506   5.530  -1.017  0.00  0.00    -0.274 OA
ATOM     21  N   UNL     1      -2.161   5.666   1.099  0.00  0.00    -0.284 N 
ATOM     22  H   UNL     1      -2.162   5.277   1.987  0.00  0.00    +0.155 HD
BRANCH  21  23
ATOM     23  C   UNL     1      -2.905   6.822   0.840  0.00  0.00    +0.045 A 
ATOM     24  C   UNL     1      -3.511   6.998  -0.397  0.00  0.00    +0.024 A 
ATOM     25  C   UNL     1      -4.250   8.138  -0.646  0.00  0.00    +0.002 A 
ATOM     26  C   UNL     1      -4.378   9.109   0.330  0.00  0.00    +0.001 A 
ATOM     27  C   UNL     1      -3.771   8.939   1.561  0.00  0.00    +0.014 A 
ATOM     28  C   UNL     1      -3.035   7.799   1.819  0.00  0.00    +0.076 A 
BRANCH  28  29
ATOM     29  C   UNL     1      -2.374   7.615   3.161  0.00  0.00    +0.419 C 
ATOM     30  F   UNL     1      -2.647   8.723   3.970  0.00  0.00    -0.166 F 
ATOM     31  F   UNL     1      -2.872   6.458   3.771  0.00  0.00    -0.166 F 
ATOM     32  F   UNL     1      -0.992   7.493   2.987  0.00  0.00    -0.166 F 
ENDBRANCH  28  29
ENDBRANCH  21  23
ENDBRANCH   8  19
BRANCH   1  34
ATOM     33  C   UNL     1       3.989   0.489  -1.523  0.00  0.00    +0.012 C 
ATOM     34  C   UNL     1       3.508   0.497  -0.070  0.00  0.00    +0.074 C 
ENDBRANCH   1  34
TORSDOF 6
