REMARK  Name = ZINC16201616
REMARK  7 active torsions:
REMARK  status: ('A' for Active; 'I' for Inactive)
REMARK    1  A    between atoms: C_1  and  C_2
REMARK    2  A    between atoms: C_3  and  S_8
REMARK    3  A    between atoms: C_4  and  C_7
REMARK    4  A    between atoms: S_8  and  N_11
REMARK    5  A    between atoms: C_15  and  C_18
REMARK    6  A    between atoms: N_20  and  N_21
REMARK    7  A    between atoms: C_22  and  C_24
REMARK                            x       y       z     vdW  Elec       q    Type
REMARK                         _______ _______ _______ _____ _____    ______ ____
ROOT
ATOM      1  C   UNL     1      -0.723   2.014   1.251  0.00  0.00    +0.233 C 
ATOM      2  O   UNL     1      -1.165   1.216   2.050  0.00  0.00    -0.274 OA
ATOM      3  N   UNL     1      -0.862   3.337   1.472  0.00  0.00    -0.234 N 
ATOM      4  H   UNL     1      -0.508   3.975   0.833  0.00  0.00    +0.173 HD
ENDROOT
BRANCH   1   9
ATOM      5  N   UNL     1       0.803  -0.460  -1.143  0.00  0.00    -0.176 NA
ATOM      6  C   UNL     1       2.170   0.056  -1.299  0.00  0.00    +0.109 C 
ATOM      7  C   UNL     1       2.124   1.587  -1.276  0.00  0.00    +0.018 C 
ATOM      8  C   UNL     1       1.419   2.053  -0.001  0.00  0.00    +0.015 C 
ATOM      9  C   UNL     1      -0.019   1.528   0.010  0.00  0.00    +0.092 C 
ATOM     10  C   UNL     1       0.002  -0.004   0.002  0.00  0.00    +0.122 C 
BRANCH   5  11
ATOM     11  S   UNL     1       0.176  -1.534  -2.236  0.00  0.00    +0.066 S 
ATOM     12  O   UNL     1       1.282  -2.187  -2.843  0.00  0.00    -0.153 OA
ATOM     13  O   UNL     1      -0.853  -2.246  -1.562  0.00  0.00    -0.153 OA
BRANCH  11  16
ATOM     14  C   UNL     1       1.381  -0.276  -5.163  0.00  0.00    +0.071 C 
ATOM     15  C   UNL     1      -0.041  -0.100  -4.699  0.00  0.00    +0.107 A 
ATOM     16  C   UNL     1      -0.609  -0.592  -3.501  0.00  0.00    +0.170 A 
ATOM     17  C   UNL     1      -1.897  -0.176  -3.554  0.00  0.00    +0.161 A 
ATOM     18  O   UNL     1      -2.028   0.507  -4.700  0.00  0.00    -0.358 OA
ATOM     19  N   UNL     1      -0.992   0.536  -5.322  0.00  0.00    -0.081 NA
ATOM     20  C   UNL     1      -2.969  -0.428  -2.526  0.00  0.00    +0.091 C 
ENDBRANCH  11  16
ENDBRANCH   5  11
ENDBRANCH   1   9
BRANCH   3  21
ATOM     21  N   UNL     1      -1.516   3.789   2.625  0.00  0.00    -0.230 N 
ATOM     22  C   UNL     1      -1.655   5.111   2.846  0.00  0.00    +0.267 C 
ATOM     23  O   UNL     1      -1.211   5.912   2.045  0.00  0.00    -0.268 OA
ATOM     24  H   UNL     1      -1.870   3.151   3.264  0.00  0.00    +0.173 HD
BRANCH  22  25
ATOM     25  C   UNL     1      -2.340   5.585   4.053  0.00  0.00    +0.076 A 
ATOM     26  C   UNL     1      -2.586   6.875   4.465  0.00  0.00    +0.024 A 
ATOM     27  C   UNL     1      -3.265   7.070   5.671  0.00  0.00    -0.036 A 
ATOM     28  C   UNL     1      -3.588   5.968   6.373  0.00  0.00    -0.006 A 
ATOM     29  S   UNL     1      -3.082   4.643   5.371  0.00  0.00    -0.088 S 
ATOM     30  C   UNL     1      -4.193   5.764   7.740  0.00  0.00    +0.043 C 
ATOM     31  C   UNL     1      -4.464   7.089   8.454  0.00  0.00    +0.005 C 
ATOM     32  C   UNL     1      -5.740   7.738   7.942  0.00  0.00    +0.000 C 
ATOM     33  C   UNL     1      -5.934   7.569   6.449  0.00  0.00    +0.000 C 
ATOM     34  C   UNL     1      -5.134   8.685   5.765  0.00  0.00    +0.005 C 
ATOM     35  C   UNL     1      -3.650   8.487   6.069  0.00  0.00    +0.036 C 
ENDBRANCH  22  25
ENDBRANCH   3  21
TORSDOF 5
