REMARK  Name = ZINC63752799
REMARK  7 active torsions:
REMARK  status: ('A' for Active; 'I' for Inactive)
REMARK    1  A    between atoms: C_1  and  C_2
REMARK    2  A    between atoms: C_7  and  C_22
REMARK    3  A    between atoms: C_9  and  N_12
REMARK    4  A    between atoms: C_13  and  C_15
REMARK    5  A    between atoms: N_27  and  C_30
REMARK    6  A    between atoms: C_35  and  O_36
REMARK    7  A    between atoms: O_36  and  C_37
REMARK                            x       y       z     vdW  Elec       q    Type
REMARK                         _______ _______ _______ _____ _____    ______ ____
ROOT
ATOM      1  C   UNL     1       1.848   1.072  -0.248  0.00  0.00    +0.044 C 
ATOM      2  C   UNL     1       1.332  -0.343  -0.196  0.00  0.00    -0.050 A 
ATOM      3  C   UNL     1       1.252  -1.083  -1.379  0.00  0.00    +0.005 A 
ATOM      4  C   UNL     1       0.796  -2.359  -1.395  0.00  0.00    +0.026 A 
ATOM      5  C   UNL     1       0.385  -2.978  -0.186  0.00  0.00    +0.045 A 
ATOM      6  N   UNL     1      -0.087  -4.183   0.060  0.00  0.00    -0.369 N 
ATOM      7  C   UNL     1      -0.357  -4.308   1.496  0.00  0.00    +0.211 C 
ATOM      8  C   UNL     1       0.024  -2.979   2.109  0.00  0.00    +0.051 C 
ATOM      9  C   UNL     1       0.471  -2.195   1.058  0.00  0.00    +0.018 A 
ATOM     10  C   UNL     1       0.962  -0.869   0.998  0.00  0.00    +0.015 A 
ATOM     11  H   UNL     1      -0.232  -4.877  -0.602  0.00  0.00    +0.161 HD
ENDROOT
BRANCH   7  12
ATOM     12  C   UNL     1      -1.820  -4.587   1.727  0.00  0.00    +0.244 C 
ATOM     13  O   UNL     1      -2.646  -4.184   0.935  0.00  0.00    -0.273 OA
ATOM     14  N   UNL     1      -2.210  -5.285   2.812  0.00  0.00    -0.296 N 
ATOM     15  C   UNL     1      -1.235  -5.674   3.841  0.00  0.00    +0.126 C 
ATOM     16  C   UNL     1      -1.720  -5.150   5.198  0.00  0.00    +0.124 C 
ATOM     17  N   UNL     1      -3.128  -5.534   5.374  0.00  0.00    -0.324 N 
ATOM     18  C   UNL     1      -4.102  -5.145   4.346  0.00  0.00    +0.124 C 
ATOM     19  C   UNL     1      -3.618  -5.664   2.991  0.00  0.00    +0.126 C 
BRANCH  17  20
ATOM     20  C   UNL     1      -3.533  -6.258   6.502  0.00  0.00    +0.072 A 
ATOM     21  C   UNL     1      -3.947  -5.591   7.645  0.00  0.00    +0.027 A 
ATOM     22  C   UNL     1      -4.347  -6.309   8.757  0.00  0.00    +0.002 A 
ATOM     23  C   UNL     1      -4.336  -7.691   8.732  0.00  0.00    +0.004 A 
ATOM     24  C   UNL     1      -3.924  -8.363   7.596  0.00  0.00    +0.047 A 
ATOM     25  C   UNL     1      -3.527  -7.651   6.476  0.00  0.00    +0.141 A 
BRANCH  25  26
ATOM     26  O   UNL     1      -3.127  -8.311   5.356  0.00  0.00    -0.493 OA
ATOM     27  C   UNL     1      -3.147  -9.739   5.402  0.00  0.00    +0.277 C 
ENDBRANCH  25  26
ENDBRANCH  17  20
ENDBRANCH   7  12
BRANCH   8  28
ATOM     28  N   UNL     1      -0.056  -2.627   3.421  0.00  0.00    -0.282 N 
ATOM     29  C   UNL     1      -0.184  -1.329   3.764  0.00  0.00    +0.248 C 
ATOM     30  O   UNL     1      -0.341  -0.486   2.903  0.00  0.00    -0.270 OA
ATOM     31  H   UNL     1      -0.020  -3.309   4.109  0.00  0.00    +0.155 HD
BRANCH  29  32
ATOM     32  C   UNL     1      -0.136  -0.933   5.185  0.00  0.00    +0.037 A 
ATOM     33  C   UNL     1      -0.041  -1.907   6.182  0.00  0.00    +0.016 A 
ATOM     34  C   UNL     1       0.005  -1.532   7.507  0.00  0.00    +0.039 A 
ATOM     35  C   UNL     1      -0.043  -0.190   7.852  0.00  0.00    +0.123 A 
ATOM     36  C   UNL     1      -0.138   0.782   6.867  0.00  0.00    +0.039 A 
ATOM     37  C   UNL     1      -0.178   0.418   5.538  0.00  0.00    +0.016 A 
ATOM     38  F   UNL     1       0.001   0.173   9.152  0.00  0.00    -0.205 F 
ENDBRANCH  29  32
ENDBRANCH   8  28
TORSDOF 5
