REMARK  Name = ZINC22471945
REMARK  8 active torsions:
REMARK  status: ('A' for Active; 'I' for Inactive)
REMARK    1  A    between atoms: C_4  and  C_7
REMARK    2  A    between atoms: C_7  and  C_8
REMARK    3  A    between atoms: N_10  and  C_11
REMARK    4  A    between atoms: C_11  and  C_12
REMARK    5  A    between atoms: N_14  and  C_15
REMARK    6  A    between atoms: C_19  and  C_21
REMARK    7  A    between atoms: N_23  and  C_24
REMARK    8  A    between atoms: C_28  and  C_30
REMARK                            x       y       z     vdW  Elec       q    Type
REMARK                         _______ _______ _______ _____ _____    ______ ____
ROOT
ATOM      1  C   UNL     1       2.222   9.495   0.458  0.00  0.00    +0.034 A 
ATOM      2  C   UNL     1       1.001  10.159   0.460  0.00  0.00    +0.023 A 
ATOM      3  C   UNL     1      -0.179   9.446   0.369  0.00  0.00    +0.003 A 
ATOM      4  C   UNL     1      -0.153   8.069   0.276  0.00  0.00    +0.013 A 
ATOM      5  C   UNL     1       1.068   7.393   0.273  0.00  0.00    +0.039 A 
ATOM      6  C   UNL     1       2.259   8.113   0.370  0.00  0.00    +0.036 A 
ENDROOT
BRANCH   1   9
ATOM      7  C   UNL     1       4.509   9.810  -0.119  0.00  0.00    +0.234 C 
ATOM      8  O   UNL     1       4.486   8.764  -0.734  0.00  0.00    -0.274 OA
ATOM      9  N   UNL     1       3.414  10.222   0.550  0.00  0.00    -0.284 N 
ATOM     10  H   UNL     1       3.458  11.131   1.169  0.00  0.00    +0.155 HD
BRANCH   7  11
ATOM     11  C   UNL     1       5.762  10.647  -0.104  0.00  0.00    +0.200 C 
BRANCH  11  14
ATOM     12  C   UNL     1       8.015  10.557  -1.028  0.00  0.00    +0.218 C 
ATOM     13  O   UNL     1       8.248  11.617  -0.486  0.00  0.00    -0.275 OA
ATOM     14  N   UNL     1       6.800   9.987  -0.899  0.00  0.00    -0.306 N 
ATOM     15  H   UNL     1       6.589   9.026  -1.391  0.00  0.00    +0.149 HD
BRANCH  12  16
ATOM     16  C   UNL     1       9.083   9.878  -1.846  0.00  0.00    +0.130 C 
BRANCH  16  20
ATOM     17  C   UNL     1      12.634  12.251  -1.803  0.00  0.00    +0.000 A 
ATOM     18  C   UNL     1      12.437  11.285  -0.834  0.00  0.00    +0.000 A 
ATOM     19  C   UNL     1      11.287  10.517  -0.848  0.00  0.00    +0.004 A 
ATOM     20  C   UNL     1      10.336  10.715  -1.831  0.00  0.00    -0.039 A 
ATOM     21  C   UNL     1      10.536  11.678  -2.803  0.00  0.00    +0.004 A 
ATOM     22  C   UNL     1      11.683  12.449  -2.786  0.00  0.00    +0.000 A 
ENDBRANCH  16  20
ENDBRANCH  12  16
ENDBRANCH  11  14
ENDBRANCH   7  11
ENDBRANCH   1   9
BRANCH   5  23
ATOM     23  C   UNL     1       1.098   5.918   0.174  0.00  0.00    +0.248 C 
ATOM     24  O   UNL     1       2.163   5.331   0.172  0.00  0.00    -0.270 OA
ATOM     25  N   UNL     1      -0.054   5.225   0.086  0.00  0.00    -0.281 N 
ATOM     26  H   UNL     1      -1.012   5.758   0.004  0.00  0.00    +0.155 HD
BRANCH  25  27
ATOM     27  C   UNL     1      -0.031   3.826   0.100  0.00  0.00    +0.034 A 
ATOM     28  C   UNL     1      -0.966   3.108  -0.635  0.00  0.00    +0.023 A 
ATOM     29  C   UNL     1      -0.941   1.727  -0.619  0.00  0.00    +0.002 A 
ATOM     30  C   UNL     1       0.013   1.060   0.128  0.00  0.00    +0.012 A 
ATOM     31  C   UNL     1       0.942   1.772   0.864  0.00  0.00    +0.057 A 
ATOM     32  C   UNL     1       0.926   3.153   0.848  0.00  0.00    +0.035 A 
BRANCH  31  33
ATOM     33  C   UNL     1       1.976   1.041   1.680  0.00  0.00    +0.417 C 
ATOM     34  F   UNL     1       1.796  -0.339   1.534  0.00  0.00    -0.166 F 
ATOM     35  F   UNL     1       3.255   1.393   1.236  0.00  0.00    -0.166 F 
ATOM     36  F   UNL     1       1.838   1.389   3.028  0.00  0.00    -0.166 F 
ENDBRANCH  31  33
ENDBRANCH  25  27
ENDBRANCH   5  23
TORSDOF 8
