REMARK  Name = ZINC12781442
REMARK  9 active torsions:
REMARK  status: ('A' for Active; 'I' for Inactive)
REMARK    1  A    between atoms: C_1  and  C_2
REMARK    2  A    between atoms: C_2  and  C_3
REMARK    3  A    between atoms: C_2  and  C_4
REMARK    4  A    between atoms: C_2  and  C_5
REMARK    5  A    between atoms: C_8  and  N_11
REMARK    6  A    between atoms: C_12  and  C_14
REMARK    7  A    between atoms: C_17  and  N_20
REMARK    8  A    between atoms: C_21  and  C_23
REMARK    9  A    between atoms: C_23  and  C_24
REMARK                            x       y       z     vdW  Elec       q    Type
REMARK                         _______ _______ _______ _____ _____    ______ ____
ROOT
ATOM      1  C   UNL     1       1.393   1.941  -0.141  0.00  0.00    +0.037 A 
ATOM      2  C   UNL     1       2.726   1.524  -0.190  0.00  0.00    +0.015 A 
ATOM      3  C   UNL     1       3.738   2.457  -0.223  0.00  0.00    +0.024 A 
ATOM      4  C   UNL     1       3.434   3.815  -0.195  0.00  0.00    +0.033 A 
ATOM      5  C   UNL     1       2.109   4.234  -0.141  0.00  0.00    +0.024 A 
ATOM      6  C   UNL     1       1.092   3.305  -0.113  0.00  0.00    +0.015 A 
ENDROOT
BRANCH   1   8
ATOM      7  N   UNL     1       0.599  -0.372  -0.139  0.00  0.00    -0.282 N 
ATOM      8  C   UNL     1       0.307   0.943  -0.112  0.00  0.00    +0.248 C 
ATOM      9  O   UNL     1      -0.853   1.308  -0.069  0.00  0.00    -0.270 OA
ATOM     10  H   UNL     1       1.518  -0.663  -0.250  0.00  0.00    +0.155 HD
BRANCH   7  14
ATOM     11  C   UNL     1      -2.444  -3.190   0.255  0.00  0.00    -0.042 A 
ATOM     12  C   UNL     1      -1.344  -3.468  -0.536  0.00  0.00    +0.006 A 
ATOM     13  C   UNL     1      -0.334  -2.536  -0.668  0.00  0.00    +0.023 A 
ATOM     14  C   UNL     1      -0.423  -1.318  -0.006  0.00  0.00    +0.034 A 
ATOM     15  C   UNL     1      -1.526  -1.044   0.792  0.00  0.00    +0.023 A 
ATOM     16  C   UNL     1      -2.536  -1.978   0.915  0.00  0.00    +0.006 A 
BRANCH  11  18
ATOM     17  C   UNL     1      -2.974  -5.496   0.996  0.00  0.00    +0.015 C 
ATOM     18  C   UNL     1      -3.545  -4.209   0.397  0.00  0.00    -0.013 C 
ATOM     19  C   UNL     1      -4.635  -3.657   1.319  0.00  0.00    +0.015 C 
ATOM     20  C   UNL     1      -4.144  -4.508  -0.978  0.00  0.00    +0.015 C 
ENDBRANCH  11  18
ENDBRANCH   7  14
ENDBRANCH   1   8
BRANCH   4  21
ATOM     21  N   UNL     1       4.461   4.758  -0.222  0.00  0.00    -0.285 N 
ATOM     22  C   UNL     1       4.279   5.934  -0.853  0.00  0.00    +0.219 C 
ATOM     23  O   UNL     1       3.259   6.137  -1.477  0.00  0.00    -0.275 OA
ATOM     24  H   UNL     1       5.307   4.567   0.213  0.00  0.00    +0.155 HD
BRANCH  22  25
ATOM     25  C   UNL     1       5.344   6.999  -0.785  0.00  0.00    +0.120 C 
BRANCH  25  26
ATOM     26  C   UNL     1       4.891   8.225  -1.579  0.00  0.00    +0.150 C 
ATOM     27  C   UNL     1       5.897   9.364  -1.468  0.00  0.00    +0.252 C 
ATOM     28  O   UNL     1       7.041   9.278  -1.871  0.00  0.00    -0.272 OA
ATOM     29  N   UNL     1       5.423  10.441  -0.899  0.00  0.00    -0.158 NA
ATOM     30  C   UNL     1       4.184  10.562  -0.451  0.00  0.00    +0.150 C 
ATOM     31  S   UNL     1       3.438   9.033  -0.797  0.00  0.00    -0.080 S 
ATOM     32  N   UNL     1       3.618  11.647   0.152  0.00  0.00    -0.312 N 
ATOM     33  C   UNL     1       2.216  11.614   0.588  0.00  0.00    +0.107 C 
ATOM     34  C   UNL     1       2.157  12.007   2.072  0.00  0.00    +0.019 C 
ATOM     35  C   UNL     1       2.843  13.362   2.263  0.00  0.00    +0.003 C 
ATOM     36  C   UNL     1       4.313  13.253   1.852  0.00  0.00    +0.019 C 
ATOM     37  C   UNL     1       4.398  12.873   0.371  0.00  0.00    +0.107 C 
ENDBRANCH  25  26
ENDBRANCH  22  25
ENDBRANCH   4  21
TORSDOF 6
