REMARK  Name = ZINC20119145
REMARK  8 active torsions:
REMARK  status: ('A' for Active; 'I' for Inactive)
REMARK    1  A    between atoms: C_1  and  C_2
REMARK    2  A    between atoms: C_2  and  C_4
REMARK    3  A    between atoms: C_2  and  N_10
REMARK    4  A    between atoms: C_11  and  C_13
REMARK    5  A    between atoms: C_16  and  N_19
REMARK    6  A    between atoms: N_19  and  C_20
REMARK    7  A    between atoms: C_20  and  N_22
REMARK    8  A    between atoms: C_23  and  C_25
REMARK                            x       y       z     vdW  Elec       q    Type
REMARK                         _______ _______ _______ _____ _____    ______ ____
ROOT
ATOM      1  C   UNL     1      -4.628   0.011  -0.139  0.00  0.00    +0.037 A 
ATOM      2  C   UNL     1      -4.734   1.404  -0.158  0.00  0.00    +0.015 A 
ATOM      3  C   UNL     1      -3.598   2.180  -0.105  0.00  0.00    +0.024 A 
ATOM      4  C   UNL     1      -2.345   1.578  -0.033  0.00  0.00    +0.033 A 
ATOM      5  C   UNL     1      -2.236   0.190  -0.020  0.00  0.00    +0.024 A 
ATOM      6  C   UNL     1      -3.369  -0.591  -0.067  0.00  0.00    +0.015 A 
ENDROOT
BRANCH   1   8
ATOM      7  N   UNL     1      -5.741  -2.168  -0.177  0.00  0.00    -0.305 N 
ATOM      8  C   UNL     1      -5.844  -0.824  -0.195  0.00  0.00    +0.245 C 
ATOM      9  O   UNL     1      -6.939  -0.299  -0.258  0.00  0.00    -0.270 OA
ATOM     10  H   UNL     1      -4.750  -2.642  -0.120  0.00  0.00    +0.150 HD
BRANCH   7  12
ATOM     11  C   UNL     1      -7.514  -3.167   1.178  0.00  0.00    +0.033 C 
ATOM     12  C   UNL     1      -6.948  -2.996  -0.233  0.00  0.00    +0.100 C 
BRANCH  12  13
ATOM     13  C   UNL     1      -6.603  -4.348  -0.803  0.00  0.00    -0.027 A 
ATOM     14  C   UNL     1      -5.420  -4.968  -0.446  0.00  0.00    +0.005 A 
ATOM     15  C   UNL     1      -5.107  -6.209  -0.966  0.00  0.00    +0.000 A 
ATOM     16  C   UNL     1      -5.971  -6.827  -1.850  0.00  0.00    +0.000 A 
ATOM     17  C   UNL     1      -7.152  -6.205  -2.211  0.00  0.00    +0.000 A 
ATOM     18  C   UNL     1      -7.468  -4.965  -1.688  0.00  0.00    +0.005 A 
ENDBRANCH  12  13
ENDBRANCH   7  12
ENDBRANCH   1   8
BRANCH   4  19
ATOM     19  N   UNL     1      -1.197   2.366   0.021  0.00  0.00    -0.297 N 
ATOM     20  H   UNL     1      -1.111   3.255  -0.621  0.00  0.00    +0.154 HD
BRANCH  19  21
ATOM     21  C   UNL     1      -0.194   2.038   0.858  0.00  0.00    +0.141 C 
ATOM     22  S   UNL     1      -0.385   0.739   1.957  0.00  0.00    -0.018 S 
BRANCH  21  23
ATOM     23  N   UNL     1       0.963   2.729   0.827  0.00  0.00    -0.264 N 
ATOM     24  C   UNL     1       1.969   2.398   1.661  0.00  0.00    +0.251 C 
ATOM     25  O   UNL     1       1.833   1.476   2.441  0.00  0.00    -0.270 OA
ATOM     26  H   UNL     1       1.086   3.564   0.121  0.00  0.00    +0.157 HD
BRANCH  24  27
ATOM     27  C   UNL     1       3.236   3.156   1.626  0.00  0.00    +0.055 A 
ATOM     28  C   UNL     1       3.395   4.216   0.731  0.00  0.00    +0.016 A 
ATOM     29  C   UNL     1       4.580   4.920   0.704  0.00  0.00    +0.021 A 
ATOM     30  C   UNL     1       5.613   4.577   1.562  0.00  0.00    +0.042 A 
ATOM     31  C   UNL     1       5.463   3.527   2.451  0.00  0.00    +0.040 A 
ATOM     32  C   UNL     1       4.279   2.819   2.494  0.00  0.00    +0.054 A 
ATOM     33 CL   UNL     1       4.089   1.507   3.615  0.00  0.00    -0.083 Cl
ATOM     34 CL   UNL     1       7.102   5.469   1.520  0.00  0.00    -0.083 Cl
ENDBRANCH  24  27
ENDBRANCH  21  23
ENDBRANCH  19  21
ENDBRANCH   4  19
TORSDOF 7
