REMARK  Name = ZINC33810219
REMARK  6 active torsions:
REMARK  status: ('A' for Active; 'I' for Inactive)
REMARK    1  A    between atoms: C_1  and  C_2
REMARK    2  A    between atoms: C_5  and  C_8
REMARK    3  A    between atoms: C_8  and  S_9
REMARK    4  A    between atoms: S_9  and  C_10
REMARK    5  A    between atoms: C_20  and  C_22
REMARK    6  A    between atoms: C_27  and  N_28
REMARK                            x       y       z     vdW  Elec       q    Type
REMARK                         _______ _______ _______ _____ _____    ______ ____
ROOT
ATOM      1  C   UNL     1      -1.305  -6.198   2.330  0.00  0.00    +0.194 A 
ATOM      2  N   UNL     1      -2.101  -7.221   2.054  0.00  0.00    -0.183 NA
ATOM      3  C   UNL     1      -1.621  -8.329   1.498  0.00  0.00    +0.280 A 
ATOM      4  O   UNL     1      -2.442  -9.371   1.219  0.00  0.00    -0.265 OA
ATOM      5  C   UNL     1      -0.264  -8.401   1.206  0.00  0.00    +0.071 A 
ATOM      6  C   UNL     1       0.539  -7.309   1.507  0.00  0.00    +0.135 A 
ATOM      7  N   UNL     1      -0.007  -6.231   2.060  0.00  0.00    -0.206 NA
ATOM      8  N   UNL     1       1.893  -7.353   1.220  0.00  0.00    -0.302 N 
ATOM      9  C   UNL     1       2.383  -8.258   0.318  0.00  0.00    +0.017 C 
ATOM     10  C   UNL     1       1.672  -9.352  -0.026  0.00  0.00    +0.024 C 
ATOM     11  C   UNL     1       0.320  -9.633   0.582  0.00  0.00    +0.095 C 
ATOM     12  C   UNL     1       2.168 -10.270  -0.968  0.00  0.00    +0.162 C 
ATOM     13  O   UNL     1       1.507 -11.250  -1.250  0.00  0.00    -0.292 OA
ATOM     14  C   UNL     1       3.501 -10.065  -1.634  0.00  0.00    +0.080 C 
ATOM     15  C   UNL     1       3.800  -8.563  -1.699  0.00  0.00    +0.014 C 
ATOM     16  C   UNL     1       3.745  -7.997  -0.279  0.00  0.00    +0.051 C 
ATOM     17  H   UNL     1       2.499  -6.738   1.662  0.00  0.00    +0.153 HD
ENDROOT
BRANCH  11  18
ATOM     18  C   UNL     1       0.465 -10.699   1.637  0.00  0.00    -0.001 A 
ATOM     19  C   UNL     1       1.355 -10.521   2.680  0.00  0.00    +0.056 A 
ATOM     20  C   UNL     1       1.490 -11.500   3.650  0.00  0.00    +0.167 A 
ATOM     21  C   UNL     1       0.727 -12.663   3.573  0.00  0.00    +0.168 A 
ATOM     22  C   UNL     1      -0.163 -12.834   2.525  0.00  0.00    +0.082 A 
ATOM     23  C   UNL     1      -0.297 -11.850   1.563  0.00  0.00    +0.134 A 
ATOM     24  O   UNL     1       1.040 -13.461   4.634  0.00  0.00    -0.453 OA
ATOM     25  C   UNL     1       2.293 -12.961   5.136  0.00  0.00    +0.466 C 
ATOM     26  O   UNL     1       2.281 -11.571   4.760  0.00  0.00    -0.453 OA
BRANCH  23  27
ATOM     27  N   UNL     1      -1.253 -12.032   0.448  0.00  0.00    +0.057 N 
ATOM     28  O   UNL     1      -2.357 -12.474   0.665  0.00  0.00    -0.126 OA
ATOM     29  O   UNL     1      -0.930 -11.739  -0.680  0.00  0.00    -0.126 OA
ENDBRANCH  23  27
ENDBRANCH  11  18
BRANCH   1  30
ATOM     30  S   UNL     1      -1.990  -4.752   3.069  0.00  0.00    -0.081 S 
BRANCH  30  31
ATOM     31  C   UNL     1      -3.751  -5.146   3.253  0.00  0.00    +0.112 C 
BRANCH  31  36
ATOM     32  C   UNL     1      -6.489  -0.666   5.666  0.00  0.00    +0.044 C 
ATOM     33  C   UNL     1      -5.775  -1.834   5.037  0.00  0.00    -0.050 A 
ATOM     34  C   UNL     1      -5.662  -1.916   3.661  0.00  0.00    +0.003 A 
ATOM     35  C   UNL     1      -5.006  -2.987   3.084  0.00  0.00    +0.005 A 
ATOM     36  C   UNL     1      -4.465  -3.978   3.882  0.00  0.00    -0.037 A 
ATOM     37  C   UNL     1      -4.577  -3.896   5.258  0.00  0.00    +0.005 A 
ATOM     38  C   UNL     1      -5.229  -2.822   5.835  0.00  0.00    +0.003 A 
ENDBRANCH  31  36
ENDBRANCH  30  31
ENDBRANCH   1  30
TORSDOF 5
