REMARK  Name = ZINC50987589
REMARK  3 active torsions:
REMARK  status: ('A' for Active; 'I' for Inactive)
REMARK    1  A    between atoms: C_2  and  C_3
REMARK    2  A    between atoms: C_3  and  N_4
REMARK    3  A    between atoms: C_7  and  C_10
REMARK                            x       y       z     vdW  Elec       q    Type
REMARK                         _______ _______ _______ _____ _____    ______ ____
ROOT
ATOM      1  N   UNL     1       1.367  -1.676   1.111  0.00  0.00    -0.277 N 
ATOM      2  C   UNL     1       0.941  -2.973   1.071  0.00  0.00    +0.160 C 
ATOM      3  N   UNL     1       1.089  -3.594   2.187  0.00  0.00    -0.366 N 
ATOM      4  C   UNL     1       1.686  -2.661   3.155  0.00  0.00    +0.172 C 
ATOM      5  C   UNL     1       1.857  -1.377   2.365  0.00  0.00    +0.101 C 
ATOM      6  N   UNL     1       2.350  -0.255   2.775  0.00  0.00    -0.388 N 
ATOM      7  H   UNL     1       2.405   0.501   2.170  0.00  0.00    +0.157 HD
ATOM      8  H   UNL     1       2.665  -0.169   3.689  0.00  0.00    +0.157 HD
ATOM      9  H   UNL     1       0.848  -4.517   2.361  0.00  0.00    +0.161 HD
ENDROOT
BRANCH   4  10
ATOM     10  C   UNL     1       0.761  -2.448   4.325  0.00  0.00    -0.013 A 
ATOM     11  C   UNL     1       1.278  -2.333   5.602  0.00  0.00    +0.055 A 
ATOM     12  C   UNL     1       0.429  -2.137   6.681  0.00  0.00    +0.164 A 
ATOM     13  C   UNL     1      -0.943  -2.053   6.475  0.00  0.00    +0.176 A 
ATOM     14  C   UNL     1      -1.456  -2.170   5.191  0.00  0.00    +0.063 A 
ATOM     15  C   UNL     1      -0.603  -2.361   4.119  0.00  0.00    +0.025 A 
ATOM     16 BR   UNL     1      -3.322  -2.061   4.906  0.00  0.00    -0.046 Br
ATOM     17  O   UNL     1      -1.793  -1.853   7.519  0.00  0.00    -0.484 OA
ATOM     18  C   UNL     1      -1.277  -2.113   8.829  0.00  0.00    +0.270 C 
ATOM     19  C   UNL     1       0.108  -1.460   8.938  0.00  0.00    +0.270 C 
ATOM     20  O   UNL     1       0.953  -2.030   7.933  0.00  0.00    -0.485 OA
ENDBRANCH   4  10
BRANCH   1  21
ATOM     21  C   UNL     1       1.317  -0.740  -0.015  0.00  0.00    +0.139 C 
BRANCH  21  23
ATOM     22  C   UNL     1      -0.016   1.306   0.009  0.00  0.00    +0.005 C 
ATOM     23  C   UNL     1       0.002  -0.004   0.002  0.00  0.00    -0.015 C 
ENDBRANCH  21  23
ENDBRANCH   1  21
TORSDOF 3
