REMARK  Name = ZINC59434887
REMARK  7 active torsions:
REMARK  status: ('A' for Active; 'I' for Inactive)
REMARK    1  A    between atoms: C_1  and  C_2
REMARK    2  A    between atoms: C_9  and  S_11
REMARK    3  A    between atoms: S_11  and  C_12
REMARK    4  A    between atoms: C_12  and  C_13
REMARK    5  A    between atoms: N_15  and  C_16
REMARK    6  A    between atoms: C_19  and  O_23
REMARK    7  A    between atoms: O_23  and  C_24
REMARK                            x       y       z     vdW  Elec       q    Type
REMARK                         _______ _______ _______ _____ _____    ______ ____
ROOT
ATOM      1  C   UNL     1       0.123  -8.427   1.625  0.00  0.00    +0.228 C 
ATOM      2  O   UNL     1       0.136  -8.584   2.828  0.00  0.00    -0.275 OA
ATOM      3  N   UNL     1       0.139  -9.496   0.805  0.00  0.00    -0.284 N 
ATOM      4  H   UNL     1       0.062  -9.373  -0.154  0.00  0.00    +0.155 HD
ENDROOT
BRANCH   3   5
ATOM      5  C   UNL     1       0.266 -10.786   1.339  0.00  0.00    +0.049 A 
ATOM      6  C   UNL     1      -0.314 -11.092   2.562  0.00  0.00    +0.043 A 
ATOM      7  C   UNL     1      -0.189 -12.364   3.087  0.00  0.00    +0.061 A 
ATOM      8  C   UNL     1       0.517 -13.336   2.392  0.00  0.00    +0.135 A 
ATOM      9  C   UNL     1       1.097 -13.031   1.170  0.00  0.00    +0.064 A 
ATOM     10  C   UNL     1       0.968 -11.761   0.641  0.00  0.00    +0.043 A 
ATOM     11 BR   UNL     1       1.752 -11.347  -1.030  0.00  0.00    -0.048 Br
ATOM     12 BR   UNL     1      -0.979 -12.780   4.754  0.00  0.00    -0.046 Br
BRANCH   8  13
ATOM     13  O   UNL     1       0.640 -14.587   2.909  0.00  0.00    -0.494 OA
ATOM     14  C   UNL     1       1.380 -15.537   2.139  0.00  0.00    +0.277 C 
ENDBRANCH   8  13
ENDBRANCH   3   5
BRANCH   1  15
ATOM     15  C   UNL     1       0.088  -7.035   1.048  0.00  0.00    +0.173 C 
BRANCH  15  16
ATOM     16  S   UNL     1       0.073  -5.821   2.396  0.00  0.00    -0.079 S 
BRANCH  16  25
ATOM     17  C   UNL     1      -0.100   1.502   0.015  0.00  0.00    +0.044 C 
ATOM     18  C   UNL     1      -0.069  -0.005   0.006  0.00  0.00    -0.048 A 
ATOM     19  C   UNL     1      -0.063  -0.687  -1.202  0.00  0.00    +0.005 A 
ATOM     20  C   UNL     1      -0.034  -2.063  -1.227  0.00  0.00    +0.030 A 
ATOM     21  C   UNL     1      -0.011  -2.779  -0.028  0.00  0.00    +0.090 A 
ATOM     22  C   UNL     1      -0.016  -2.083   1.193  0.00  0.00    +0.067 A 
ATOM     23  C   UNL     1      -0.040  -0.697   1.199  0.00  0.00    +0.031 A 
ATOM     24  N   UNL     1       0.012  -3.048   2.187  0.00  0.00    -0.333 N 
ATOM     25  C   UNL     1       0.033  -4.266   1.568  0.00  0.00    +0.168 A 
ATOM     26  N   UNL     1       0.020  -4.105   0.268  0.00  0.00    -0.222 NA
ATOM     27  H   UNL     1       0.016  -2.888   3.143  0.00  0.00    +0.168 HD
ENDBRANCH  16  25
ENDBRANCH  15  16
ENDBRANCH   1  15
TORSDOF 5
