REMARK  Name = ZINC16608357
REMARK  10 active torsions:
REMARK  status: ('A' for Active; 'I' for Inactive)
REMARK    1  A    between atoms: C_1  and  O_2
REMARK    2  A    between atoms: O_2  and  C_3
REMARK    3  A    between atoms: C_5  and  N_11
REMARK    4  A    between atoms: C_7  and  O_9
REMARK    5  A    between atoms: O_9  and  C_10
REMARK    6  A    between atoms: N_14  and  C_15
REMARK    7  A    between atoms: C_15  and  C_17
REMARK    8  A    between atoms: C_15  and  C_24
REMARK    9  A    between atoms: C_17  and  C_18
REMARK   10  A    between atoms: C_30  and  C_32
REMARK                            x       y       z     vdW  Elec       q    Type
REMARK                         _______ _______ _______ _____ _____    ______ ____
ROOT
ATOM      1  C   UNL     1       4.711   5.619  -0.327  0.00  0.00    +0.165 C 
ENDROOT
BRANCH   1   2
ATOM      2  C   UNL     1       5.959   6.088  -1.027  0.00  0.00    +0.239 C 
ATOM      3  O   UNL     1       6.783   5.282  -1.404  0.00  0.00    -0.273 OA
ATOM      4  N   UNL     1       6.161   7.404  -1.236  0.00  0.00    -0.262 N 
ATOM      5  C   UNL     1       7.312   7.837  -1.882  0.00  0.00    +0.188 A 
ATOM      6  N   UNL     1       8.332   7.140  -2.365  0.00  0.00    -0.125 NA
ATOM      7  N   UNL     1       9.310   7.696  -2.935  0.00  0.00    -0.140 NA
ATOM      8  C   UNL     1       9.383   9.014  -3.075  0.00  0.00    +0.134 A 
ATOM      9  S   UNL     1       7.845   9.496  -2.294  0.00  0.00    -0.030 S 
ATOM     10  H   UNL     1       5.502   8.049  -0.935  0.00  0.00    +0.157 HD
BRANCH   8  11
ATOM     11  C   UNL     1      10.434   9.847  -3.698  0.00  0.00    +0.009 A 
ATOM     12  C   UNL     1      10.295  11.235  -3.738  0.00  0.00    +0.013 A 
ATOM     13  C   UNL     1      11.280  12.007  -4.316  0.00  0.00    +0.039 A 
ATOM     14  C   UNL     1      12.402  11.407  -4.867  0.00  0.00    +0.123 A 
ATOM     15  C   UNL     1      12.542  10.028  -4.834  0.00  0.00    +0.039 A 
ATOM     16  C   UNL     1      11.565   9.247  -4.254  0.00  0.00    +0.013 A 
ATOM     17  F   UNL     1      13.361  12.167  -5.437  0.00  0.00    -0.205 F 
ENDBRANCH   8  11
ENDBRANCH   1   2
BRANCH   1  21
ATOM     18  N   UNL     1       3.588   2.131  -0.020  0.00  0.00    -0.269 N 
ATOM     19  C   UNL     1       3.571   3.475  -0.115  0.00  0.00    +0.304 C 
ATOM     20  O   UNL     1       2.513   4.072  -0.103  0.00  0.00    -0.252 OA
ATOM     21  N   UNL     1       4.729   4.157  -0.224  0.00  0.00    -0.288 N 
ATOM     22  H   UNL     1       4.433   1.660   0.048  0.00  0.00    +0.156 HD
ATOM     23  H   UNL     1       5.574   3.681  -0.233  0.00  0.00    +0.151 HD
BRANCH  18  26
ATOM     24  C   UNL     1       1.083  -0.465   0.719  0.00  0.00    +0.125 A 
ATOM     25  C   UNL     1       2.275   0.245   0.720  0.00  0.00    +0.069 A 
ATOM     26  C   UNL     1       2.386   1.414  -0.020  0.00  0.00    +0.042 A 
ATOM     27  C   UNL     1       1.304   1.873  -0.759  0.00  0.00    +0.069 A 
ATOM     28  C   UNL     1       0.114   1.162  -0.759  0.00  0.00    +0.125 A 
ATOM     29  C   UNL     1       0.003  -0.006  -0.020  0.00  0.00    +0.091 A 
BRANCH  24  31
ATOM     30  C   UNL     1      -0.285  -2.283   1.406  0.00  0.00    +0.277 C 
ATOM     31  O   UNL     1       0.973  -1.607   1.447  0.00  0.00    -0.495 OA
ENDBRANCH  24  31
BRANCH  28  32
ATOM     32  O   UNL     1      -0.945   1.611  -1.483  0.00  0.00    -0.495 OA
ATOM     33  C   UNL     1      -2.140   0.829  -1.437  0.00  0.00    +0.277 C 
ENDBRANCH  28  32
ENDBRANCH  18  26
ENDBRANCH   1  21
BRANCH   1  34
ATOM     34  C   UNL     1       4.653   6.228   1.076  0.00  0.00    +0.067 C 
BRANCH  34  35
ATOM     35  C   UNL     1       3.347   5.858   1.731  0.00  0.00    -0.045 A 
ATOM     36  C   UNL     1       2.244   6.679   1.586  0.00  0.00    +0.004 A 
ATOM     37  C   UNL     1       1.045   6.338   2.183  0.00  0.00    +0.000 A 
ATOM     38  C   UNL     1       0.952   5.181   2.933  0.00  0.00    +0.000 A 
ATOM     39  C   UNL     1       2.056   4.362   3.082  0.00  0.00    +0.000 A 
ATOM     40  C   UNL     1       3.253   4.701   2.481  0.00  0.00    +0.004 A 
ENDBRANCH  34  35
ENDBRANCH   1  34
TORSDOF 8
