REMARK  Name = ZINC03318397
REMARK  12 active torsions:
REMARK  status: ('A' for Active; 'I' for Inactive)
REMARK    1  A    between atoms: C_1  and  C_2
REMARK    2  A    between atoms: C_5  and  N_8
REMARK    3  A    between atoms: C_9  and  C_37
REMARK    4  A    between atoms: C_11  and  C_14
REMARK    5  A    between atoms: C_12  and  C_13
REMARK    6  A    between atoms: N_15  and  N_16
REMARK    7  A    between atoms: C_17  and  C_19
REMARK    8  A    between atoms: C_23  and  S_25
REMARK    9  A    between atoms: S_25  and  N_28
REMARK   10  A    between atoms: N_28  and  C_29
REMARK   11  A    between atoms: C_32  and  O_35
REMARK   12  A    between atoms: O_35  and  C_36
REMARK                            x       y       z     vdW  Elec       q    Type
REMARK                         _______ _______ _______ _____ _____    ______ ____
ROOT
ATOM      1  N   UNL     1      -2.326  -0.536  -0.370  0.00  0.00    -0.203 N 
ATOM      2  C   UNL     1      -2.073  -1.858  -0.289  0.00  0.00    +0.263 C 
ATOM      3  O   UNL     1      -0.924  -2.256  -0.246  0.00  0.00    -0.268 OA
ATOM      4  H   UNL     1      -3.242  -0.219  -0.405  0.00  0.00    +0.178 HD
ENDROOT
BRANCH   2   5
ATOM      5  C   UNL     1      -3.191  -2.823  -0.254  0.00  0.00    +0.040 A 
ATOM      6  C   UNL     1      -4.511  -2.369  -0.298  0.00  0.00    +0.013 A 
ATOM      7  C   UNL     1      -5.550  -3.276  -0.269  0.00  0.00    +0.003 A 
ATOM      8  C   UNL     1      -5.287  -4.632  -0.186  0.00  0.00    +0.029 A 
ATOM      9  C   UNL     1      -3.982  -5.088  -0.136  0.00  0.00    +0.109 A 
ATOM     10  C   UNL     1      -2.933  -4.192  -0.169  0.00  0.00    +0.042 A 
BRANCH   9  11
ATOM     11  S   UNL     1      -3.658  -6.817  -0.030  0.00  0.00    +0.072 S 
ATOM     12  O   UNL     1      -4.844  -7.479  -0.447  0.00  0.00    -0.150 OA
ATOM     13  O   UNL     1      -2.403  -7.035  -0.660  0.00  0.00    -0.150 OA
BRANCH  11  14
ATOM     14  N   UNL     1      -3.452  -7.179   1.573  0.00  0.00    -0.216 N 
ATOM     15  H   UNL     1      -2.598  -7.512   1.889  0.00  0.00    +0.174 HD
BRANCH  14  16
ATOM     16  C   UNL     1      -4.511  -7.005   2.471  0.00  0.00    +0.048 A 
ATOM     17  C   UNL     1      -4.495  -5.944   3.366  0.00  0.00    +0.028 A 
ATOM     18  C   UNL     1      -5.543  -5.770   4.248  0.00  0.00    +0.047 A 
ATOM     19  C   UNL     1      -6.606  -6.661   4.248  0.00  0.00    +0.120 A 
ATOM     20  C   UNL     1      -6.620  -7.725   3.358  0.00  0.00    +0.047 A 
ATOM     21  C   UNL     1      -5.575  -7.897   2.471  0.00  0.00    +0.028 A 
BRANCH  19  22
ATOM     22  O   UNL     1      -7.635  -6.492   5.122  0.00  0.00    -0.495 OA
ATOM     23  C   UNL     1      -7.555  -5.376   6.010  0.00  0.00    +0.277 C 
ENDBRANCH  19  22
ENDBRANCH  14  16
ENDBRANCH  11  14
ENDBRANCH   9  11
ENDBRANCH   2   5
BRANCH   1  25
ATOM     24  C   UNL     1      -1.509   1.652  -0.483  0.00  0.00    +0.140 C 
ATOM     25  N   UNL     1      -1.266   0.379  -0.405  0.00  0.00    -0.187 NA
BRANCH  24  29
ATOM     26  N   UNL     1       1.632   3.495  -0.532  0.00  0.00    -0.317 N 
ATOM     27  C   UNL     1       0.765   4.548  -0.609  0.00  0.00    +0.022 A 
ATOM     28  C   UNL     1      -0.495   4.075  -0.605  0.00  0.00    +0.032 A 
ATOM     29  C   UNL     1      -0.394   2.615  -0.519  0.00  0.00    +0.016 A 
ATOM     30  C   UNL     1       0.940   2.325  -0.472  0.00  0.00    +0.030 A 
ATOM     31  C   UNL     1       1.542   0.947  -0.375  0.00  0.00    +0.064 C 
ATOM     32  C   UNL     1       1.155   6.001  -0.686  0.00  0.00    +0.064 C 
BRANCH  26  37
ATOM     33  C   UNL     1       7.290   3.938  -0.454  0.00  0.00    +0.044 C 
ATOM     34  C   UNL     1       5.787   3.820  -0.474  0.00  0.00    -0.050 A 
ATOM     35  C   UNL     1       5.041   4.334   0.570  0.00  0.00    +0.005 A 
ATOM     36  C   UNL     1       3.664   4.228   0.553  0.00  0.00    +0.026 A 
ATOM     37  C   UNL     1       3.029   3.605  -0.513  0.00  0.00    +0.047 A 
ATOM     38  C   UNL     1       3.782   3.086  -1.558  0.00  0.00    +0.026 A 
ATOM     39  C   UNL     1       5.159   3.199  -1.538  0.00  0.00    +0.005 A 
ENDBRANCH  26  37
ENDBRANCH  24  29
ENDBRANCH   1  25
TORSDOF 8
