REMARK  Name = ZINC09886244
REMARK  9 active torsions:
REMARK  status: ('A' for Active; 'I' for Inactive)
REMARK    1  A    between atoms: C_1  and  C_2
REMARK    2  A    between atoms: C_7  and  C_8
REMARK    3  A    between atoms: C_10  and  C_12
REMARK    4  A    between atoms: C_15  and  O_34
REMARK    5  A    between atoms: C_16  and  N_18
REMARK    6  A    between atoms: N_18  and  C_19
REMARK    7  A    between atoms: C_19  and  N_21
REMARK    8  A    between atoms: C_22  and  C_24
REMARK    9  A    between atoms: O_34  and  C_35
REMARK                            x       y       z     vdW  Elec       q    Type
REMARK                         _______ _______ _______ _____ _____    ______ ____
ROOT
ATOM      1  C   UNL     1       8.486  -4.861  -0.303  0.00  0.00    +0.039 A 
ATOM      2  C   UNL     1       8.434  -6.253  -0.407  0.00  0.00    +0.017 A 
ATOM      3  C   UNL     1       7.217  -6.901  -0.401  0.00  0.00    +0.048 A 
ATOM      4  C   UNL     1       6.041  -6.174  -0.287  0.00  0.00    +0.141 A 
ATOM      5  C   UNL     1       6.084  -4.783  -0.189  0.00  0.00    +0.076 A 
ATOM      6  C   UNL     1       7.303  -4.127  -0.194  0.00  0.00    +0.040 A 
ENDROOT
BRANCH   1  16
ATOM      7  C   UNL     1      14.188  -0.177  -0.205  0.00  0.00    +0.044 C 
ATOM      8  C   UNL     1      13.390  -1.454  -0.266  0.00  0.00    -0.045 A 
ATOM      9  C   UNL     1      12.016  -1.406  -0.200  0.00  0.00    +0.035 A 
ATOM     10  C   UNL     1      11.277  -2.590  -0.256  0.00  0.00    +0.110 A 
ATOM     11  C   UNL     1      11.945  -3.820  -0.380  0.00  0.00    +0.156 A 
ATOM     12  C   UNL     1      13.329  -3.849  -0.444  0.00  0.00    +0.052 A 
ATOM     13  C   UNL     1      14.045  -2.670  -0.388  0.00  0.00    -0.044 A 
ATOM     14  C   UNL     1      15.550  -2.705  -0.459  0.00  0.00    +0.044 C 
ATOM     15  O   UNL     1      10.987  -4.773  -0.408  0.00  0.00    -0.435 OA
ATOM     16  C   UNL     1       9.789  -4.166  -0.308  0.00  0.00    +0.228 A 
ATOM     17  N   UNL     1       9.949  -2.869  -0.222  0.00  0.00    -0.209 NA
ENDBRANCH   1  16
BRANCH   5  18
ATOM     18  N   UNL     1       4.895  -4.051  -0.080  0.00  0.00    -0.294 N 
ATOM     19  H   UNL     1       4.211  -4.328   0.550  0.00  0.00    +0.154 HD
BRANCH  18  20
ATOM     20  C   UNL     1       4.700  -2.962  -0.850  0.00  0.00    +0.141 C 
ATOM     21  S   UNL     1       5.950  -2.409  -1.881  0.00  0.00    -0.018 S 
BRANCH  20  22
ATOM     22  N   UNL     1       3.522  -2.308  -0.808  0.00  0.00    -0.264 N 
ATOM     23  C   UNL     1       3.328  -1.220  -1.578  0.00  0.00    +0.250 C 
ATOM     24  O   UNL     1       4.216  -0.827  -2.311  0.00  0.00    -0.270 OA
ATOM     25  H   UNL     1       2.814  -2.622  -0.224  0.00  0.00    +0.157 HD
BRANCH  23  26
ATOM     26  C   UNL     1       2.039  -0.504  -1.533  0.00  0.00    +0.041 A 
ATOM     27  C   UNL     1       1.018  -0.954  -0.692  0.00  0.00    +0.017 A 
ATOM     28  C   UNL     1      -0.185  -0.284  -0.652  0.00  0.00    +0.050 A 
ATOM     29  C   UNL     1      -0.389   0.839  -1.446  0.00  0.00    +0.162 A 
ATOM     30  C   UNL     1       0.626   1.294  -2.284  0.00  0.00    +0.163 A 
ATOM     31  C   UNL     1       1.836   0.625  -2.330  0.00  0.00    +0.062 A 
ATOM     32  O   UNL     1       0.445   2.397  -3.061  0.00  0.00    -0.485 OA
ATOM     33  C   UNL     1      -0.905   2.824  -3.268  0.00  0.00    +0.270 C 
ATOM     34  C   UNL     1      -1.626   2.814  -1.913  0.00  0.00    +0.270 C 
ATOM     35  O   UNL     1      -1.587   1.479  -1.396  0.00  0.00    -0.485 OA
ENDBRANCH  23  26
ENDBRANCH  20  22
ENDBRANCH  18  20
ENDBRANCH   5  18
BRANCH   4  36
ATOM     36  O   UNL     1       4.845  -6.818  -0.276  0.00  0.00    -0.493 OA
ATOM     37  C   UNL     1       4.874  -8.243  -0.380  0.00  0.00    +0.277 C 
ENDBRANCH   4  36
TORSDOF 6
