REMARK  Name = ZINC38546313
REMARK  8 active torsions:
REMARK  status: ('A' for Active; 'I' for Inactive)
REMARK    1  A    between atoms: C_1  and  C_2
REMARK    2  A    between atoms: N_5  and  C_8
REMARK    3  A    between atoms: C_8  and  C_10
REMARK    4  A    between atoms: C_8  and  C_18
REMARK    5  A    between atoms: C_15  and  O_16
REMARK    6  A    between atoms: O_16  and  C_17
REMARK    7  A    between atoms: C_22  and  N_23
REMARK    8  A    between atoms: C_24  and  C_26
REMARK                            x       y       z     vdW  Elec       q    Type
REMARK                         _______ _______ _______ _____ _____    ______ ____
ROOT
ATOM      1  C   UNL     1      -2.108  -4.620   1.494  0.00  0.00    -0.025 A 
ATOM      2  C   UNL     1      -2.354  -5.761   0.729  0.00  0.00    -0.033 A 
ATOM      3  C   UNL     1      -3.579  -6.335   0.869  0.00  0.00    -0.005 A 
ATOM      4  S   UNL     1      -4.400  -5.305   2.056  0.00  0.00    -0.078 S 
ATOM      5  C   UNL     1      -3.070  -4.143   2.327  0.00  0.00    +0.074 A 
ATOM      6  C   UNL     1      -4.100  -7.551   0.174  0.00  0.00    +0.043 C 
ATOM      7  C   UNL     1      -3.173  -7.864  -1.011  0.00  0.00    +0.005 C 
ATOM      8  C   UNL     1      -1.722  -7.809  -0.527  0.00  0.00    +0.005 C 
ATOM      9  C   UNL     1      -1.326  -6.364  -0.224  0.00  0.00    +0.036 C 
ENDROOT
BRANCH   5  10
ATOM     10  N   UNL     1      -3.030  -3.033   3.174  0.00  0.00    -0.273 N 
ATOM     11  C   UNL     1      -4.139  -2.653   3.838  0.00  0.00    +0.284 C 
ATOM     12  O   UNL     1      -5.176  -3.276   3.701  0.00  0.00    -0.266 OA
ATOM     13  H   UNL     1      -2.204  -2.537   3.284  0.00  0.00    +0.156 HD
BRANCH  11  14
ATOM     14  C   UNL     1      -4.097  -1.487   4.727  0.00  0.00    +0.189 A 
ATOM     15  C   UNL     1      -5.141  -0.999   5.460  0.00  0.00    +0.054 A 
ATOM     16  C   UNL     1      -4.656   0.116   6.161  0.00  0.00    +0.042 A 
ATOM     17  C   UNL     1      -3.354   0.258   5.829  0.00  0.00    +0.196 A 
ATOM     18  O   UNL     1      -3.020  -0.713   4.969  0.00  0.00    -0.458 OA
ENDBRANCH  11  14
ENDBRANCH   5  10
BRANCH   1  19
ATOM     19  C   UNL     1      -0.776  -3.921   1.400  0.00  0.00    -0.001 C 
BRANCH  19  24
ATOM     20  C   UNL     1      -1.105   1.452  -0.481  0.00  0.00    +0.007 C 
ATOM     21  C   UNL     1      -0.827  -0.049  -0.377  0.00  0.00    -0.018 C 
ATOM     22  C   UNL     1      -2.145  -0.801  -0.174  0.00  0.00    -0.015 C 
ATOM     23  C   UNL     1      -1.851  -2.292   0.009  0.00  0.00    -0.077 C 
ATOM     24  N   UNL     1      -0.991  -2.485   1.183  0.00  0.00    +0.387 N 
ATOM     25  C   UNL     1       0.303  -1.825   0.965  0.00  0.00    -0.077 C 
ATOM     26  C   UNL     1       0.092  -0.317   0.819  0.00  0.00    -0.015 C 
ATOM     27  H   UNL     1      -1.437  -2.087   1.995  0.00  0.00    -0.080 HD
ENDBRANCH  19  24
BRANCH  19  28
ATOM     28  C   UNL     1      -0.010  -4.127   2.681  0.00  0.00    -0.015 A 
ATOM     29  C   UNL     1       0.025  -3.127   3.634  0.00  0.00    +0.006 A 
ATOM     30  C   UNL     1       0.728  -3.314   4.810  0.00  0.00    +0.000 A 
ATOM     31  C   UNL     1       1.398  -4.502   5.035  0.00  0.00    +0.004 A 
ATOM     32  C   UNL     1       1.366  -5.505   4.086  0.00  0.00    +0.046 A 
ATOM     33  C   UNL     1       0.657  -5.322   2.908  0.00  0.00    +0.122 A 
BRANCH  33  34
ATOM     34  O   UNL     1       0.620  -6.309   1.975  0.00  0.00    -0.495 OA
ATOM     35  C   UNL     1       1.329  -7.513   2.276  0.00  0.00    +0.277 C 
ENDBRANCH  33  34
ENDBRANCH  19  28
ENDBRANCH   1  19
TORSDOF 6
