REMARK  Name = ZINC15421790
REMARK  9 active torsions:
REMARK  status: ('A' for Active; 'I' for Inactive)
REMARK    1  A    between atoms: C_1  and  C_2
REMARK    2  A    between atoms: N_4  and  C_5
REMARK    3  A    between atoms: C_9  and  N_11
REMARK    4  A    between atoms: C_12  and  C_14
REMARK    5  A    between atoms: C_18  and  S_20
REMARK    6  A    between atoms: S_20  and  N_23
REMARK    7  A    between atoms: C_25  and  C_34
REMARK    8  A    between atoms: C_30  and  C_32
REMARK    9  A    between atoms: C_30  and  C_33
REMARK                            x       y       z     vdW  Elec       q    Type
REMARK                         _______ _______ _______ _____ _____    ______ ____
ROOT
ATOM      1  C   UNL     1      -8.484   1.997   0.607  0.00  0.00    +0.039 A 
ATOM      2  C   UNL     1      -8.465   3.391   0.526  0.00  0.00    +0.013 A 
ATOM      3  C   UNL     1      -9.640   4.102   0.656  0.00  0.00    +0.003 A 
ATOM      4  C   UNL     1     -10.835   3.438   0.866  0.00  0.00    +0.028 A 
ATOM      5  C   UNL     1     -10.861   2.057   0.947  0.00  0.00    +0.106 A 
ATOM      6  C   UNL     1      -9.694   1.333   0.814  0.00  0.00    +0.041 A 
ENDROOT
BRANCH   1   8
ATOM      7  N   UNL     1      -6.064   1.872   0.263  0.00  0.00    -0.281 N 
ATOM      8  C   UNL     1      -7.230   1.228   0.468  0.00  0.00    +0.248 C 
ATOM      9  O   UNL     1      -7.250   0.015   0.539  0.00  0.00    -0.270 OA
ATOM     10  H   UNL     1      -6.056   2.834   0.140  0.00  0.00    +0.155 HD
BRANCH   7  15
ATOM     11  C   UNL     1      -2.517   0.996   0.710  0.00  0.00    +0.035 A 
ATOM     12  C   UNL     1      -2.492  -0.277   0.155  0.00  0.00    +0.023 A 
ATOM     13  C   UNL     1      -3.649  -0.831  -0.359  0.00  0.00    +0.004 A 
ATOM     14  C   UNL     1      -4.833  -0.120  -0.324  0.00  0.00    +0.023 A 
ATOM     15  C   UNL     1      -4.865   1.154   0.229  0.00  0.00    +0.035 A 
ATOM     16  C   UNL     1      -3.706   1.710   0.752  0.00  0.00    +0.046 A 
BRANCH  11  20
ATOM     17  C   UNL     1       0.064   3.504   1.813  0.00  0.00    +0.109 C 
ATOM     18  C   UNL     1      -1.138   2.885   1.147  0.00  0.00    +0.214 C 
ATOM     19  O   UNL     1      -1.922   3.584   0.540  0.00  0.00    -0.276 OA
ATOM     20  N   UNL     1      -1.345   1.556   1.231  0.00  0.00    -0.286 N 
ATOM     21  H   UNL     1      -0.682   0.988   1.652  0.00  0.00    +0.155 HD
ENDBRANCH  11  20
ENDBRANCH   7  15
ENDBRANCH   1   8
BRANCH   5  22
ATOM     22  S   UNL     1     -12.389   1.221   1.214  0.00  0.00    +0.061 S 
ATOM     23  O   UNL     1     -12.068  -0.036   1.795  0.00  0.00    -0.153 OA
ATOM     24  O   UNL     1     -13.257   2.152   1.845  0.00  0.00    -0.153 OA
BRANCH  22  25
ATOM     25  N   UNL     1     -13.039   0.901  -0.276  0.00  0.00    -0.173 NA
ATOM     26  C   UNL     1     -13.944   1.784  -1.028  0.00  0.00    +0.116 C 
ATOM     27  C   UNL     1     -14.348   1.008  -2.303  0.00  0.00    -0.016 C 
ATOM     28  C   UNL     1     -13.097   0.116  -2.542  0.00  0.00    +0.028 C 
ATOM     29  C   UNL     1     -12.809  -0.316  -1.079  0.00  0.00    +0.081 C 
ATOM     30  C   UNL     1     -13.844  -1.375  -0.709  0.00  0.00    +0.027 C 
ATOM     31  C   UNL     1     -15.279  -0.901  -0.862  0.00  0.00    -0.033 C 
ATOM     32  C   UNL     1     -15.524   0.091  -1.982  0.00  0.00    +0.014 C 
ATOM     33  C   UNL     1     -15.778  -0.326   0.472  0.00  0.00    +0.011 C 
ATOM     34  C   UNL     1     -16.145  -2.150  -1.154  0.00  0.00    +0.011 C 
ATOM     35  C   UNL     1     -14.630   1.944  -3.488  0.00  0.00    +0.012 C 
ENDBRANCH  22  25
ENDBRANCH   5  22
TORSDOF 5
