REMARK  Name = ZINC30839898
REMARK  8 active torsions:
REMARK  status: ('A' for Active; 'I' for Inactive)
REMARK    1  A    between atoms: C_1  and  C_2
REMARK    2  A    between atoms: C_2  and  C_4
REMARK    3  A    between atoms: C_2  and  N_11
REMARK    4  A    between atoms: C_12  and  C_14
REMARK    5  A    between atoms: C_18  and  N_20
REMARK    6  A    between atoms: N_23  and  C_24
REMARK    7  A    between atoms: C_24  and  C_25
REMARK    8  A    between atoms: C_24  and  C_26
REMARK                            x       y       z     vdW  Elec       q    Type
REMARK                         _______ _______ _______ _____ _____    ______ ____
ROOT
ATOM      1  C   UNL     1       0.812  -0.948   3.606  0.00  0.00    +0.038 A 
ATOM      2  C   UNL     1       2.122  -1.415   3.480  0.00  0.00    +0.013 A 
ATOM      3  C   UNL     1       2.739  -2.034   4.548  0.00  0.00    +0.003 A 
ATOM      4  C   UNL     1       2.065  -2.194   5.744  0.00  0.00    +0.023 A 
ATOM      5  C   UNL     1       0.761  -1.732   5.879  0.00  0.00    +0.035 A 
ATOM      6  C   UNL     1       0.134  -1.104   4.814  0.00  0.00    +0.036 A 
ENDROOT
BRANCH   5   7
ATOM      7  N   UNL     1       0.083  -1.897   7.092  0.00  0.00    -0.269 N 
ATOM      8  C   UNL     1      -1.250  -2.101   7.097  0.00  0.00    +0.304 C 
ATOM      9  O   UNL     1      -1.847  -2.239   6.047  0.00  0.00    -0.253 OA
ATOM     10  N   UNL     1      -1.919  -2.153   8.266  0.00  0.00    -0.297 N 
ATOM     11  H   UNL     1       0.571  -1.864   7.930  0.00  0.00    +0.156 HD
ATOM     12  H   UNL     1      -1.442  -2.043   9.103  0.00  0.00    +0.151 HD
BRANCH  10  13
ATOM     13  C   UNL     1      -3.367  -2.374   8.271  0.00  0.00    +0.068 C 
ATOM     14  C   UNL     1      -3.783  -2.997   9.605  0.00  0.00    +0.027 C 
ATOM     15  C   UNL     1      -4.089  -1.038   8.085  0.00  0.00    +0.027 C 
ENDBRANCH  10  13
ENDBRANCH   5   7
BRANCH   1  17
ATOM     16  N   UNL     1       0.806  -0.135   1.296  0.00  0.00    -0.305 N 
ATOM     17  C   UNL     1       0.149  -0.284   2.463  0.00  0.00    +0.245 C 
ATOM     18  O   UNL     1      -0.990   0.126   2.576  0.00  0.00    -0.270 OA
ATOM     19  H   UNL     1       1.715  -0.462   1.206  0.00  0.00    +0.150 HD
BRANCH  16  21
ATOM     20  C   UNL     1       0.319   2.039   0.285  0.00  0.00    +0.033 C 
ATOM     21  C   UNL     1       0.149   0.523   0.164  0.00  0.00    +0.100 C 
BRANCH  21  22
ATOM     22  C   UNL     1       0.772   0.049  -1.123  0.00  0.00    -0.026 A 
ATOM     23  C   UNL     1       2.140  -0.138  -1.201  0.00  0.00    +0.005 A 
ATOM     24  C   UNL     1       2.713  -0.573  -2.382  0.00  0.00    +0.001 A 
ATOM     25  C   UNL     1       1.918  -0.821  -3.485  0.00  0.00    +0.015 A 
ATOM     26  C   UNL     1       0.550  -0.634  -3.408  0.00  0.00    +0.018 A 
ATOM     27  C   UNL     1      -0.024  -0.204  -2.225  0.00  0.00    +0.020 A 
ATOM     28 BR   UNL     1      -0.538  -0.972  -4.918  0.00  0.00    -0.050 Br
ENDBRANCH  21  22
ENDBRANCH  16  21
ENDBRANCH   1  17
TORSDOF 5
