REMARK  Name = ZINC39639234
REMARK  8 active torsions:
REMARK  status: ('A' for Active; 'I' for Inactive)
REMARK    1  A    between atoms: C_1  and  C_2
REMARK    2  A    between atoms: C_5  and  C_8
REMARK    3  A    between atoms: C_8  and  C_10
REMARK    4  A    between atoms: C_8  and  N_11
REMARK    5  A    between atoms: C_12  and  C_14
REMARK    6  A    between atoms: C_25  and  C_27
REMARK    7  A    between atoms: C_31  and  O_33
REMARK    8  A    between atoms: O_33  and  C_34
REMARK                            x       y       z     vdW  Elec       q    Type
REMARK                         _______ _______ _______ _____ _____    ______ ____
ROOT
ATOM      1  C   UNL     1       2.831  -6.451   2.582  0.00  0.00    +0.100 C 
ATOM      2  C   UNL     1       1.805  -6.476   3.738  0.00  0.00    +0.121 C 
ATOM      3  N   UNL     1       1.314  -7.873   3.773  0.00  0.00    -0.296 N 
ATOM      4  C   UNL     1       2.521  -8.695   3.513  0.00  0.00    +0.115 C 
ATOM      5  C   UNL     1       3.301  -7.909   2.441  0.00  0.00    -0.004 C 
ATOM      6  C   UNL     1       4.801  -8.007   2.700  0.00  0.00    -0.010 C 
ATOM      7  C   UNL     1       5.256  -9.455   2.496  0.00  0.00    -0.082 C 
ATOM      8  N   UNL     1       4.947  -9.879   1.125  0.00  0.00    +0.379 N 
ATOM      9  C   UNL     1       3.494  -9.870   0.913  0.00  0.00    -0.082 C 
ATOM     10  C   UNL     1       2.965  -8.439   1.050  0.00  0.00    -0.010 C 
ATOM     11  C   UNL     1       0.055  -8.302   3.992  0.00  0.00    +0.247 C 
ATOM     12  O   UNL     1      -0.855  -7.500   4.066  0.00  0.00    -0.270 OA
ATOM     13  H   UNL     1       5.384  -9.245   0.472  0.00  0.00    -0.086 HD
ATOM     14  H   UNL     1       5.301 -10.811   0.974  0.00  0.00    -0.086 HD
ENDROOT
BRANCH  11  15
ATOM     15  C   UNL     1      -0.218  -9.747   4.144  0.00  0.00    +0.040 A 
ATOM     16  C   UNL     1       0.811 -10.622   4.494  0.00  0.00    +0.013 A 
ATOM     17  C   UNL     1       0.552 -11.970   4.635  0.00  0.00    +0.004 A 
ATOM     18  C   UNL     1      -0.725 -12.458   4.428  0.00  0.00    +0.045 A 
ATOM     19  C   UNL     1      -1.755 -11.596   4.079  0.00  0.00    +0.121 A 
ATOM     20  C   UNL     1      -1.507 -10.240   3.942  0.00  0.00    +0.058 A 
BRANCH  19  21
ATOM     21  O   UNL     1      -3.008 -12.081   3.877  0.00  0.00    -0.495 OA
ATOM     22  C   UNL     1      -3.193 -13.489   4.040  0.00  0.00    +0.277 C 
ENDBRANCH  19  21
ENDBRANCH  11  15
BRANCH   1  24
ATOM     23  N   UNL     1       2.920  -5.438   0.328  0.00  0.00    -0.308 N 
ATOM     24  C   UNL     1       2.175  -5.985   1.308  0.00  0.00    +0.219 C 
ATOM     25  O   UNL     1       0.976  -6.103   1.165  0.00  0.00    -0.275 OA
ATOM     26  H   UNL     1       3.878  -5.344   0.442  0.00  0.00    +0.149 HD
BRANCH  23  27
ATOM     27  C   UNL     1       2.282  -4.985  -0.911  0.00  0.00    +0.100 C 
ATOM     28  C   UNL     1       1.752  -3.563  -0.721  0.00  0.00    +0.033 C 
BRANCH  27  33
ATOM     29  C   UNL     1       6.151  -5.039  -5.203  0.00  0.00    +0.044 C 
ATOM     30  C   UNL     1       5.142  -5.025  -4.084  0.00  0.00    -0.050 A 
ATOM     31  C   UNL     1       3.845  -5.442  -4.317  0.00  0.00    +0.004 A 
ATOM     32  C   UNL     1       2.919  -5.429  -3.291  0.00  0.00    +0.006 A 
ATOM     33  C   UNL     1       3.291  -5.000  -2.030  0.00  0.00    -0.027 A 
ATOM     34  C   UNL     1       4.589  -4.584  -1.797  0.00  0.00    +0.006 A 
ATOM     35  C   UNL     1       5.515  -4.601  -2.822  0.00  0.00    +0.004 A 
ENDBRANCH  27  33
ENDBRANCH  23  27
ENDBRANCH   1  24
TORSDOF 5
