REMARK  Name = ZINC16047610
REMARK  6 active torsions:
REMARK  status: ('A' for Active; 'I' for Inactive)
REMARK    1  A    between atoms: C_1  and  C_2
REMARK    2  A    between atoms: C_5  and  C_9
REMARK    3  A    between atoms: C_6  and  C_8
REMARK    4  A    between atoms: C_15  and  C_17
REMARK    5  A    between atoms: C_20  and  S_23
REMARK    6  A    between atoms: S_23  and  N_26
REMARK                            x       y       z     vdW  Elec       q    Type
REMARK                         _______ _______ _______ _____ _____    ______ ____
ROOT
ATOM      1  C   UNL     1      -6.649   8.061   0.109  0.00  0.00    +0.037 A 
ATOM      2  C   UNL     1      -5.887   9.231   0.114  0.00  0.00    +0.015 A 
ATOM      3  C   UNL     1      -6.515  10.459   0.120  0.00  0.00    +0.029 A 
ATOM      4  C   UNL     1      -7.896  10.533   0.134  0.00  0.00    +0.109 A 
ATOM      5  C   UNL     1      -8.657   9.378   0.135  0.00  0.00    +0.029 A 
ATOM      6  C   UNL     1      -8.042   8.143   0.122  0.00  0.00    +0.015 A 
ENDROOT
BRANCH   1  13
ATOM      7  C   UNL     1      -2.525   3.867   0.048  0.00  0.00    +0.250 A 
ATOM      8  N   UNL     1      -3.720   3.329   0.050  0.00  0.00    -0.106 NA
ATOM      9  N   UNL     1      -4.608   4.261   0.069  0.00  0.00    -0.092 NA
ATOM     10  C   UNL     1      -4.013   5.430   0.070  0.00  0.00    +0.315 A 
ATOM     11  O   UNL     1      -2.686   5.208   0.057  0.00  0.00    -0.405 OA
ATOM     12  N   UNL     1      -4.637   6.666   0.083  0.00  0.00    -0.234 N 
ATOM     13  C   UNL     1      -5.983   6.742   0.096  0.00  0.00    +0.252 C 
ATOM     14  O   UNL     1      -6.649   5.725   0.096  0.00  0.00    -0.270 OA
ATOM     15  H   UNL     1      -4.106   7.478   0.082  0.00  0.00    +0.160 HD
BRANCH   7  20
ATOM     16  C   UNL     1       2.485   1.037  -0.015  0.00  0.00    +0.044 C 
ATOM     17  C   UNL     1       1.173   1.778   0.001  0.00  0.00    -0.050 A 
ATOM     18  C   UNL     1       1.163   3.162   0.009  0.00  0.00    +0.004 A 
ATOM     19  C   UNL     1      -0.034   3.847   0.025  0.00  0.00    +0.014 A 
ATOM     20  C   UNL     1      -1.238   3.140   0.032  0.00  0.00    +0.041 A 
ATOM     21  C   UNL     1      -1.222   1.745   0.018  0.00  0.00    -0.038 A 
ATOM     22  C   UNL     1      -0.017   1.072   0.008  0.00  0.00    +0.007 A 
ATOM     23  C   UNL     1      -2.517   0.974   0.019  0.00  0.00    +0.044 C 
ENDBRANCH   7  20
ENDBRANCH   1  13
BRANCH   4  24
ATOM     24  S   UNL     1      -8.690  12.106   0.149  0.00  0.00    +0.075 S 
ATOM     25  O   UNL     1      -7.766  13.033  -0.406  0.00  0.00    -0.150 OA
ATOM     26  O   UNL     1      -9.990  11.911  -0.391  0.00  0.00    -0.150 OA
BRANCH  24  27
ATOM     27  N   UNL     1      -8.896  12.535   1.735  0.00  0.00    -0.203 N 
ATOM     28  C   UNL     1     -10.165  12.260   2.424  0.00  0.00    +0.132 C 
ATOM     29  C   UNL     1     -10.552  13.508   3.220  0.00  0.00    +0.025 C 
ATOM     30  C   UNL     1      -9.485  13.770   4.283  0.00  0.00    +0.038 C 
ATOM     31  C   UNL     1      -8.113  13.777   3.662  0.00  0.00    -0.025 A 
ATOM     32  C   UNL     1      -7.868  13.171   2.439  0.00  0.00    +0.054 A 
ATOM     33  C   UNL     1      -6.588  13.191   1.897  0.00  0.00    +0.025 A 
ATOM     34  C   UNL     1      -5.560  13.816   2.575  0.00  0.00    +0.002 A 
ATOM     35  C   UNL     1      -5.806  14.422   3.793  0.00  0.00    +0.000 A 
ATOM     36  C   UNL     1      -7.077  14.403   4.334  0.00  0.00    +0.005 A 
ENDBRANCH  24  27
ENDBRANCH   4  24
TORSDOF 4
