REMARK  Name = ZINC35397202
REMARK  8 active torsions:
REMARK  status: ('A' for Active; 'I' for Inactive)
REMARK    1  A    between atoms: C_1  and  C_2
REMARK    2  A    between atoms: C_2  and  N_3
REMARK    3  A    between atoms: C_10  and  C_25
REMARK    4  A    between atoms: C_11  and  S_13
REMARK    5  A    between atoms: S_13  and  C_14
REMARK    6  A    between atoms: C_14  and  C_15
REMARK    7  A    between atoms: N_17  and  C_18
REMARK    8  A    between atoms: C_22  and  C_24
REMARK                            x       y       z     vdW  Elec       q    Type
REMARK                         _______ _______ _______ _____ _____    ______ ____
ROOT
ATOM      1  N   UNL     1      -1.214  -0.425   0.053  0.00  0.00    +0.380 N 
ATOM      2  C   UNL     1      -1.870  -0.047   1.311  0.00  0.00    -0.075 C 
ATOM      3  C   UNL     1      -3.332  -0.502   1.284  0.00  0.00    +0.035 C 
ATOM      4  C   UNL     1      -3.384  -2.020   1.104  0.00  0.00    +0.150 C 
ATOM      5  C   UNL     1      -2.625  -2.417  -0.162  0.00  0.00    +0.035 C 
ATOM      6  C   UNL     1      -1.191  -1.887  -0.079  0.00  0.00    -0.075 C 
ATOM      7  N   UNL     1      -2.798  -2.685   2.272  0.00  0.00    -0.251 NA
ATOM      8  C   UNL     1      -3.727  -3.426   2.799  0.00  0.00    +0.100 C 
ATOM      9  C   UNL     1      -4.974  -3.291   2.010  0.00  0.00    +0.120 C 
ATOM     10  N   UNL     1      -4.776  -2.470   1.021  0.00  0.00    -0.246 NA
ATOM     11  H   UNL     1      -1.722  -0.027  -0.722  0.00  0.00    -0.082 HD
ENDROOT
BRANCH   8  12
ATOM     12  C   UNL     1      -3.564  -4.274   4.001  0.00  0.00    +0.003 A 
ATOM     13  C   UNL     1      -4.380  -5.391   4.187  0.00  0.00    +0.011 A 
ATOM     14  C   UNL     1      -4.223  -6.178   5.308  0.00  0.00    +0.016 A 
ATOM     15  C   UNL     1      -3.257  -5.862   6.249  0.00  0.00    +0.018 A 
ATOM     16  C   UNL     1      -2.444  -4.756   6.070  0.00  0.00    +0.016 A 
ATOM     17  C   UNL     1      -2.589  -3.964   4.950  0.00  0.00    +0.011 A 
ATOM     18 BR   UNL     1      -3.049  -6.946   7.785  0.00  0.00    -0.050 Br
ENDBRANCH   8  12
BRANCH   1  20
ATOM     19  C   UNL     1       0.138   1.616   0.060  0.00  0.00    -0.017 C 
ATOM     20  C   UNL     1       0.163   0.087   0.049  0.00  0.00    -0.082 C 
ENDBRANCH   1  20
BRANCH   9  21
ATOM     21  S   UNL     1      -6.492  -4.115   2.359  0.00  0.00    -0.095 S 
BRANCH  21  22
ATOM     22  C   UNL     1      -7.613  -3.542   1.052  0.00  0.00    +0.172 C 
BRANCH  22  23
ATOM     23  C   UNL     1      -8.966  -4.180   1.236  0.00  0.00    +0.227 C 
ATOM     24  O   UNL     1      -9.155  -4.946   2.157  0.00  0.00    -0.275 OA
ATOM     25  N   UNL     1      -9.965  -3.900   0.376  0.00  0.00    -0.285 N 
ATOM     26  H   UNL     1      -9.794  -3.349  -0.404  0.00  0.00    +0.155 HD
BRANCH  25  27
ATOM     27  C   UNL     1     -11.250  -4.403   0.608  0.00  0.00    +0.034 A 
ATOM     28  C   UNL     1     -12.055  -4.777  -0.460  0.00  0.00    +0.023 A 
ATOM     29  C   UNL     1     -13.322  -5.274  -0.228  0.00  0.00    +0.002 A 
ATOM     30  C   UNL     1     -13.791  -5.397   1.068  0.00  0.00    +0.003 A 
ATOM     31  C   UNL     1     -12.993  -5.024   2.134  0.00  0.00    -0.049 A 
ATOM     32  C   UNL     1     -11.721  -4.534   1.908  0.00  0.00    +0.026 A 
ATOM     33  C   UNL     1     -13.508  -5.160   3.543  0.00  0.00    +0.044 C 
ENDBRANCH  25  27
ENDBRANCH  22  23
ENDBRANCH  21  22
ENDBRANCH   9  21
TORSDOF 6
