REMARK  Name = ZINC39608998
REMARK  9 active torsions:
REMARK  status: ('A' for Active; 'I' for Inactive)
REMARK    1  A    between atoms: C_1  and  C_2
REMARK    2  A    between atoms: C_2  and  C_4
REMARK    3  A    between atoms: C_2  and  O_35
REMARK    4  A    between atoms: C_8  and  C_17
REMARK    5  A    between atoms: N_19  and  C_20
REMARK    6  A    between atoms: C_25  and  O_27
REMARK    7  A    between atoms: O_27  and  C_28
REMARK    8  A    between atoms: C_28  and  C_29
REMARK    9  A    between atoms: O_35  and  C_36
REMARK                            x       y       z     vdW  Elec       q    Type
REMARK                         _______ _______ _______ _____ _____    ______ ____
ROOT
ATOM      1  C   UNL     1       0.616  -0.382  -1.180  0.00  0.00    +0.256 C 
ATOM      2  O   UNL     1      -0.120  -0.811  -2.043  0.00  0.00    -0.272 OA
ATOM      3  N   UNL     1       1.887  -0.051  -1.482  0.00  0.00    -0.297 N 
ATOM      4  C   UNL     1       2.929   0.478  -0.570  0.00  0.00    +0.121 C 
ATOM      5  C   UNL     1       4.230  -0.228  -1.011  0.00  0.00    +0.100 C 
ATOM      6  C   UNL     1       3.982  -0.627  -2.476  0.00  0.00    -0.004 C 
ATOM      7  C   UNL     1       2.562  -0.142  -2.799  0.00  0.00    +0.115 C 
ATOM      8  C   UNL     1       4.064  -2.143  -2.631  0.00  0.00    -0.010 C 
ATOM      9  C   UNL     1       3.872  -2.510  -4.105  0.00  0.00    -0.082 C 
ATOM     10  N   UNL     1       4.909  -1.859  -4.914  0.00  0.00    +0.379 N 
ATOM     11  C   UNL     1       4.766  -0.400  -4.832  0.00  0.00    -0.082 C 
ATOM     12  C   UNL     1       4.996   0.057  -3.389  0.00  0.00    -0.010 C 
ATOM     13  H   UNL     1       5.819  -2.126  -4.569  0.00  0.00    -0.086 HD
ATOM     14  H   UNL     1       4.817  -2.151  -5.875  0.00  0.00    -0.086 HD
ENDROOT
BRANCH   5  15
ATOM     15  C   UNL     1       5.399   0.717  -0.913  0.00  0.00    +0.218 C 
ATOM     16  O   UNL     1       5.236   1.905  -1.095  0.00  0.00    -0.275 OA
ATOM     17  N   UNL     1       6.627   0.243  -0.622  0.00  0.00    -0.310 N 
ATOM     18  H   UNL     1       6.758  -0.707  -0.476  0.00  0.00    +0.149 HD
BRANCH  17  19
ATOM     19  C   UNL     1       7.764   1.162  -0.526  0.00  0.00    +0.102 C 
ATOM     20  C   UNL     1       8.393   1.369  -1.915  0.00  0.00    +0.025 C 
ATOM     21  C   UNL     1       9.851   0.877  -1.816  0.00  0.00    +0.004 C 
ATOM     22  C   UNL     1      10.187   0.985  -0.308  0.00  0.00    +0.033 C 
ATOM     23  C   UNL     1       8.862   0.552   0.369  0.00  0.00    +0.139 C 
BRANCH  23  24
ATOM     24  O   UNL     1       8.779   1.084   1.693  0.00  0.00    -0.370 OA
BRANCH  24  25
ATOM     25  C   UNL     1       9.224   0.183   2.710  0.00  0.00    +0.195 C 
BRANCH  25  26
ATOM     26  C   UNL     1       9.094   0.843   4.058  0.00  0.00    -0.022 A 
ATOM     27  C   UNL     1      10.143   1.583   4.570  0.00  0.00    +0.006 A 
ATOM     28  C   UNL     1      10.024   2.188   5.807  0.00  0.00    +0.000 A 
ATOM     29  C   UNL     1       8.854   2.055   6.532  0.00  0.00    +0.000 A 
ATOM     30  C   UNL     1       7.804   1.317   6.019  0.00  0.00    +0.000 A 
ATOM     31  C   UNL     1       7.922   0.715   4.780  0.00  0.00    +0.006 A 
ENDBRANCH  25  26
ENDBRANCH  24  25
ENDBRANCH  23  24
ENDBRANCH  17  19
ENDBRANCH   5  15
BRANCH   1  33
ATOM     32  C   UNL     1       0.099   1.268   0.598  0.00  0.00    +0.062 C 
ATOM     33  C   UNL     1       0.108  -0.217   0.229  0.00  0.00    +0.256 C 
BRANCH  33  34
ATOM     34  O   UNL     1      -1.219  -0.739   0.322  0.00  0.00    -0.480 OA
BRANCH  34  35
ATOM     35  C   UNL     1      -1.634  -1.155   1.547  0.00  0.00    +0.122 A 
ATOM     36  C   UNL     1      -2.866  -1.777   1.688  0.00  0.00    +0.045 A 
ATOM     37  C   UNL     1      -3.286  -2.200   2.935  0.00  0.00    +0.004 A 
ATOM     38  C   UNL     1      -2.479  -2.003   4.041  0.00  0.00    +0.000 A 
ATOM     39  C   UNL     1      -1.251  -1.384   3.902  0.00  0.00    +0.004 A 
ATOM     40  C   UNL     1      -0.824  -0.965   2.657  0.00  0.00    +0.045 A 
ENDBRANCH  34  35
ENDBRANCH  33  34
ENDBRANCH   1  33
TORSDOF 8
