REMARK  Name = ZINC32933121
REMARK  6 active torsions:
REMARK  status: ('A' for Active; 'I' for Inactive)
REMARK    1  A    between atoms: C_1  and  C_2
REMARK    2  A    between atoms: C_7  and  C_16
REMARK    3  A    between atoms: N_11  and  S_12
REMARK    4  A    between atoms: S_12  and  C_15
REMARK    5  A    between atoms: N_18  and  C_19
REMARK    6  A    between atoms: C_27  and  C_29
REMARK                            x       y       z     vdW  Elec       q    Type
REMARK                         _______ _______ _______ _____ _____    ______ ____
ROOT
ATOM      1  C   UNL     1      -3.313  -3.523   3.803  0.00  0.00    +0.248 C 
ATOM      2  O   UNL     1      -4.412  -3.576   3.284  0.00  0.00    -0.270 OA
ATOM      3  N   UNL     1      -3.084  -4.166   4.965  0.00  0.00    -0.281 N 
ATOM      4  H   UNL     1      -2.192  -4.180   5.344  0.00  0.00    +0.155 HD
ENDROOT
BRANCH   1  10
ATOM      5  C   UNL     1      -0.001   1.507   0.000  0.00  0.00    +0.030 C 
ATOM      6  C   UNL     1       0.009  -0.023  -0.009  0.00  0.00    +0.099 C 
ATOM      7  C   UNL     1      -1.426  -0.566   0.077  0.00  0.00    +0.061 C 
ATOM      8  C   UNL     1      -1.449  -1.370   1.358  0.00  0.00    -0.022 A 
ATOM      9  C   UNL     1      -2.463  -2.086   1.955  0.00  0.00    +0.018 A 
ATOM     10  C   UNL     1      -2.231  -2.755   3.160  0.00  0.00    +0.037 A 
ATOM     11  C   UNL     1      -0.966  -2.690   3.751  0.00  0.00    +0.015 A 
ATOM     12  C   UNL     1       0.040  -1.974   3.150  0.00  0.00    +0.026 A 
ATOM     13  C   UNL     1      -0.191  -1.303   1.943  0.00  0.00    +0.054 A 
ATOM     14  N   UNL     1       0.688  -0.533   1.185  0.00  0.00    -0.204 N 
BRANCH  14  15
ATOM     15  S   UNL     1       2.270  -0.237   1.575  0.00  0.00    +0.043 S 
ATOM     16  O   UNL     1       2.659  -1.343   2.378  0.00  0.00    -0.155 OA
ATOM     17  O   UNL     1       2.909   0.015   0.331  0.00  0.00    -0.155 OA
ATOM     18  C   UNL     1       2.228   1.276   2.573  0.00  0.00    +0.218 C 
ENDBRANCH  14  15
ENDBRANCH   1  10
BRANCH   3  19
ATOM     19  C   UNL     1      -4.135  -4.814   5.624  0.00  0.00    +0.036 A 
ATOM     20  C   UNL     1      -5.135  -5.444   4.885  0.00  0.00    +0.025 A 
ATOM     21  C   UNL     1      -6.166  -6.081   5.512  0.00  0.00    +0.032 A 
ATOM     22  C   UNL     1      -6.226  -6.106   6.910  0.00  0.00    +0.090 A 
ATOM     23  C   UNL     1      -5.218  -5.471   7.659  0.00  0.00    +0.068 A 
ATOM     24  C   UNL     1      -4.173  -4.832   7.009  0.00  0.00    +0.051 A 
ATOM     25  N   UNL     1      -5.546  -5.664   8.987  0.00  0.00    -0.338 N 
ATOM     26  H   UNL     1      -5.046  -5.345   9.755  0.00  0.00    +0.167 HD
ATOM     27  C   UNL     1      -6.708  -6.388   9.017  0.00  0.00    +0.139 A 
ATOM     28  N   UNL     1      -7.102  -6.644   7.793  0.00  0.00    -0.228 NA
BRANCH  27  29
ATOM     29  C   UNL     1      -7.412  -6.816  10.244  0.00  0.00    +0.017 A 
ATOM     30  C   UNL     1      -6.900  -6.481  11.498  0.00  0.00    +0.014 A 
ATOM     31  C   UNL     1      -7.561  -6.883  12.640  0.00  0.00    +0.039 A 
ATOM     32  C   UNL     1      -8.731  -7.619  12.544  0.00  0.00    +0.123 A 
ATOM     33  C   UNL     1      -9.243  -7.955  11.301  0.00  0.00    +0.039 A 
ATOM     34  C   UNL     1      -8.594  -7.553  10.153  0.00  0.00    +0.014 A 
ATOM     35  F   UNL     1      -9.374  -8.011  13.666  0.00  0.00    -0.205 F 
ENDBRANCH  27  29
ENDBRANCH   3  19
TORSDOF 4
