REMARK  Name = ZINC02862001
REMARK  10 active torsions:
REMARK  status: ('A' for Active; 'I' for Inactive)
REMARK    1  A    between atoms: C_2  and  C_3
REMARK    2  A    between atoms: C_3  and  N_4
REMARK    3  A    between atoms: C_5  and  C_24
REMARK    4  A    between atoms: C_8  and  S_9
REMARK    5  A    between atoms: S_9  and  C_10
REMARK    6  A    between atoms: C_10  and  C_11
REMARK    7  A    between atoms: N_13  and  C_14
REMARK    8  A    between atoms: C_18  and  C_20
REMARK    9  A    between atoms: C_24  and  N_25
REMARK   10  A    between atoms: C_26  and  C_28
REMARK                            x       y       z     vdW  Elec       q    Type
REMARK                         _______ _______ _______ _____ _____    ______ ____
ROOT
ATOM      1  N   UNL     1       3.364  10.779   0.599  0.00  0.00    -0.301 N 
ATOM      2  C   UNL     1       2.654  11.947   0.665  0.00  0.00    +0.152 A 
ATOM      3  N   UNL     1       1.391  11.637   0.598  0.00  0.00    -0.132 NA
ATOM      4  N   UNL     1       1.253  10.364   0.490  0.00  0.00    -0.122 NA
ATOM      5  C   UNL     1       2.433   9.787   0.482  0.00  0.00    +0.192 A 
ENDROOT
BRANCH   1   6
ATOM      6  C   UNL     1       4.820  10.625   0.642  0.00  0.00    +0.152 C 
BRANCH   6   8
ATOM      7  C   UNL     1       6.310  11.556  -1.053  0.00  0.00    +0.005 C 
ATOM      8  C   UNL     1       5.373  10.689  -0.758  0.00  0.00    -0.013 C 
ENDBRANCH   6   8
ENDBRANCH   1   6
BRANCH   5   9
ATOM      9  S   UNL     1       2.753   8.059   0.352  0.00  0.00    -0.077 S 
BRANCH   9  10
ATOM     10  C   UNL     1       1.059   7.433   0.245  0.00  0.00    +0.173 C 
BRANCH  10  11
ATOM     11  C   UNL     1       1.085   5.931   0.123  0.00  0.00    +0.227 C 
ATOM     12  O   UNL     1       2.146   5.342   0.111  0.00  0.00    -0.275 OA
ATOM     13  N   UNL     1      -0.069   5.242   0.029  0.00  0.00    -0.285 N 
ATOM     14  H   UNL     1      -0.913   5.715  -0.038  0.00  0.00    +0.155 HD
BRANCH  13  15
ATOM     15  C   UNL     1      -0.051   3.842   0.028  0.00  0.00    +0.034 A 
ATOM     16  C   UNL     1       0.907   3.158   0.765  0.00  0.00    +0.023 A 
ATOM     17  C   UNL     1       0.922   1.778   0.762  0.00  0.00    +0.002 A 
ATOM     18  C   UNL     1      -0.014   1.076   0.025  0.00  0.00    +0.012 A 
ATOM     19  C   UNL     1      -0.966   1.754  -0.714  0.00  0.00    +0.057 A 
ATOM     20  C   UNL     1      -0.990   3.135  -0.711  0.00  0.00    +0.035 A 
BRANCH  19  21
ATOM     21  C   UNL     1      -1.981   0.985  -1.521  0.00  0.00    +0.417 C 
ATOM     22  F   UNL     1      -1.759  -0.387  -1.363  0.00  0.00    -0.166 F 
ATOM     23  F   UNL     1      -3.268   1.304  -1.076  0.00  0.00    -0.166 F 
ATOM     24  F   UNL     1      -1.857   1.325  -2.872  0.00  0.00    -0.166 F 
ENDBRANCH  19  21
ENDBRANCH  13  15
ENDBRANCH  10  11
ENDBRANCH   9  10
ENDBRANCH   5   9
BRANCH   2  25
ATOM     25  C   UNL     1       3.228  13.334   0.796  0.00  0.00    +0.181 C 
BRANCH  25  26
ATOM     26  N   UNL     1       3.369  13.672   2.215  0.00  0.00    -0.304 N 
ATOM     27  C   UNL     1       3.865  14.871   2.576  0.00  0.00    +0.244 C 
ATOM     28  O   UNL     1       4.197  15.673   1.725  0.00  0.00    -0.270 OA
ATOM     29  H   UNL     1       3.104  13.032   2.894  0.00  0.00    +0.149 HD
BRANCH  27  30
ATOM     30  C   UNL     1       4.007  15.212   4.007  0.00  0.00    +0.037 A 
ATOM     31  C   UNL     1       3.622  14.296   4.987  0.00  0.00    +0.014 A 
ATOM     32  C   UNL     1       3.762  14.617   6.321  0.00  0.00    +0.021 A 
ATOM     33  C   UNL     1       4.273  15.851   6.689  0.00  0.00    +0.041 A 
ATOM     34  C   UNL     1       4.651  16.767   5.721  0.00  0.00    +0.021 A 
ATOM     35  C   UNL     1       4.521  16.454   4.384  0.00  0.00    +0.014 A 
ATOM     36 CL   UNL     1       4.440  16.251   8.370  0.00  0.00    -0.084 Cl
ENDBRANCH  27  30
ENDBRANCH  25  26
ENDBRANCH   2  25
TORSDOF 10
