REMARK  Name = ZINC12105025
REMARK  11 active torsions:
REMARK  status: ('A' for Active; 'I' for Inactive)
REMARK    1  A    between atoms: C_1  and  C_2
REMARK    2  A    between atoms: C_3  and  C_34
REMARK    3  A    between atoms: N_4  and  C_27
REMARK    4  A    between atoms: C_5  and  N_9
REMARK    5  A    between atoms: C_6  and  C_7
REMARK    6  A    between atoms: C_10  and  C_12
REMARK    7  A    between atoms: C_12  and  S_13
REMARK    8  A    between atoms: S_13  and  C_14
REMARK    9  A    between atoms: C_17  and  C_20
REMARK   10  A    between atoms: C_20  and  C_21
REMARK   11  A    between atoms: C_21  and  C_22
REMARK                            x       y       z     vdW  Elec       q    Type
REMARK                         _______ _______ _______ _____ _____    ______ ____
ROOT
ATOM      1  N   UNL     1       1.369  10.861  -0.009  0.00  0.00    -0.270 N 
ATOM      2  C   UNL     1       1.105   9.798   0.777  0.00  0.00    +0.229 C 
ATOM      3  O   UNL     1       1.127   9.916   1.984  0.00  0.00    -0.275 OA
ATOM      4  H   UNL     1       1.426  10.750  -0.971  0.00  0.00    +0.156 HD
ENDROOT
BRANCH   1   9
ATOM      5  C   UNL     1       0.740  15.652   1.472  0.00  0.00    +0.047 C 
ATOM      6  C   UNL     1       1.306  14.274   1.242  0.00  0.00    -0.010 A 
ATOM      7  C   UNL     1       2.493  13.815   1.671  0.00  0.00    +0.027 A 
ATOM      8  N   UNL     1       2.650  12.515   1.262  0.00  0.00    -0.300 N 
ATOM      9  C   UNL     1       1.558  12.112   0.558  0.00  0.00    +0.128 A 
ATOM     10  C   UNL     1       0.670  13.177   0.502  0.00  0.00    +0.095 A 
ATOM     11  C   UNL     1       3.495  14.604   2.474  0.00  0.00    +0.064 C 
BRANCH   8  12
ATOM     12  C   UNL     1       3.772  11.719   1.531  0.00  0.00    +0.051 A 
ATOM     13  C   UNL     1       4.608  11.323   0.496  0.00  0.00    +0.026 A 
ATOM     14  C   UNL     1       5.713  10.539   0.762  0.00  0.00    +0.005 A 
ATOM     15  C   UNL     1       5.987  10.146   2.059  0.00  0.00    +0.038 A 
ATOM     16  C   UNL     1       5.156  10.538   3.095  0.00  0.00    +0.125 A 
ATOM     17  C   UNL     1       4.051  11.329   2.833  0.00  0.00    +0.064 A 
ATOM     18  F   UNL     1       5.427  10.153   4.361  0.00  0.00    -0.205 F 
ENDBRANCH   8  12
BRANCH  10  19
ATOM     19  C   UNL     1      -0.608  13.201  -0.144  0.00  0.00    +0.103 C 
ATOM     20  N   UNL     1      -1.621  13.219  -0.656  0.00  0.00    -0.191 NA
ENDBRANCH  10  19
ENDBRANCH   1   9
BRANCH   2  21
ATOM     21  C   UNL     1       0.784   8.463   0.157  0.00  0.00    +0.173 C 
BRANCH  21  22
ATOM     22  S   UNL     1       0.480   7.247   1.463  0.00  0.00    -0.077 S 
BRANCH  22  23
ATOM     23  C   UNL     1       0.140   5.823   0.483  0.00  0.00    +0.189 A 
ATOM     24  N   UNL     1      -0.173   4.577   0.944  0.00  0.00    -0.320 N 
ATOM     25  H   UNL     1      -0.251   4.297   1.869  0.00  0.00    +0.169 HD
ATOM     26  C   UNL     1      -0.348   3.803  -0.171  0.00  0.00    +0.132 A 
ATOM     27  N   UNL     1      -0.155   4.568  -1.208  0.00  0.00    -0.134 NA
ATOM     28  N   UNL     1       0.133   5.761  -0.828  0.00  0.00    -0.123 NA
BRANCH  26  29
ATOM     29  C   UNL     1      -0.706   2.339  -0.194  0.00  0.00    +0.076 C 
BRANCH  29  30
ATOM     30  C   UNL     1      -1.966   2.136  -1.037  0.00  0.00    +0.011 C 
BRANCH  30  31
ATOM     31  C   UNL     1      -2.329   0.650  -1.061  0.00  0.00    -0.011 C 
ATOM     32  C   UNL     1      -1.264  -0.142  -1.848  0.00  0.00    +0.003 C 
ATOM     33  C   UNL     1      -2.075  -1.224  -2.603  0.00  0.00    +0.000 C 
ATOM     34  C   UNL     1      -3.362  -0.464  -3.010  0.00  0.00    +0.000 C 
ATOM     35  C   UNL     1      -3.663   0.445  -1.800  0.00  0.00    +0.003 C 
ENDBRANCH  30  31
ENDBRANCH  29  30
ENDBRANCH  26  29
ENDBRANCH  22  23
ENDBRANCH  21  22
ENDBRANCH   2  21
TORSDOF 9
