REMARK  Name = ZINC11695906
REMARK  7 active torsions:
REMARK  status: ('A' for Active; 'I' for Inactive)
REMARK    1  A    between atoms: C_1  and  C_2
REMARK    2  A    between atoms: C_5  and  S_8
REMARK    3  A    between atoms: S_8  and  C_11
REMARK    4  A    between atoms: C_12  and  S_22
REMARK    5  A    between atoms: C_14  and  C_16
REMARK    6  A    between atoms: S_22  and  C_23
REMARK    7  A    between atoms: C_23  and  C_24
REMARK                            x       y       z     vdW  Elec       q    Type
REMARK                         _______ _______ _______ _____ _____    ______ ____
ROOT
ATOM      1  C   UNL     1       1.752  -5.029  -0.035  0.00  0.00    +0.216 A 
ATOM      2  C   UNL     1       2.532  -5.264   1.048  0.00  0.00    +0.144 A 
ATOM      3  N   UNL     1       3.750  -5.623   0.618  0.00  0.00    -0.217 NA
ATOM      4  C   UNL     1       3.765  -5.622  -0.697  0.00  0.00    +0.163 A 
ATOM      5  N   UNL     1       2.529  -5.261  -1.144  0.00  0.00    -0.206 NA
ENDROOT
BRANCH   4   6
ATOM      6  C   UNL     1       4.926  -5.963  -1.548  0.00  0.00    +0.019 A 
ATOM      7  C   UNL     1       4.813  -5.918  -2.938  0.00  0.00    +0.011 A 
ATOM      8  C   UNL     1       5.900  -6.236  -3.727  0.00  0.00    +0.001 A 
ATOM      9  C   UNL     1       7.100  -6.599  -3.141  0.00  0.00    +0.000 A 
ATOM     10  C   UNL     1       7.218  -6.646  -1.764  0.00  0.00    +0.001 A 
ATOM     11  C   UNL     1       6.141  -6.325  -0.964  0.00  0.00    +0.011 A 
ENDBRANCH   4   6
BRANCH   1  12
ATOM     12  S   UNL     1       0.063  -4.530  -0.023  0.00  0.00    +0.045 S 
ATOM     13  O   UNL     1      -0.476  -4.950   1.223  0.00  0.00    -0.163 OA
ATOM     14  O   UNL     1      -0.490  -4.937  -1.267  0.00  0.00    -0.163 OA
BRANCH  12  19
ATOM     15  C   UNL     1      -0.018   1.503   0.010  0.00  0.00    +0.044 C 
ATOM     16  C   UNL     1       0.002  -0.004   0.002  0.00  0.00    -0.050 A 
ATOM     17  C   UNL     1       0.006  -0.689  -1.199  0.00  0.00    +0.005 A 
ATOM     18  C   UNL     1       0.025  -2.071  -1.206  0.00  0.00    +0.028 A 
ATOM     19  C   UNL     1       0.040  -2.768  -0.013  0.00  0.00    +0.095 A 
ATOM     20  C   UNL     1       0.037  -2.084   1.188  0.00  0.00    +0.028 A 
ATOM     21  C   UNL     1       0.023  -0.702   1.195  0.00  0.00    +0.005 A 
ENDBRANCH  12  19
ENDBRANCH   1  12
BRANCH   2  22
ATOM     22  S   UNL     1       2.032  -5.121   2.731  0.00  0.00    -0.093 S 
BRANCH  22  23
ATOM     23  C   UNL     1       3.519  -5.565   3.670  0.00  0.00    +0.172 C 
BRANCH  23  24
ATOM     24  C   UNL     1       3.225  -5.482   5.146  0.00  0.00    +0.229 C 
ATOM     25  O   UNL     1       2.120  -5.157   5.527  0.00  0.00    -0.275 OA
ATOM     26  N   UNL     1       4.189  -5.771   6.043  0.00  0.00    -0.264 N 
ATOM     27  C   UNL     1       3.917  -5.695   7.404  0.00  0.00    +0.164 A 
ATOM     28  N   UNL     1       2.788  -5.369   7.995  0.00  0.00    -0.233 NA
ATOM     29  C   UNL     1       2.690  -5.343   9.311  0.00  0.00    +0.120 A 
ATOM     30  C   UNL     1       3.800  -5.667  10.018  0.00  0.00    +0.068 A 
ATOM     31  S   UNL     1       4.951  -6.005   8.695  0.00  0.00    -0.061 S 
ATOM     32  H   UNL     1       5.072  -6.032   5.738  0.00  0.00    +0.157 HD
ENDBRANCH  23  24
ENDBRANCH  22  23
ENDBRANCH   2  22
TORSDOF 6
