REMARK  Name = ZINC09761313
REMARK  9 active torsions:
REMARK  status: ('A' for Active; 'I' for Inactive)
REMARK    1  A    between atoms: C_1  and  C_2
REMARK    2  A    between atoms: C_2  and  O_3
REMARK    3  A    between atoms: O_3  and  C_4
REMARK    4  A    between atoms: C_4  and  C_6
REMARK    5  A    between atoms: C_7  and  N_36
REMARK    6  A    between atoms: N_8  and  C_29
REMARK    7  A    between atoms: C_11  and  C_13
REMARK    8  A    between atoms: C_25  and  C_27
REMARK    9  A    between atoms: C_25  and  C_28
REMARK                            x       y       z     vdW  Elec       q    Type
REMARK                         _______ _______ _______ _____ _____    ______ ____
ROOT
ATOM      1  C   UNL     1       3.504  -0.965  -0.324  0.00  0.00    +0.084 C 
ATOM      2  C   UNL     1       2.390  -0.261   0.018  0.00  0.00    +0.103 C 
ATOM      3  N   UNL     1       2.384   1.110  -0.079  0.00  0.00    -0.261 N 
ATOM      4  C   UNL     1       3.562   1.809  -0.130  0.00  0.00    +0.025 C 
ATOM      5  C   UNL     1       4.713   1.198  -0.473  0.00  0.00    +0.025 C 
ATOM      6  C   UNL     1       4.737  -0.269  -0.821  0.00  0.00    +0.094 C 
ATOM      7  C   UNL     1       5.925   1.909  -0.524  0.00  0.00    +0.162 C 
ATOM      8  O   UNL     1       6.947   1.325  -0.827  0.00  0.00    -0.292 OA
ATOM      9  C   UNL     1       5.981   3.378  -0.229  0.00  0.00    +0.086 C 
ATOM     10  C   UNL     1       4.627   4.010  -0.570  0.00  0.00    -0.023 C 
ATOM     11  C   UNL     1       3.539   3.277   0.218  0.00  0.00    +0.058 C 
ATOM     12  C   UNL     1       4.357   3.871  -2.070  0.00  0.00    +0.011 C 
ATOM     13  C   UNL     1       4.633   5.490  -0.183  0.00  0.00    +0.011 C 
ENDROOT
BRANCH   6  14
ATOM     14  C   UNL     1       4.819  -0.419  -2.318  0.00  0.00    -0.031 A 
ATOM     15  C   UNL     1       3.805   0.074  -3.118  0.00  0.00    +0.008 A 
ATOM     16  C   UNL     1       3.876  -0.060  -4.492  0.00  0.00    +0.050 A 
ATOM     17  C   UNL     1       4.965  -0.691  -5.071  0.00  0.00    +0.166 A 
ATOM     18  C   UNL     1       5.987  -1.188  -4.266  0.00  0.00    +0.167 A 
ATOM     19  C   UNL     1       5.912  -1.045  -2.890  0.00  0.00    +0.054 A 
ATOM     20  O   UNL     1       6.936  -1.757  -5.066  0.00  0.00    -0.453 OA
ATOM     21  C   UNL     1       6.683  -1.242  -6.387  0.00  0.00    +0.466 C 
ATOM     22  O   UNL     1       5.274  -0.948  -6.376  0.00  0.00    -0.453 OA
ENDBRANCH   6  14
BRANCH   3  23
ATOM     23  C   UNL     1       1.165   1.797  -0.134  0.00  0.00    +0.040 A 
ATOM     24  C   UNL     1       0.484   2.099   1.039  0.00  0.00    +0.026 A 
ATOM     25  C   UNL     1      -0.721   2.771   0.983  0.00  0.00    +0.040 A 
ATOM     26  C   UNL     1      -1.244   3.155  -0.240  0.00  0.00    +0.124 A 
ATOM     27  C   UNL     1      -0.567   2.855  -1.411  0.00  0.00    +0.040 A 
ATOM     28  C   UNL     1       0.635   2.178  -1.359  0.00  0.00    +0.026 A 
ATOM     29  F   UNL     1      -2.421   3.817  -0.293  0.00  0.00    -0.205 F 
ENDBRANCH   3  23
BRANCH   2  30
ATOM     30  N   UNL     1       1.273  -0.921   0.461  0.00  0.00    -0.346 N 
ATOM     31  H   UNL     1       0.391  -0.587   0.234  0.00  0.00    +0.143 HD
ATOM     32  H   UNL     1       1.364  -1.722   1.000  0.00  0.00    +0.143 HD
ENDBRANCH   2  30
BRANCH   1  33
ATOM     33  C   UNL     1       3.499  -2.362  -0.210  0.00  0.00    +0.339 C 
ATOM     34  O   UNL     1       2.494  -2.939   0.164  0.00  0.00    -0.245 OA
BRANCH  33  35
ATOM     35  O   UNL     1       4.610  -3.069  -0.514  0.00  0.00    -0.462 OA
BRANCH  35  37
ATOM     36  C   UNL     1       5.877  -5.112  -0.761  0.00  0.00    +0.048 C 
ATOM     37  C   UNL     1       4.534  -4.489  -0.375  0.00  0.00    +0.229 C 
ENDBRANCH  35  37
ENDBRANCH  33  35
ENDBRANCH   1  33
TORSDOF 6
