REMARK  Name = ZINC59025646
REMARK  6 active torsions:
REMARK  status: ('A' for Active; 'I' for Inactive)
REMARK    1  A    between atoms: C_1  and  C_2
REMARK    2  A    between atoms: C_4  and  N_8
REMARK    3  A    between atoms: C_9  and  C_11
REMARK    4  A    between atoms: C_15  and  N_17
REMARK    5  A    between atoms: N_17  and  S_18
REMARK    6  A    between atoms: S_18  and  C_21
REMARK                            x       y       z     vdW  Elec       q    Type
REMARK                         _______ _______ _______ _____ _____    ______ ____
ROOT
ATOM      1  C   UNL     1       0.043  -4.288  -3.758  0.00  0.00    +0.039 A 
ATOM      2  C   UNL     1       0.057  -5.566  -3.195  0.00  0.00    +0.013 A 
ATOM      3  C   UNL     1       0.069  -6.679  -4.011  0.00  0.00    +0.003 A 
ATOM      4  C   UNL     1       0.066  -6.534  -5.386  0.00  0.00    +0.027 A 
ATOM      5  C   UNL     1       0.052  -5.266  -5.956  0.00  0.00    +0.075 A 
ATOM      6  C   UNL     1       0.035  -4.142  -5.145  0.00  0.00    +0.039 A 
ENDROOT
BRANCH   1   8
ATOM      7  N   UNL     1       0.039  -3.238  -1.546  0.00  0.00    -0.267 N 
ATOM      8  C   UNL     1       0.031  -3.094  -2.886  0.00  0.00    +0.249 C 
ATOM      9  O   UNL     1       0.014  -1.982  -3.378  0.00  0.00    -0.270 OA
ATOM     10  H   UNL     1       0.053  -4.125  -1.154  0.00  0.00    +0.157 HD
BRANCH   7  14
ATOM     11  C   UNL     1      -0.018   1.503   0.010  0.00  0.00    +0.067 C 
ATOM     12  C   UNL     1       0.002  -0.004   0.002  0.00  0.00    +0.062 A 
ATOM     13  C   UNL     1       0.008  -0.815  -1.136  0.00  0.00    +0.068 A 
ATOM     14  C   UNL     1       0.027  -2.112  -0.724  0.00  0.00    +0.121 A 
ATOM     15  N   UNL     1       0.034  -2.109   0.634  0.00  0.00    -0.264 N 
ATOM     16  H   UNL     1       0.047  -2.892   1.207  0.00  0.00    +0.190 HD
ATOM     17  N   UNL     1       0.023  -0.775   1.059  0.00  0.00    -0.178 NA
ENDBRANCH   7  14
ENDBRANCH   1   8
BRANCH   5  18
ATOM     18  N   UNL     1       0.050  -5.125  -7.346  0.00  0.00    -0.098 NA
BRANCH  18  19
ATOM     19  S   UNL     1       0.064  -6.469  -8.314  0.00  0.00    +0.092 S 
ATOM     20  O   UNL     1       1.316  -7.107  -8.106  0.00  0.00    -0.148 OA
ATOM     21  O   UNL     1      -1.174  -7.134  -8.104  0.00  0.00    -0.148 OA
BRANCH  19  22
ATOM     22  C   UNL     1       0.057  -5.907  -9.984  0.00  0.00    +0.110 A 
ATOM     23  C   UNL     1      -1.143  -5.694 -10.637  0.00  0.00    +0.030 A 
ATOM     24  C   UNL     1      -1.149  -5.253 -11.947  0.00  0.00    +0.017 A 
ATOM     25  C   UNL     1       0.045  -5.024 -12.605  0.00  0.00    +0.018 A 
ATOM     26  C   UNL     1       1.246  -5.237 -11.952  0.00  0.00    +0.017 A 
ATOM     27  C   UNL     1       1.251  -5.674 -10.640  0.00  0.00    +0.030 A 
ATOM     28 BR   UNL     1       0.038  -4.421 -14.397  0.00  0.00    -0.050 Br
ENDBRANCH  19  22
ENDBRANCH  18  19
ENDBRANCH   5  18
TORSDOF 5
