REMARK  Name = ZINC20683208
REMARK  6 active torsions:
REMARK  status: ('A' for Active; 'I' for Inactive)
REMARK    1  A    between atoms: C_9  and  C_12
REMARK    2  A    between atoms: C_12  and  N_13
REMARK    3  A    between atoms: C_14  and  C_16
REMARK    4  A    between atoms: C_19  and  N_22
REMARK    5  A    between atoms: N_22  and  C_23
REMARK    6  A    between atoms: C_23  and  N_25
REMARK                            x       y       z     vdW  Elec       q    Type
REMARK                         _______ _______ _______ _____ _____    ______ ____
ROOT
ATOM      1  C   UNL     1       1.287   3.571  -8.054  0.00  0.00    +0.037 A 
ATOM      2  C   UNL     1       1.188   2.177  -8.072  0.00  0.00    +0.015 A 
ATOM      3  C   UNL     1       0.834   1.499  -6.928  0.00  0.00    +0.024 A 
ATOM      4  C   UNL     1       0.574   2.199  -5.754  0.00  0.00    +0.033 A 
ATOM      5  C   UNL     1       0.666   3.588  -5.734  0.00  0.00    +0.024 A 
ATOM      6  C   UNL     1       1.025   4.272  -6.873  0.00  0.00    +0.015 A 
ENDROOT
BRANCH   1   8
ATOM      7  N   UNL     1       1.762   5.646  -9.259  0.00  0.00    -0.308 N 
ATOM      8  C   UNL     1       1.667   4.302  -9.278  0.00  0.00    +0.244 C 
ATOM      9  O   UNL     1       1.895   3.691 -10.305  0.00  0.00    -0.270 OA
ATOM     10  H   UNL     1       1.556   6.199  -8.331  0.00  0.00    +0.149 HD
BRANCH   7  11
ATOM     11  C   UNL     1       2.140   6.371 -10.475  0.00  0.00    +0.152 C 
BRANCH  11  20
ATOM     12  C   UNL     1       4.325  12.121  -8.820  0.00  0.00    +0.004 A 
ATOM     13  C   UNL     1       4.691  11.187  -7.869  0.00  0.00    +0.004 A 
ATOM     14  C   UNL     1       4.322   9.864  -8.019  0.00  0.00    +0.049 A 
ATOM     15  C   UNL     1       3.583   9.469  -9.124  0.00  0.00    +0.163 A 
ATOM     16  C   UNL     1       3.213  10.408 -10.079  0.00  0.00    +0.162 A 
ATOM     17  C   UNL     1       3.588  11.735  -9.924  0.00  0.00    +0.049 A 
ATOM     18  O   UNL     1       2.484  10.043 -11.170  0.00  0.00    -0.485 OA
ATOM     19  C   UNL     1       2.446   8.646 -11.480  0.00  0.00    +0.275 C 
ATOM     20  C   UNL     1       2.174   7.873 -10.183  0.00  0.00    +0.228 C 
ATOM     21  O   UNL     1       3.229   8.162  -9.259  0.00  0.00    -0.480 OA
ENDBRANCH  11  20
ENDBRANCH   7  11
ENDBRANCH   1   8
BRANCH   4  22
ATOM     22  N   UNL     1       0.215   1.509  -4.598  0.00  0.00    -0.297 N 
ATOM     23  H   UNL     1       0.218   0.409  -4.590  0.00  0.00    +0.154 HD
BRANCH  22  24
ATOM     24  C   UNL     1      -0.136   2.190  -3.489  0.00  0.00    +0.137 C 
ATOM     25  S   UNL     1       0.991   2.391  -2.215  0.00  0.00    -0.018 S 
BRANCH  24  26
ATOM     26  N   UNL     1      -1.374   2.712  -3.382  0.00  0.00    -0.312 N 
ATOM     27  C   UNL     1      -1.810   3.361  -2.140  0.00  0.00    +0.112 C 
ATOM     28  C   UNL     1      -3.154   2.802  -1.696  0.00  0.00    +0.027 C 
ATOM     29  C   UNL     1      -4.162   2.817  -2.846  0.00  0.00    +0.018 C 
ATOM     30  C   UNL     1      -3.601   1.969  -3.991  0.00  0.00    +0.054 C 
ATOM     31  C   UNL     1      -2.319   2.644  -4.508  0.00  0.00    +0.116 C 
ATOM     32  C   UNL     1      -3.223   0.601  -3.474  0.00  0.00    +0.027 A 
ATOM     33  C   UNL     1      -3.249  -0.431  -4.359  0.00  0.00    +0.022 A 
ATOM     34  C   UNL     1      -2.849  -1.714  -3.967  0.00  0.00    +0.007 A 
ATOM     35  C   UNL     1      -2.408  -1.906  -2.691  0.00  0.00    +0.070 A 
ATOM     36  C   UNL     1      -2.390  -0.820  -1.805  0.00  0.00    +0.251 A 
ATOM     37  O   UNL     1      -1.938  -0.965  -0.680  0.00  0.00    -0.268 OA
ATOM     38  N   UNL     1      -2.869   0.390  -2.185  0.00  0.00    -0.312 N 
ATOM     39  C   UNL     1      -3.031   1.397  -1.136  0.00  0.00    +0.130 C 
ENDBRANCH  24  26
ENDBRANCH  22  24
ENDBRANCH   4  22
TORSDOF 6
