REMARK  Name = ZINC38693695
REMARK  7 active torsions:
REMARK  status: ('A' for Active; 'I' for Inactive)
REMARK    1  A    between atoms: C_1  and  O_2
REMARK    2  A    between atoms: O_2  and  C_3
REMARK    3  A    between atoms: C_6  and  C_9
REMARK    4  A    between atoms: C_9  and  N_10
REMARK    5  A    between atoms: N_13  and  C_14
REMARK    6  A    between atoms: N_20  and  S_24
REMARK    7  A    between atoms: S_24  and  C_27
REMARK                            x       y       z     vdW  Elec       q    Type
REMARK                         _______ _______ _______ _____ _____    ______ ____
ROOT
ATOM      1  C   UNL     1       6.776  -4.689  -5.229  0.00  0.00    +0.037 A 
ATOM      2  C   UNL     1       6.271  -5.086  -6.461  0.00  0.00    +0.024 A 
ATOM      3  C   UNL     1       7.119  -5.581  -7.429  0.00  0.00    +0.007 A 
ATOM      4  C   UNL     1       8.479  -5.686  -7.184  0.00  0.00    -0.025 A 
ATOM      5  C   UNL     1       8.988  -5.287  -5.957  0.00  0.00    +0.056 A 
ATOM      6  C   UNL     1       8.137  -4.785  -4.980  0.00  0.00    +0.048 A 
ATOM      7  N   UNL     1      10.358  -5.373  -5.686  0.00  0.00    -0.203 N 
ATOM      8  C   UNL     1      11.211  -6.162  -6.585  0.00  0.00    +0.132 C 
ATOM      9  C   UNL     1      10.822  -5.812  -8.027  0.00  0.00    +0.025 C 
ATOM     10  C   UNL     1       9.373  -6.236  -8.264  0.00  0.00    +0.038 C 
ENDROOT
BRANCH   1  14
ATOM     11  N   UNL     1       3.876  -4.277  -3.113  0.00  0.00    -0.295 N 
ATOM     12  C   UNL     1       4.672  -4.692  -4.119  0.00  0.00    +0.304 C 
ATOM     13  O   UNL     1       4.267  -5.519  -4.912  0.00  0.00    -0.252 OA
ATOM     14  N   UNL     1       5.916  -4.189  -4.245  0.00  0.00    -0.269 N 
ATOM     15  H   UNL     1       4.199  -3.617  -2.480  0.00  0.00    +0.151 HD
ATOM     16  H   UNL     1       6.215  -3.481  -3.654  0.00  0.00    +0.156 HD
BRANCH  11  17
ATOM     17  C   UNL     1       2.524  -4.824  -2.976  0.00  0.00    +0.141 C 
BRANCH  17  21
ATOM     18  C   UNL     1       0.609  -3.057   0.412  0.00  0.00    +0.120 A 
ATOM     19  C   UNL     1       0.495  -2.466  -0.838  0.00  0.00    +0.046 A 
ATOM     20  C   UNL     1       1.115  -3.039  -1.932  0.00  0.00    +0.009 A 
ATOM     21  C   UNL     1       1.849  -4.201  -1.781  0.00  0.00    -0.030 A 
ATOM     22  C   UNL     1       1.964  -4.792  -0.537  0.00  0.00    +0.009 A 
ATOM     23  C   UNL     1       1.351  -4.219   0.561  0.00  0.00    +0.046 A 
BRANCH  18  25
ATOM     24  C   UNL     1      -0.747  -1.298   1.261  0.00  0.00    +0.277 C 
ATOM     25  O   UNL     1       0.001  -2.495   1.489  0.00  0.00    -0.495 OA
ENDBRANCH  18  25
ENDBRANCH  17  21
ENDBRANCH  11  17
ENDBRANCH   1  14
BRANCH   7  26
ATOM     26  S   UNL     1      11.007  -4.599  -4.374  0.00  0.00    +0.075 S 
ATOM     27  O   UNL     1      12.404  -4.501  -4.611  0.00  0.00    -0.150 OA
ATOM     28  O   UNL     1      10.193  -3.460  -4.131  0.00  0.00    -0.150 OA
BRANCH  26  29
ATOM     29  C   UNL     1      10.805  -5.667  -2.987  0.00  0.00    +0.109 A 
ATOM     30  C   UNL     1       9.660  -5.588  -2.216  0.00  0.00    +0.031 A 
ATOM     31  C   UNL     1       9.500  -6.426  -1.128  0.00  0.00    +0.040 A 
ATOM     32  C   UNL     1      10.488  -7.343  -0.810  0.00  0.00    +0.124 A 
ATOM     33  C   UNL     1      11.634  -7.420  -1.583  0.00  0.00    +0.040 A 
ATOM     34  C   UNL     1      11.789  -6.585  -2.673  0.00  0.00    +0.031 A 
ATOM     35  F   UNL     1      10.333  -8.161   0.254  0.00  0.00    -0.205 F 
ENDBRANCH  26  29
ENDBRANCH   7  26
TORSDOF 6
