REMARK  Name = ZINC10246296
REMARK  7 active torsions:
REMARK  status: ('A' for Active; 'I' for Inactive)
REMARK    1  A    between atoms: C_1  and  O_2
REMARK    2  A    between atoms: O_2  and  C_3
REMARK    3  A    between atoms: C_6  and  N_9
REMARK    4  A    between atoms: C_11  and  C_16
REMARK    5  A    between atoms: N_18  and  C_19
REMARK    6  A    between atoms: C_27  and  C_28
REMARK    7  A    between atoms: N_30  and  C_31
REMARK                            x       y       z     vdW  Elec       q    Type
REMARK                         _______ _______ _______ _____ _____    ______ ____
ROOT
ATOM      1  C   UNL     1      -3.072   4.091   0.168  0.00  0.00    +0.092 A 
ATOM      2  C   UNL     1      -2.454   5.389   0.465  0.00  0.00    +0.042 A 
ATOM      3  C   UNL     1      -2.953   6.645   0.810  0.00  0.00    +0.013 A 
ATOM      4  C   UNL     1      -2.089   7.683   1.023  0.00  0.00    +0.001 A 
ATOM      5  C   UNL     1      -0.719   7.491   0.907  0.00  0.00    +0.004 A 
ATOM      6  C   UNL     1      -0.207   6.256   0.573  0.00  0.00    +0.047 A 
ATOM      7  C   UNL     1      -1.068   5.188   0.346  0.00  0.00    +0.138 A 
ATOM      8  O   UNL     1      -0.865   3.898   0.012  0.00  0.00    -0.448 OA
ATOM      9  C   UNL     1      -2.038   3.236  -0.097  0.00  0.00    +0.212 A 
ENDROOT
BRANCH   1  12
ATOM     10  C   UNL     1      -5.332   4.764  -0.082  0.00  0.00    +0.222 C 
ATOM     11  O   UNL     1      -4.957   5.885  -0.357  0.00  0.00    -0.275 OA
ATOM     12  N   UNL     1      -4.430   3.792   0.159  0.00  0.00    -0.282 N 
ATOM     13  H   UNL     1      -4.728   2.885   0.326  0.00  0.00    +0.155 HD
BRANCH  10  16
ATOM     14  N   UNL     1      -7.919   6.338   0.980  0.00  0.00    -0.271 N 
ATOM     15  C   UNL     1      -7.647   5.717  -0.322  0.00  0.00    +0.127 C 
ATOM     16  C   UNL     1      -6.806   4.459  -0.010  0.00  0.00    +0.102 C 
ATOM     17  C   UNL     1      -7.236   4.144   1.441  0.00  0.00    +0.110 C 
ATOM     18  C   UNL     1      -7.702   5.475   1.988  0.00  0.00    +0.221 C 
ATOM     19  O   UNL     1      -7.856   5.728   3.164  0.00  0.00    -0.275 OA
BRANCH  14  23
ATOM     20  C   UNL     1      -9.202  10.273   1.487  0.00  0.00    +0.120 A 
ATOM     21  C   UNL     1      -9.089   9.739   0.211  0.00  0.00    +0.047 A 
ATOM     22  C   UNL     1      -8.664   8.437   0.043  0.00  0.00    +0.027 A 
ATOM     23  C   UNL     1      -8.350   7.660   1.150  0.00  0.00    +0.036 A 
ATOM     24  C   UNL     1      -8.469   8.193   2.427  0.00  0.00    +0.027 A 
ATOM     25  C   UNL     1      -8.888   9.498   2.594  0.00  0.00    +0.047 A 
BRANCH  20  27
ATOM     26  C   UNL     1      -9.714  12.040   2.993  0.00  0.00    +0.277 C 
ATOM     27  O   UNL     1      -9.620  11.556   1.652  0.00  0.00    -0.495 OA
ENDBRANCH  20  27
ENDBRANCH  14  23
ENDBRANCH  10  16
ENDBRANCH   1  12
BRANCH   9  28
ATOM     28  C   UNL     1      -2.180   1.823  -0.445  0.00  0.00    +0.285 C 
ATOM     29  O   UNL     1      -3.279   1.300  -0.428  0.00  0.00    -0.266 OA
ATOM     30  N   UNL     1      -1.095   1.101  -0.786  0.00  0.00    -0.279 N 
ATOM     31  H   UNL     1      -0.211   1.496  -0.726  0.00  0.00    +0.155 HD
BRANCH  30  32
ATOM     32  C   UNL     1      -1.242  -0.219  -1.225  0.00  0.00    +0.037 A 
ATOM     33  C   UNL     1      -0.275  -1.167  -0.918  0.00  0.00    +0.026 A 
ATOM     34  C   UNL     1      -0.424  -2.471  -1.347  0.00  0.00    +0.043 A 
ATOM     35  C   UNL     1      -1.533  -2.833  -2.093  0.00  0.00    +0.159 A 
ATOM     36  C   UNL     1      -2.498  -1.888  -2.406  0.00  0.00    +0.160 A 
ATOM     37  C   UNL     1      -2.354  -0.583  -1.973  0.00  0.00    +0.064 A 
ATOM     38  F   UNL     1      -3.579  -2.243  -3.134  0.00  0.00    -0.202 F 
ATOM     39  F   UNL     1      -1.674  -4.108  -2.516  0.00  0.00    -0.202 F 
ENDBRANCH  30  32
ENDBRANCH   9  28
TORSDOF 6
