REMARK  Name = ZINC14957159
REMARK  12 active torsions:
REMARK  status: ('A' for Active; 'I' for Inactive)
REMARK    1  A    between atoms: C_1  and  C_2
REMARK    2  A    between atoms: C_2  and  O_3
REMARK    3  A    between atoms: O_3  and  C_4
REMARK    4  A    between atoms: C_4  and  C_6
REMARK    5  A    between atoms: C_13  and  C_26
REMARK    6  A    between atoms: C_16  and  O_24
REMARK    7  A    between atoms: C_19  and  O_22
REMARK    8  A    between atoms: O_22  and  C_23
REMARK    9  A    between atoms: O_24  and  C_25
REMARK   10  A    between atoms: C_26  and  N_27
REMARK   11  A    between atoms: N_27  and  C_28
REMARK   12  A    between atoms: C_28  and  C_29
REMARK                            x       y       z     vdW  Elec       q    Type
REMARK                         _______ _______ _______ _____ _____    ______ ____
ROOT
ATOM      1  C   UNL     1       1.949   1.933   1.020  0.00  0.00    +0.101 C 
ATOM      2  C   UNL     1       1.837   1.350  -0.391  0.00  0.00    +0.033 C 
ATOM      3  C   UNL     1       0.387   0.942  -0.656  0.00  0.00    +0.107 C 
ATOM      4  N   UNL     1      -0.032  -0.055   0.338  0.00  0.00    -0.315 N 
ATOM      5  C   UNL     1       0.021   0.497   1.698  0.00  0.00    +0.107 C 
ATOM      6  C   UNL     1       1.461   0.893   2.033  0.00  0.00    +0.033 C 
ATOM      7  C   UNL     1      -1.298  -0.544   0.049  0.00  0.00    +0.123 A 
ATOM      8  C   UNL     1      -1.454  -1.902  -0.259  0.00  0.00    -0.024 A 
ATOM      9  C   UNL     1      -2.692  -2.397  -0.538  0.00  0.00    +0.018 A 
ATOM     10  C   UNL     1      -3.786  -1.510  -0.520  0.00  0.00    +0.046 A 
ATOM     11  C   UNL     1      -5.091  -1.954  -0.806  0.00  0.00    +0.129 A 
ATOM     12  C   UNL     1      -6.135  -1.057  -0.778  0.00  0.00    +0.050 A 
ATOM     13  C   UNL     1      -5.912   0.282  -0.470  0.00  0.00    +0.051 A 
ATOM     14  C   UNL     1      -4.657   0.741  -0.189  0.00  0.00    +0.146 A 
ATOM     15  C   UNL     1      -3.564  -0.148  -0.207  0.00  0.00    +0.118 A 
ATOM     16  N   UNL     1      -2.325   0.281   0.065  0.00  0.00    -0.228 NA
ENDROOT
BRANCH   1  17
ATOM     17  C   UNL     1       3.386   2.282   1.310  0.00  0.00    +0.310 C 
ATOM     18  O   UNL     1       3.962   1.755   2.232  0.00  0.00    -0.251 OA
BRANCH  17  19
ATOM     19  O   UNL     1       4.026   3.180   0.545  0.00  0.00    -0.465 OA
BRANCH  19  21
ATOM     20  C   UNL     1       5.965   4.507  -0.094  0.00  0.00    +0.048 C 
ATOM     21  C   UNL     1       5.408   3.468   0.882  0.00  0.00    +0.229 C 
ENDBRANCH  19  21
ENDBRANCH  17  19
ENDBRANCH   1  17
BRANCH  14  22
ATOM     22  O   UNL     1      -4.463   2.053   0.109  0.00  0.00    -0.493 OA
ATOM     23  C   UNL     1      -5.616   2.896   0.110  0.00  0.00    +0.277 C 
ENDBRANCH  14  22
BRANCH  11  24
ATOM     24  O   UNL     1      -5.319  -3.260  -1.107  0.00  0.00    -0.494 OA
ATOM     25  C   UNL     1      -6.670  -3.635  -1.386  0.00  0.00    +0.277 C 
ENDBRANCH  11  24
BRANCH   8  26
ATOM     26  C   UNL     1      -0.255  -2.815  -0.274  0.00  0.00    -0.043 C 
BRANCH  26  27
ATOM     27  N   UNL     1       0.128  -3.143   1.106  0.00  0.00    +0.384 N 
ATOM     28  H   UNL     1       0.378  -2.219   1.647  0.00  0.00    -0.085 HD
ATOM     29  H   UNL     1      -0.710  -3.647   1.609  0.00  0.00    -0.085 HD
BRANCH  27  30
ATOM     30  C   UNL     1       1.296  -4.034   1.131  0.00  0.00    -0.034 C 
BRANCH  30  31
ATOM     31  C   UNL     1       1.665  -4.352   2.581  0.00  0.00    +0.194 C 
ATOM     32  C   UNL     1       2.903  -5.258   2.614  0.00  0.00    +0.271 C 
ATOM     33  O   UNL     1       3.227  -5.525   3.982  0.00  0.00    -0.485 OA
ATOM     34  C   UNL     1       3.232  -4.459   4.829  0.00  0.00    +0.162 A 
ATOM     35  C   UNL     1       3.870  -4.567   6.055  0.00  0.00    +0.049 A 
ATOM     36  C   UNL     1       3.881  -3.494   6.926  0.00  0.00    +0.004 A 
ATOM     37  C   UNL     1       3.256  -2.311   6.578  0.00  0.00    +0.004 A 
ATOM     38  C   UNL     1       2.619  -2.197   5.357  0.00  0.00    +0.049 A 
ATOM     39  C   UNL     1       2.605  -3.269   4.478  0.00  0.00    +0.162 A 
ATOM     40  O   UNL     1       1.977  -3.141   3.277  0.00  0.00    -0.484 OA
ENDBRANCH  30  31
ENDBRANCH  27  30
ENDBRANCH  26  27
ENDBRANCH   8  26
TORSDOF 9
