REMARK  Name = ZINC39361905
REMARK  10 active torsions:
REMARK  status: ('A' for Active; 'I' for Inactive)
REMARK    1  A    between atoms: C_1  and  C_2
REMARK    2  A    between atoms: C_2  and  C_3
REMARK    3  A    between atoms: C_9  and  C_11
REMARK    4  A    between atoms: C_11  and  S_12
REMARK    5  A    between atoms: S_12  and  C_13
REMARK    6  A    between atoms: C_17  and  C_28
REMARK    7  A    between atoms: N_19  and  C_20
REMARK    8  A    between atoms: C_22  and  C_27
REMARK    9  A    between atoms: C_25  and  C_26
REMARK   10  A    between atoms: C_28  and  C_29
REMARK                            x       y       z     vdW  Elec       q    Type
REMARK                         _______ _______ _______ _____ _____    ______ ____
ROOT
ATOM      1  C   UNL     1       5.223  -3.356  -8.721  0.00  0.00    +0.276 C 
ATOM      2  N   UNL     1       4.637  -2.383  -9.644  0.00  0.00    -0.156 NA
ATOM      3  N   UNL     1       3.643  -2.833 -10.212  0.00  0.00    -0.166 NA
ATOM      4  C   UNL     1       3.351  -4.204  -9.791  0.00  0.00    +0.222 C 
ATOM      5  N   UNL     1       4.387  -4.566  -8.806  0.00  0.00    -0.274 N 
ENDROOT
BRANCH   5   6
ATOM      6  C   UNL     1       4.539  -5.770  -8.115  0.00  0.00    +0.037 A 
ATOM      7  C   UNL     1       3.788  -6.018  -6.973  0.00  0.00    +0.027 A 
ATOM      8  C   UNL     1       3.941  -7.210  -6.293  0.00  0.00    -0.049 A 
ATOM      9  C   UNL     1       4.841  -8.157  -6.747  0.00  0.00    +0.004 A 
ATOM     10  C   UNL     1       5.591  -7.913  -7.883  0.00  0.00    +0.005 A 
ATOM     11  C   UNL     1       5.438  -6.726  -8.571  0.00  0.00    -0.029 A 
ATOM     12  C   UNL     1       6.251  -6.464  -9.813  0.00  0.00    +0.045 C 
ATOM     13  C   UNL     1       3.126  -7.480  -5.054  0.00  0.00    +0.044 C 
ENDBRANCH   5   6
BRANCH   1  14
ATOM     14  S   UNL     1       5.202  -2.701  -7.029  0.00  0.00    -0.104 S 
BRANCH  14  15
ATOM     15  C   UNL     1       3.449  -2.359  -6.713  0.00  0.00    +0.168 C 
BRANCH  15  22
ATOM     16  C   UNL     1       1.289   0.018  -1.253  0.00  0.00    +0.103 A 
ATOM     17  N   UNL     1       2.549  -0.248  -1.534  0.00  0.00    -0.145 NA
ATOM     18  N   UNL     1       2.838  -0.722  -2.669  0.00  0.00    -0.126 NA
ATOM     19  C   UNL     1       1.916  -0.958  -3.581  0.00  0.00    +0.188 A 
ATOM     20  S   UNL     1       0.510  -0.481  -2.782  0.00  0.00    -0.035 S 
ATOM     21  N   UNL     1       2.064  -1.472  -4.865  0.00  0.00    -0.263 N 
ATOM     22  C   UNL     1       3.289  -1.802  -5.322  0.00  0.00    +0.229 C 
ATOM     23  O   UNL     1       4.261  -1.651  -4.614  0.00  0.00    -0.275 OA
ATOM     24  H   UNL     1       1.286  -1.593  -5.432  0.00  0.00    +0.157 HD
BRANCH  16  26
ATOM     25  C   UNL     1       0.630   2.106  -0.088  0.00  0.00    +0.011 C 
ATOM     26  C   UNL     1       0.677   0.579   0.005  0.00  0.00    +0.061 C 
ENDBRANCH  16  26
ENDBRANCH  15  22
ENDBRANCH  14  15
ENDBRANCH   1  14
BRANCH   4  27
ATOM     27  C   UNL     1       3.417  -5.148 -10.993  0.00  0.00    +0.102 C 
BRANCH  27  28
ATOM     28  C   UNL     1       2.349  -4.770 -11.988  0.00  0.00    +0.029 A 
ATOM     29  N   UNL     1       1.075  -5.247 -11.844  0.00  0.00    -0.311 N 
ATOM     30  C   UNL     1       0.115  -4.915 -12.726  0.00  0.00    +0.327 A 
ATOM     31  O   UNL     1      -1.011  -5.351 -12.579  0.00  0.00    -0.247 OA
ATOM     32  N   UNL     1       0.383  -4.107 -13.768  0.00  0.00    -0.275 N 
ATOM     33  C   UNL     1       1.626  -3.616 -13.945  0.00  0.00    +0.254 A 
ATOM     34  O   UNL     1       1.869  -2.885 -14.889  0.00  0.00    -0.268 OA
ATOM     35  C   UNL     1       2.644  -3.954 -13.022  0.00  0.00    +0.091 A 
ATOM     36  H   UNL     1      -0.321  -3.878 -14.395  0.00  0.00    +0.173 HD
ATOM     37  H   UNL     1       0.862  -5.831 -11.099  0.00  0.00    +0.170 HD
ENDBRANCH  27  28
ENDBRANCH   4  27
TORSDOF 7
