REMARK  Name = ZINC66980469
REMARK  10 active torsions:
REMARK  status: ('A' for Active; 'I' for Inactive)
REMARK    1  A    between atoms: C_1  and  C_2
REMARK    2  A    between atoms: C_2  and  C_3
REMARK    3  A    between atoms: C_2  and  C_4
REMARK    4  A    between atoms: C_4  and  C_6
REMARK    5  A    between atoms: C_4  and  N_14
REMARK    6  A    between atoms: C_9  and  O_12
REMARK    7  A    between atoms: O_12  and  C_13
REMARK    8  A    between atoms: N_17  and  C_18
REMARK    9  A    between atoms: C_20  and  N_26
REMARK   10  A    between atoms: C_27  and  C_29
REMARK                            x       y       z     vdW  Elec       q    Type
REMARK                         _______ _______ _______ _____ _____    ______ ____
ROOT
ATOM      1  N   UNL     1      -2.119  -0.066   1.173  0.00  0.00    -0.292 N 
ATOM      2  C   UNL     1      -2.696   1.152   1.195  0.00  0.00    +0.304 C 
ATOM      3  O   UNL     1      -2.661   1.859   0.207  0.00  0.00    -0.252 OA
ATOM      4  N   UNL     1      -3.313   1.585   2.312  0.00  0.00    -0.267 N 
ATOM      5  H   UNL     1      -2.148  -0.630   1.962  0.00  0.00    +0.151 HD
ATOM      6  H   UNL     1      -3.398   0.997   3.079  0.00  0.00    +0.156 HD
ENDROOT
BRANCH   4   7
ATOM      7  C   UNL     1      -3.832   2.886   2.367  0.00  0.00    +0.072 A 
ATOM      8  C   UNL     1      -4.375   3.465   1.229  0.00  0.00    +0.052 A 
ATOM      9  C   UNL     1      -4.887   4.753   1.285  0.00  0.00    +0.071 A 
ATOM     10  C   UNL     1      -4.856   5.461   2.482  0.00  0.00    +0.147 A 
ATOM     11  C   UNL     1      -4.314   4.882   3.615  0.00  0.00    +0.080 A 
ATOM     12  C   UNL     1      -3.808   3.595   3.562  0.00  0.00    +0.147 A 
ATOM     13  F   UNL     1      -3.284   3.030   4.672  0.00  0.00    -0.203 F 
ATOM     14  F   UNL     1      -5.356   6.715   2.537  0.00  0.00    -0.203 F 
BRANCH   9  15
ATOM     15  N   UNL     1      -5.436   5.340   0.137  0.00  0.00    -0.283 N 
ATOM     16  C   UNL     1      -6.103   4.582  -0.755  0.00  0.00    +0.214 C 
ATOM     17  O   UNL     1      -6.159   3.379  -0.606  0.00  0.00    -0.276 OA
ATOM     18  C   UNL     1      -6.778   5.227  -1.937  0.00  0.00    +0.109 C 
ATOM     19  H   UNL     1      -5.335   6.293  -0.016  0.00  0.00    +0.155 HD
ENDBRANCH   9  15
ENDBRANCH   4   7
BRANCH   1  20
ATOM     20  C   UNL     1      -1.449  -0.537  -0.041  0.00  0.00    +0.107 C 
BRANCH  20  21
ATOM     21  C   UNL     1      -1.438  -2.044  -0.056  0.00  0.00    -0.027 A 
ATOM     22  C   UNL     1      -1.207  -2.745   1.114  0.00  0.00    +0.009 A 
ATOM     23  C   UNL     1      -1.196  -4.126   1.102  0.00  0.00    +0.046 A 
ATOM     24  C   UNL     1      -1.418  -4.811  -0.084  0.00  0.00    +0.120 A 
ATOM     25  C   UNL     1      -1.649  -4.106  -1.256  0.00  0.00    +0.046 A 
ATOM     26  C   UNL     1      -1.664  -2.724  -1.238  0.00  0.00    +0.009 A 
BRANCH  24  27
ATOM     27  O   UNL     1      -1.407  -6.169  -0.098  0.00  0.00    -0.495 OA
ATOM     28  C   UNL     1      -1.642  -6.807  -1.355  0.00  0.00    +0.277 C 
ENDBRANCH  24  27
ENDBRANCH  20  21
BRANCH  20  30
ATOM     29  C   UNL     1      -0.021   1.513  -0.049  0.00  0.00    +0.009 C 
ATOM     30  C   UNL     1      -0.010  -0.017  -0.064  0.00  0.00    +0.008 C 
ATOM     31  C   UNL     1       0.739  -0.534   1.166  0.00  0.00    +0.009 C 
ENDBRANCH  20  30
ENDBRANCH   1  20
TORSDOF 6
