REMARK  Name = ZINC09523010
REMARK  8 active torsions:
REMARK  status: ('A' for Active; 'I' for Inactive)
REMARK    1  A    between atoms: C_1  and  C_2
REMARK    2  A    between atoms: N_11  and  S_12
REMARK    3  A    between atoms: S_12  and  C_15
REMARK    4  A    between atoms: C_15  and  C_16
REMARK    5  A    between atoms: C_16  and  N_17
REMARK    6  A    between atoms: C_18  and  C_20
REMARK    7  A    between atoms: C_22  and  C_30
REMARK    8  A    between atoms: C_24  and  C_26
REMARK                            x       y       z     vdW  Elec       q    Type
REMARK                         _______ _______ _______ _____ _____    ______ ____
ROOT
ATOM      1  N   UNL     1       3.642   3.508  -0.016  0.00  0.00    -0.310 N 
ATOM      2  C   UNL     1       3.657   2.160  -0.023  0.00  0.00    +0.244 C 
ATOM      3  O   UNL     1       4.716   1.564  -0.036  0.00  0.00    -0.270 OA
ATOM      4  H   UNL     1       2.797   3.984  -0.005  0.00  0.00    +0.149 HD
ENDROOT
BRANCH   2   5
ATOM      5  C   UNL     1       2.385   1.407  -0.014  0.00  0.00    +0.038 A 
ATOM      6  C   UNL     1       1.167   2.088   0.002  0.00  0.00    +0.025 A 
ATOM      7  C   UNL     1      -0.017   1.379   0.010  0.00  0.00    +0.056 A 
ATOM      8  C   UNL     1       0.002  -0.004   0.002  0.00  0.00    +0.024 A 
ATOM      9  C   UNL     1       1.206  -0.686  -0.013  0.00  0.00    +0.056 A 
ATOM     10  C   UNL     1       2.397   0.011  -0.021  0.00  0.00    +0.025 A 
BRANCH   9  11
ATOM     11  C   UNL     1       1.217  -2.193  -0.020  0.00  0.00    +0.417 C 
ATOM     12  F   UNL     1       1.208  -2.652  -1.342  0.00  0.00    -0.166 F 
ATOM     13  F   UNL     1       2.369  -2.654   0.626  0.00  0.00    -0.166 F 
ATOM     14  F   UNL     1       0.084  -2.671   0.647  0.00  0.00    -0.166 F 
ENDBRANCH   9  11
BRANCH   7  15
ATOM     15  C   UNL     1      -1.333   2.113   0.020  0.00  0.00    +0.417 C 
ATOM     16  F   UNL     1      -1.734   2.333   1.342  0.00  0.00    -0.166 F 
ATOM     17  F   UNL     1      -1.187   3.342  -0.634  0.00  0.00    -0.166 F 
ATOM     18  F   UNL     1      -2.300   1.347  -0.639  0.00  0.00    -0.166 F 
ENDBRANCH   7  15
ENDBRANCH   2   5
BRANCH   1  19
ATOM     19  C   UNL     1       4.903   4.254  -0.025  0.00  0.00    +0.129 C 
BRANCH  19  20
ATOM     20  C   UNL     1       4.606   5.755  -0.014  0.00  0.00    +0.207 C 
BRANCH  20  21
ATOM     21  S   UNL     1       6.167   6.680  -0.025  0.00  0.00    +0.046 S 
ATOM     22  O   UNL     1       6.858   6.488   1.202  0.00  0.00    -0.155 OA
ATOM     23  O   UNL     1       6.833   6.501  -1.268  0.00  0.00    -0.155 OA
BRANCH  21  34
ATOM     24  C   UNL     1       1.990  11.292   6.090  0.00  0.00    +0.044 C 
ATOM     25  C   UNL     1       2.707  10.442   5.073  0.00  0.00    -0.049 A 
ATOM     26  C   UNL     1       2.958   9.103   5.331  0.00  0.00    +0.005 A 
ATOM     27  C   UNL     1       3.609   8.309   4.424  0.00  0.00    +0.029 A 
ATOM     28  C   UNL     1       4.048   8.835   3.187  0.00  0.00    +0.080 A 
ATOM     29  C   UNL     1       3.775  10.202   2.958  0.00  0.00    +0.041 A 
ATOM     30  C   UNL     1       3.122  10.990   3.873  0.00  0.00    +0.020 A 
ATOM     31  S   UNL     1       4.474  10.464   1.346  0.00  0.00    -0.051 S 
ATOM     32  C   UNL     1       5.056   8.795   1.080  0.00  0.00    +0.178 A 
ATOM     33  N   UNL     1       4.698   8.193   2.191  0.00  0.00    -0.224 NA
ATOM     34  N   UNL     1       5.718   8.274  -0.013  0.00  0.00    -0.198 N 
ATOM     35  H   UNL     1       5.920   8.841  -0.773  0.00  0.00    +0.175 HD
ENDBRANCH  21  34
ENDBRANCH  20  21
ENDBRANCH  19  20
ENDBRANCH   1  19
TORSDOF 7
