REMARK  Name = ZINC38595784
REMARK  8 active torsions:
REMARK  status: ('A' for Active; 'I' for Inactive)
REMARK    1  A    between atoms: C_1  and  C_2
REMARK    2  A    between atoms: C_2  and  C_4
REMARK    3  A    between atoms: C_2  and  N_24
REMARK    4  A    between atoms: C_4  and  C_6
REMARK    5  A    between atoms: C_4  and  N_11
REMARK    6  A    between atoms: N_14  and  C_17
REMARK    7  A    between atoms: C_17  and  C_18
REMARK    8  A    between atoms: C_25  and  C_27
REMARK                            x       y       z     vdW  Elec       q    Type
REMARK                         _______ _______ _______ _____ _____    ______ ____
ROOT
ATOM      1  C   UNL     1       0.848  -0.509   1.173  0.00  0.00    +0.113 C 
ENDROOT
BRANCH   1   2
ATOM      2  N   UNL     1       2.103   0.249   1.262  0.00  0.00    -0.297 NA
ATOM      3  C   UNL     1       2.803  -0.037   2.522  0.00  0.00    +0.066 C 
ATOM      4  C   UNL     1       4.072   0.815   2.602  0.00  0.00    -0.063 C 
ATOM      5  N   UNL     1       4.940   0.509   1.458  0.00  0.00    +0.384 N 
ATOM      6  C   UNL     1       4.236   0.823   0.208  0.00  0.00    -0.063 C 
ATOM      7  C   UNL     1       2.969  -0.029   0.108  0.00  0.00    +0.066 C 
ATOM      8  H   UNL     1       5.181  -0.471   1.471  0.00  0.00    -0.081 HD
BRANCH   5   9
ATOM      9  C   UNL     1       6.166   1.314   1.545  0.00  0.00    -0.043 C 
BRANCH   9  10
ATOM     10  C   UNL     1       7.110   0.912   0.441  0.00  0.00    -0.064 A 
ATOM     11  C   UNL     1       8.029  -0.099   0.651  0.00  0.00    +0.002 A 
ATOM     12  C   UNL     1       8.895  -0.467  -0.361  0.00  0.00    +0.000 A 
ATOM     13  C   UNL     1       8.842   0.175  -1.584  0.00  0.00    +0.000 A 
ATOM     14  C   UNL     1       7.923   1.186  -1.794  0.00  0.00    +0.000 A 
ATOM     15  C   UNL     1       7.054   1.551  -0.783  0.00  0.00    +0.002 A 
ENDBRANCH   9  10
ENDBRANCH   5   9
ENDBRANCH   1   2
BRANCH   1  16
ATOM     16  C   UNL     1       0.000  -0.222   2.385  0.00  0.00    +0.009 A 
ATOM     17  C   UNL     1      -0.707  -1.084   3.156  0.00  0.00    +0.013 A 
ATOM     18  C   UNL     1      -1.420  -0.591   4.233  0.00  0.00    +0.008 A 
ATOM     19  C   UNL     1      -1.391   0.741   4.486  0.00  0.00    +0.045 A 
ATOM     20  S   UNL     1      -0.327   1.341   3.184  0.00  0.00    -0.100 S 
ENDBRANCH   1  16
BRANCH   1  22
ATOM     21  C   UNL     1      -0.127   1.421  -0.079  0.00  0.00    +0.030 C 
ATOM     22  C   UNL     1       0.089  -0.094  -0.089  0.00  0.00    +0.092 C 
BRANCH  22  23
ATOM     23  N   UNL     1      -1.209  -0.772  -0.125  0.00  0.00    -0.308 N 
ATOM     24  C   UNL     1      -1.827  -0.983  -1.303  0.00  0.00    +0.257 C 
ATOM     25  O   UNL     1      -1.309  -0.611  -2.335  0.00  0.00    -0.272 OA
ATOM     26  H   UNL     1      -1.623  -1.070   0.700  0.00  0.00    +0.149 HD
BRANCH  24  27
ATOM     27  C   UNL     1      -3.162  -1.681  -1.340  0.00  0.00    +0.296 C 
ATOM     28  C   UNL     1      -3.000  -3.133  -0.870  0.00  0.00    +0.283 C 
ATOM     29  O   UNL     1      -4.281  -3.769  -0.930  0.00  0.00    -0.484 OA
ATOM     30  C   UNL     1      -5.007  -3.576  -2.065  0.00  0.00    +0.162 A 
ATOM     31  C   UNL     1      -6.064  -4.428  -2.350  0.00  0.00    +0.049 A 
ATOM     32  C   UNL     1      -6.813  -4.242  -3.497  0.00  0.00    +0.004 A 
ATOM     33  C   UNL     1      -6.510  -3.208  -4.363  0.00  0.00    +0.004 A 
ATOM     34  C   UNL     1      -5.458  -2.357  -4.085  0.00  0.00    +0.049 A 
ATOM     35  C   UNL     1      -4.702  -2.538  -2.937  0.00  0.00    +0.163 A 
ATOM     36  O   UNL     1      -3.663  -1.696  -2.681  0.00  0.00    -0.473 OA
ENDBRANCH  24  27
ENDBRANCH  22  23
ENDBRANCH   1  22
TORSDOF 7
