REMARK  Name = ZINC22965625
REMARK  5 active torsions:
REMARK  status: ('A' for Active; 'I' for Inactive)
REMARK    1  A    between atoms: C_3  and  C_16
REMARK    2  A    between atoms: C_5  and  N_7
REMARK    3  A    between atoms: C_8  and  C_10
REMARK    4  A    between atoms: N_18  and  C_19
REMARK    5  A    between atoms: C_20  and  C_27
REMARK                            x       y       z     vdW  Elec       q    Type
REMARK                         _______ _______ _______ _____ _____    ______ ____
ROOT
ATOM      1  C   UNL     1      -2.741  -1.220   2.112  0.00  0.00    +0.249 C 
ATOM      2  O   UNL     1      -2.408  -2.389   2.108  0.00  0.00    -0.270 OA
ATOM      3  N   UNL     1      -1.926  -0.285   1.585  0.00  0.00    -0.266 N 
ATOM      4  H   UNL     1      -2.195   0.779   1.650  0.00  0.00    +0.157 HD
ENDROOT
BRANCH   3   5
ATOM      5  C   UNL     1      -0.739  -0.667   0.958  0.00  0.00    +0.138 A 
ATOM      6  C   UNL     1      -0.421  -0.470  -0.352  0.00  0.00    +0.112 A 
ATOM      7  N   UNL     1       0.814  -0.990  -0.564  0.00  0.00    -0.219 NA
ATOM      8  C   UNL     1       1.260  -1.482   0.553  0.00  0.00    +0.179 A 
ATOM      9  N   UNL     1       0.335  -1.319   1.556  0.00  0.00    -0.281 N 
ATOM     10  C   UNL     1       0.676  -1.804   2.802  0.00  0.00    +0.102 A 
ATOM     11  C   UNL     1       1.850  -2.398   3.005  0.00  0.00    +0.067 A 
ATOM     12  S   UNL     1       2.594  -2.314   1.383  0.00  0.00    -0.058 S 
BRANCH   6  13
ATOM     13  C   UNL     1      -1.276   0.191  -1.367  0.00  0.00    +0.004 A 
ATOM     14  C   UNL     1      -2.660   0.029  -1.327  0.00  0.00    +0.013 A 
ATOM     15  C   UNL     1      -3.452   0.651  -2.271  0.00  0.00    +0.039 A 
ATOM     16  C   UNL     1      -2.873   1.425  -3.263  0.00  0.00    +0.123 A 
ATOM     17  C   UNL     1      -1.497   1.583  -3.310  0.00  0.00    +0.039 A 
ATOM     18  C   UNL     1      -0.697   0.970  -2.368  0.00  0.00    +0.013 A 
ATOM     19  F   UNL     1      -3.652   2.026  -4.189  0.00  0.00    -0.205 F 
ENDBRANCH   6  13
ENDBRANCH   3   5
BRANCH   1  22
ATOM     20  C   UNL     1      -5.638   0.885   3.247  0.00  0.00    +0.003 A 
ATOM     21  C   UNL     1      -4.423   0.519   2.707  0.00  0.00    +0.013 A 
ATOM     22  C   UNL     1      -4.040  -0.824   2.695  0.00  0.00    +0.039 A 
ATOM     23  C   UNL     1      -4.886  -1.790   3.241  0.00  0.00    +0.036 A 
ATOM     24  C   UNL     1      -6.102  -1.411   3.786  0.00  0.00    +0.034 A 
ATOM     25  C   UNL     1      -6.476  -0.072   3.788  0.00  0.00    +0.023 A 
BRANCH  24  26
ATOM     26  N   UNL     1      -6.955  -2.376   4.335  0.00  0.00    -0.283 N 
ATOM     27  C   UNL     1      -7.029  -3.602   3.781  0.00  0.00    +0.246 C 
ATOM     28  O   UNL     1      -6.388  -3.857   2.783  0.00  0.00    -0.273 OA
ATOM     29  H   UNL     1      -7.564  -2.134   5.218  0.00  0.00    +0.155 HD
BRANCH  27  30
ATOM     30  C   UNL     1      -7.909  -4.657   4.401  0.00  0.00    +0.204 C 
ATOM     31  C   UNL     1      -9.387  -4.233   4.299  0.00  0.00    +0.043 C 
ATOM     32  C   UNL     1     -10.057  -5.379   3.502  0.00  0.00    +0.031 C 
ATOM     33  C   UNL     1      -9.057  -6.545   3.709  0.00  0.00    +0.161 C 
ATOM     34  O   UNL     1      -7.766  -5.895   3.684  0.00  0.00    -0.367 OA
ENDBRANCH  27  30
ENDBRANCH  24  26
ENDBRANCH   1  22
TORSDOF 5
