REMARK  Name = ZINC30983309
REMARK  9 active torsions:
REMARK  status: ('A' for Active; 'I' for Inactive)
REMARK    1  A    between atoms: C_1  and  C_2
REMARK    2  A    between atoms: N_5  and  C_8
REMARK    3  A    between atoms: C_11  and  C_14
REMARK    4  A    between atoms: C_14  and  C_16
REMARK    5  A    between atoms: C_14  and  N_17
REMARK    6  A    between atoms: C_18  and  C_20
REMARK    7  A    between atoms: N_23  and  C_26
REMARK    8  A    between atoms: C_26  and  C_27
REMARK    9  A    between atoms: C_29  and  C_32
REMARK                            x       y       z     vdW  Elec       q    Type
REMARK                         _______ _______ _______ _____ _____    ______ ____
ROOT
ATOM      1  C   UNL     1       2.783  -1.099   2.395  0.00  0.00    +0.071 C 
ATOM      2  C   UNL     1       2.509  -0.161   3.573  0.00  0.00    -0.006 C 
ATOM      3  C   UNL     1       3.300  -0.638   4.793  0.00  0.00    -0.077 C 
ATOM      4  N   UNL     1       4.733  -0.649   4.476  0.00  0.00    +0.386 N 
ATOM      5  C   UNL     1       5.027  -1.579   3.378  0.00  0.00    -0.077 C 
ATOM      6  C   UNL     1       4.288  -1.129   2.115  0.00  0.00    -0.006 C 
ATOM      7  H   UNL     1       5.010   0.362   4.142  0.00  0.00    -0.081 HD
ENDROOT
BRANCH   1   9
ATOM      8  N   UNL     1       0.711  -0.489   1.189  0.00  0.00    -0.309 N 
ATOM      9  C   UNL     1       2.054  -0.600   1.174  0.00  0.00    +0.216 C 
ATOM     10  O   UNL     1       2.676  -0.297   0.177  0.00  0.00    -0.276 OA
ATOM     11  H   UNL     1       0.146  -0.764   2.092  0.00  0.00    +0.149 HD
BRANCH   8  12
ATOM     12  C   UNL     1       0.002  -0.004   0.002  0.00  0.00    +0.100 C 
ATOM     13  C   UNL     1      -0.019   1.526   0.010  0.00  0.00    +0.033 C 
BRANCH  12  17
ATOM     14  C   UNL     1      -4.008  -1.483   0.032  0.00  0.00    +0.030 A 
ATOM     15  C   UNL     1      -3.294  -1.432  -1.158  0.00  0.00    +0.023 A 
ATOM     16  C   UNL     1      -1.998  -0.953  -1.164  0.00  0.00    +0.007 A 
ATOM     17  C   UNL     1      -1.412  -0.526   0.013  0.00  0.00    -0.027 A 
ATOM     18  C   UNL     1      -2.118  -0.581   1.200  0.00  0.00    +0.007 A 
ATOM     19  C   UNL     1      -3.416  -1.053   1.213  0.00  0.00    +0.023 A 
BRANCH  14  24
ATOM     20  C   UNL     1      -9.537  -2.563   0.372  0.00  0.00    +0.007 C 
ATOM     21  C   UNL     1      -8.178  -1.863   0.423  0.00  0.00    -0.011 C 
ATOM     22  C   UNL     1      -7.257  -2.602   1.397  0.00  0.00    +0.022 C 
ATOM     23  C   UNL     1      -5.881  -1.933   1.398  0.00  0.00    +0.105 C 
ATOM     24  N   UNL     1      -5.318  -1.967   0.042  0.00  0.00    -0.330 N 
ATOM     25  C   UNL     1      -6.161  -1.223  -0.902  0.00  0.00    +0.105 C 
ATOM     26  C   UNL     1      -7.546  -1.871  -0.972  0.00  0.00    +0.022 C 
ENDBRANCH  14  24
ENDBRANCH  12  17
ENDBRANCH   8  12
ENDBRANCH   1   9
BRANCH   4  27
ATOM     27  C   UNL     1       5.534  -0.969   5.665  0.00  0.00    +0.022 C 
BRANCH  27  28
ATOM     28  C   UNL     1       5.394   0.138   6.678  0.00  0.00    +0.211 A 
ATOM     29  N   UNL     1       4.493   0.216   7.625  0.00  0.00    -0.193 NA
ATOM     30  C   UNL     1       4.754   1.369   8.281  0.00  0.00    +0.202 A 
ATOM     31  N   UNL     1       5.788   1.919   7.699  0.00  0.00    -0.056 NA
ATOM     32  O   UNL     1       6.169   1.222   6.782  0.00  0.00    -0.340 OA
BRANCH  30  33
ATOM     33  C   UNL     1       4.007   1.911   9.443  0.00  0.00    +0.023 A 
ATOM     34  C   UNL     1       2.914   1.215   9.957  0.00  0.00    +0.014 A 
ATOM     35  C   UNL     1       2.225   1.720  11.040  0.00  0.00    +0.039 A 
ATOM     36  C   UNL     1       2.612   2.922  11.611  0.00  0.00    +0.123 A 
ATOM     37  C   UNL     1       3.695   3.619  11.100  0.00  0.00    +0.039 A 
ATOM     38  C   UNL     1       4.393   3.119  10.020  0.00  0.00    +0.014 A 
ATOM     39  F   UNL     1       1.932   3.415  12.669  0.00  0.00    -0.205 F 
ENDBRANCH  30  33
ENDBRANCH  27  28
ENDBRANCH   4  27
TORSDOF 7
