REMARK  Name = ZINC21263166
REMARK  15 active torsions:
REMARK  status: ('A' for Active; 'I' for Inactive)
REMARK    1  A    between atoms: C_1  and  C_2
REMARK    2  A    between atoms: C_2  and  C_32
REMARK    3  A    between atoms: C_4  and  N_10
REMARK    4  A    between atoms: C_6  and  C_8
REMARK    5  A    between atoms: C_6  and  C_9
REMARK    6  A    between atoms: N_10  and  C_11
REMARK    7  A    between atoms: C_11  and  N_13
REMARK    8  A    between atoms: N_13  and  C_14
REMARK    9  A    between atoms: N_13  and  C_25
REMARK   10  A    between atoms: C_14  and  C_15
REMARK   11  A    between atoms: C_18  and  C_21
REMARK   12  A    between atoms: C_21  and  C_22
REMARK   13  A    between atoms: C_21  and  C_23
REMARK   14  A    between atoms: C_21  and  C_24
REMARK   15  A    between atoms: C_25  and  C_26
REMARK                            x       y       z     vdW  Elec       q    Type
REMARK                         _______ _______ _______ _____ _____    ______ ____
ROOT
ATOM      1  N   UNL     1       2.763   4.278  -1.383  0.00  0.00    -0.304 N 
ENDROOT
BRANCH   1   2
ATOM      2  C   UNL     1       3.585   3.428  -2.030  0.00  0.00    +0.134 C 
ATOM      3  S   UNL     1       4.048   3.748  -3.646  0.00  0.00    -0.019 S 
BRANCH   2   4
ATOM      4  N   UNL     1       4.041   2.325  -1.404  0.00  0.00    -0.324 N 
ATOM      5  H   UNL     1       3.744   2.119  -0.365  0.00  0.00    +0.148 HD
BRANCH   4   9
ATOM      6  C   UNL     1       7.871   0.404  -2.432  0.00  0.00    -0.010 C 
ATOM      7  C   UNL     1       6.703  -0.354  -1.790  0.00  0.00    -0.072 C 
ATOM      8  C   UNL     1       5.777   0.635  -1.086  0.00  0.00    +0.009 C 
ATOM      9  C   UNL     1       4.936   1.399  -2.109  0.00  0.00    +0.069 C 
ATOM     10  C   UNL     1       4.099   0.392  -2.897  0.00  0.00    +0.009 C 
ATOM     11  C   UNL     1       5.005  -0.599  -3.624  0.00  0.00    -0.072 C 
ATOM     12  N   UNL     1       6.015  -1.177  -2.764  0.00  0.00    +0.386 N 
ATOM     13  C   UNL     1       5.638   0.085  -4.842  0.00  0.00    -0.010 C 
ATOM     14  C   UNL     1       4.112  -1.742  -4.156  0.00  0.00    -0.010 C 
ATOM     15  C   UNL     1       7.300  -1.283  -0.710  0.00  0.00    -0.010 C 
ATOM     16  H   UNL     1       6.747  -1.602  -3.466  0.00  0.00    -0.084 HD
ATOM     17  H   UNL     1       5.487  -1.991  -2.248  0.00  0.00    -0.084 HD
ENDBRANCH   4   9
ENDBRANCH   2   4
ENDBRANCH   1   2
BRANCH   1  18
ATOM     18  C   UNL     1       2.267   5.477  -2.063  0.00  0.00    +0.142 C 
BRANCH  18  19
ATOM     19  C   UNL     1       3.222   6.619  -1.829  0.00  0.00    -0.030 A 
ATOM     20  C   UNL     1       3.048   7.453  -0.740  0.00  0.00    +0.005 A 
ATOM     21  C   UNL     1       3.927   8.498  -0.523  0.00  0.00    +0.004 A 
ATOM     22  C   UNL     1       4.973   8.715  -1.400  0.00  0.00    -0.042 A 
ATOM     23  C   UNL     1       5.144   7.884  -2.491  0.00  0.00    +0.004 A 
ATOM     24  C   UNL     1       4.268   6.836  -2.706  0.00  0.00    +0.005 A 
BRANCH  22  25
ATOM     25  C   UNL     1       5.928   9.857  -1.166  0.00  0.00    -0.013 C 
ATOM     26  C   UNL     1       5.890  10.808  -2.364  0.00  0.00    +0.015 C 
ATOM     27  C   UNL     1       5.518  10.614   0.099  0.00  0.00    +0.015 C 
ATOM     28  C   UNL     1       7.346   9.309  -0.995  0.00  0.00    +0.015 C 
ENDBRANCH  22  25
ENDBRANCH  18  19
ENDBRANCH   1  18
BRANCH   1  29
ATOM     29  C   UNL     1       2.367   4.004   0.001  0.00  0.00    +0.143 C 
BRANCH  29  30
ATOM     30  C   UNL     1       1.106   3.179   0.008  0.00  0.00    -0.012 A 
ATOM     31  C   UNL     1       1.173   1.794   0.001  0.00  0.00    +0.008 A 
ATOM     32  C   UNL     1      -0.013   1.076   0.008  0.00  0.00    +0.020 A 
ATOM     33  C   UNL     1      -1.214   1.759   0.017  0.00  0.00    +0.111 A 
ATOM     34  N   UNL     1      -1.240   3.078   0.030  0.00  0.00    -0.263 NA
ATOM     35  C   UNL     1      -0.132   3.793   0.023  0.00  0.00    +0.115 A 
ENDBRANCH  29  30
ENDBRANCH   1  29
TORSDOF 8
