REMARK  Name = ZINC27500571
REMARK  6 active torsions:
REMARK  status: ('A' for Active; 'I' for Inactive)
REMARK    1  A    between atoms: C_1  and  C_2
REMARK    2  A    between atoms: C_5  and  S_8
REMARK    3  A    between atoms: S_8  and  N_11
REMARK    4  A    between atoms: C_14  and  C_17
REMARK    5  A    between atoms: N_19  and  N_20
REMARK    6  A    between atoms: C_21  and  C_22
REMARK                            x       y       z     vdW  Elec       q    Type
REMARK                         _______ _______ _______ _____ _____    ______ ____
ROOT
ATOM      1  N   UNL     1      -9.881   1.935  -1.028  0.00  0.00    -0.177 NA
ATOM      2  C   UNL     1      -9.671   2.862   0.093  0.00  0.00    +0.110 C 
ATOM      3  C   UNL     1      -8.224   3.362   0.054  0.00  0.00    +0.030 C 
ATOM      4  C   UNL     1      -7.274   2.163   0.044  0.00  0.00    +0.079 C 
ATOM      5  C   UNL     1      -7.527   1.320  -1.208  0.00  0.00    +0.030 C 
ATOM      6  C   UNL     1      -8.966   0.796  -1.183  0.00  0.00    +0.110 C 
ENDROOT
BRANCH   4   7
ATOM      7  C   UNL     1      -5.848   2.651   0.041  0.00  0.00    +0.235 C 
ATOM      8  O   UNL     1      -5.615   3.842   0.045  0.00  0.00    -0.274 OA
ATOM      9  N   UNL     1      -4.832   1.766   0.032  0.00  0.00    -0.207 N 
ATOM     10  H   UNL     1      -5.044   0.686   0.028  0.00  0.00    +0.177 HD
BRANCH   9  11
ATOM     11  N   UNL     1      -3.507   2.220   0.029  0.00  0.00    -0.188 NA
ATOM     12  C   UNL     1      -2.528   1.367   0.020  0.00  0.00    +0.140 C 
BRANCH  12  13
ATOM     13  C   UNL     1      -1.135   1.844   0.017  0.00  0.00    +0.020 A 
ATOM     14  C   UNL     1      -0.013   1.076   0.008  0.00  0.00    +0.093 A 
ATOM     15  N   UNL     1       1.091   1.875   0.002  0.00  0.00    -0.360 N 
ATOM     16  H   UNL     1       2.095   1.427  -0.010  0.00  0.00    +0.165 HD
ATOM     17  C   UNL     1       0.719   3.203   0.012  0.00  0.00    +0.047 A 
ATOM     18  C   UNL     1      -0.685   3.247   0.025  0.00  0.00    +0.008 A 
ATOM     19  C   UNL     1      -1.345   4.474   0.037  0.00  0.00    +0.010 A 
ATOM     20  C   UNL     1      -0.614   5.641   0.036  0.00  0.00    +0.001 A 
ATOM     21  C   UNL     1       0.773   5.599   0.023  0.00  0.00    +0.002 A 
ATOM     22  C   UNL     1       1.439   4.393   0.010  0.00  0.00    +0.026 A 
ENDBRANCH  12  13
ENDBRANCH   9  11
ENDBRANCH   4   7
BRANCH   1  23
ATOM     23  S   UNL     1     -11.126   2.170  -2.095  0.00  0.00    +0.061 S 
ATOM     24  O   UNL     1     -11.413   0.902  -2.668  0.00  0.00    -0.153 OA
ATOM     25  O   UNL     1     -12.108   2.937  -1.411  0.00  0.00    -0.153 OA
BRANCH  23  30
ATOM     26  C   UNL     1      -9.021   5.644  -6.556  0.00  0.00    +0.044 C 
ATOM     27  C   UNL     1      -9.547   4.776  -5.442  0.00  0.00    -0.050 A 
ATOM     28  C   UNL     1      -9.454   3.400  -5.535  0.00  0.00    +0.005 A 
ATOM     29  C   UNL     1      -9.936   2.604  -4.513  0.00  0.00    +0.029 A 
ATOM     30  C   UNL     1     -10.511   3.184  -3.397  0.00  0.00    +0.105 A 
ATOM     31  C   UNL     1     -10.609   4.560  -3.307  0.00  0.00    +0.029 A 
ATOM     32  C   UNL     1     -10.123   5.356  -4.327  0.00  0.00    +0.005 A 
ENDBRANCH  23  30
ENDBRANCH   1  23
TORSDOF 5
