REMARK  Name = ZINC04026099
REMARK  7 active torsions:
REMARK  status: ('A' for Active; 'I' for Inactive)
REMARK    1  A    between atoms: C_1  and  C_2
REMARK    2  A    between atoms: C_13  and  O_30
REMARK    3  A    between atoms: C_17  and  C_29
REMARK    4  A    between atoms: C_22  and  C_28
REMARK    5  A    between atoms: C_23  and  C_24
REMARK    6  A    between atoms: C_23  and  O_27
REMARK    7  A    between atoms: C_24  and  C_26
REMARK                            x       y       z     vdW  Elec       q    Type
REMARK                         _______ _______ _______ _____ _____    ______ ____
ROOT
ATOM      1  C   UNL     1       2.209  -1.885   3.516  0.00  0.00    +0.011 C 
ATOM      2  C   UNL     1       1.268  -0.726   3.848  0.00  0.00    +0.026 C 
ATOM      3  C   UNL     1       0.081  -0.706   2.857  0.00  0.00    +0.011 C 
ATOM      4  C   UNL     1      -0.163   0.796   2.620  0.00  0.00    +0.002 C 
ATOM      5  C   UNL     1      -0.991   1.060   1.385  0.00  0.00    +0.000 C 
ATOM      6  C   UNL     1      -2.300   0.265   1.461  0.00  0.00    +0.031 C 
ATOM      7  C   UNL     1      -3.096   0.500   0.211  0.00  0.00    -0.027 C 
ATOM      8  C   UNL     1      -2.552   0.822  -0.926  0.00  0.00    -0.065 C 
ATOM      9  C   UNL     1      -3.459   1.023  -2.128  0.00  0.00    +0.062 C 
ATOM     10  C   UNL     1      -2.923   0.173  -3.284  0.00  0.00    +0.119 C 
ATOM     11  C   UNL     1      -1.458   0.530  -3.543  0.00  0.00    +0.032 C 
ATOM     12  C   UNL     1      -0.614   0.174  -2.318  0.00  0.00    +0.014 C 
ATOM     13  C   UNL     1      -1.080   1.016  -1.120  0.00  0.00    -0.008 C 
ATOM     14  C   UNL     1      -0.255   0.666   0.108  0.00  0.00    +0.003 C 
ATOM     15  C   UNL     1       1.075   1.426   0.052  0.00  0.00    +0.005 C 
ATOM     16  C   UNL     1       1.935   1.002   1.239  0.00  0.00    +0.010 C 
ATOM     17  C   UNL     1       1.256   1.385   2.557  0.00  0.00    +0.007 C 
ATOM     18  C   UNL     1       2.003   0.617   3.680  0.00  0.00    +0.131 C 
ATOM     19  C   UNL     1       1.258   2.898   2.780  0.00  0.00    +0.015 C 
ATOM     20  C   UNL     1      -0.831   2.487  -1.458  0.00  0.00    +0.016 C 
ENDROOT
BRANCH  18  21
ATOM     21  C   UNL     1       1.951   1.401   4.966  0.00  0.00    +0.162 C 
ATOM     22  O   UNL     1       1.023   1.255   5.724  0.00  0.00    -0.295 OA
ATOM     23  C   UNL     1       3.058   2.366   5.306  0.00  0.00    +0.089 C 
ENDBRANCH  18  21
BRANCH  18  24
ATOM     24  O   UNL     1       3.361   0.388   3.298  0.00  0.00    -0.380 OA
ATOM     25  H   UNL     1       3.881  -0.088   3.960  0.00  0.00    +0.211 HD
ENDBRANCH  18  24
BRANCH  10  26
ATOM     26  O   UNL     1      -3.691   0.430  -4.461  0.00  0.00    -0.391 OA
ATOM     27  H   UNL     1      -4.632   0.225  -4.369  0.00  0.00    +0.210 HD
ENDBRANCH  10  26
TORSDOF 3
