REMARK  Name = ZINC13110642
REMARK  4 active torsions:
REMARK  status: ('A' for Active; 'I' for Inactive)
REMARK    1  A    between atoms: C_4  and  C_7
REMARK    2  A    between atoms: N_9  and  C_10
REMARK    3  A    between atoms: C_15  and  C_16
REMARK    4  A    between atoms: C_16  and  N_18
REMARK                            x       y       z     vdW  Elec       q    Type
REMARK                         _______ _______ _______ _____ _____    ______ ____
ROOT
ATOM      1  C   UNL     1       3.569  -4.855  -0.193  0.00  0.00    +0.272 C 
ATOM      2  O   UNL     1       2.523  -4.233  -0.134  0.00  0.00    -0.268 OA
ENDROOT
BRANCH   1   3
ATOM      3  N   UNL     1       3.550  -6.195  -0.250  0.00  0.00    -0.143 NA
ATOM      4  C   UNL     1       2.402  -6.845  -0.151  0.00  0.00    +0.195 C 
ATOM      5  N   UNL     1       1.225  -6.155  -0.145  0.00  0.00    -0.371 N 
ATOM      6  N   UNL     1       2.394  -8.210  -0.056  0.00  0.00    -0.282 N 
ATOM      7  C   UNL     1       3.586  -8.902   0.046  0.00  0.00    +0.304 A 
ATOM      8  N   UNL     1       4.766  -8.349   0.160  0.00  0.00    -0.193 NA
ATOM      9  C   UNL     1       5.703  -9.332   0.236  0.00  0.00    +0.111 A 
ATOM     10  C   UNL     1       7.093  -9.331   0.363  0.00  0.00    +0.031 A 
ATOM     11  C   UNL     1       7.776 -10.527   0.412  0.00  0.00    +0.002 A 
ATOM     12  C   UNL     1       7.090 -11.730   0.335  0.00  0.00    +0.004 A 
ATOM     13  C   UNL     1       5.716 -11.745   0.209  0.00  0.00    +0.048 A 
ATOM     14  C   UNL     1       5.013 -10.552   0.159  0.00  0.00    +0.157 A 
ATOM     15  O   UNL     1       3.702 -10.241   0.048  0.00  0.00    -0.423 OA
ATOM     16  H   UNL     1       1.129  -5.355  -0.685  0.00  0.00    +0.159 HD
ATOM     17  H   UNL     1       0.485  -6.464   0.400  0.00  0.00    +0.159 HD
ATOM     18  H   UNL     1       1.553  -8.692  -0.059  0.00  0.00    +0.173 HD
ENDBRANCH   1   3
BRANCH   1  24
ATOM     19  C   UNL     1       4.889  -2.742  -0.028  0.00  0.00    +0.046 A 
ATOM     20  C   UNL     1       6.107  -2.075  -0.031  0.00  0.00    +0.024 A 
ATOM     21  C   UNL     1       7.280  -2.780  -0.210  0.00  0.00    +0.002 A 
ATOM     22  C   UNL     1       7.253  -4.154  -0.388  0.00  0.00    +0.001 A 
ATOM     23  C   UNL     1       6.053  -4.832  -0.387  0.00  0.00    +0.015 A 
ATOM     24  C   UNL     1       4.858  -4.133  -0.201  0.00  0.00    +0.060 A 
BRANCH  19  27
ATOM     25  C   UNL     1       3.575  -0.794  -0.361  0.00  0.00    +0.248 C 
ATOM     26  O   UNL     1       4.521  -0.262  -0.908  0.00  0.00    -0.270 OA
ATOM     27  N   UNL     1       3.704  -2.034   0.152  0.00  0.00    -0.281 N 
ATOM     28  H   UNL     1       2.971  -2.432   0.648  0.00  0.00    +0.155 HD
BRANCH  25  32
ATOM     29  C   UNL     1      -0.137   1.250  -0.071  0.00  0.00    +0.000 A 
ATOM     30  C   UNL     1       0.938   1.859  -0.694  0.00  0.00    +0.001 A 
ATOM     31  C   UNL     1       2.146   1.201  -0.791  0.00  0.00    +0.013 A 
ATOM     32  C   UNL     1       2.283  -0.083  -0.260  0.00  0.00    +0.037 A 
ATOM     33  C   UNL     1       1.195  -0.692   0.367  0.00  0.00    +0.013 A 
ATOM     34  C   UNL     1      -0.008  -0.023   0.458  0.00  0.00    +0.001 A 
ENDBRANCH  25  32
ENDBRANCH  19  27
ENDBRANCH   1  24
TORSDOF 4
