REMARK  Name = ZINC12467935
REMARK  6 active torsions:
REMARK  status: ('A' for Active; 'I' for Inactive)
REMARK    1  A    between atoms: C_1  and  O_2
REMARK    2  A    between atoms: O_2  and  C_3
REMARK    3  A    between atoms: C_8  and  N_9
REMARK    4  A    between atoms: C_10  and  C_12
REMARK    5  A    between atoms: C_17  and  C_32
REMARK    6  A    between atoms: C_20  and  C_23
REMARK                            x       y       z     vdW  Elec       q    Type
REMARK                         _______ _______ _______ _____ _____    ______ ____
ROOT
ATOM      1  C   UNL     1      -0.634  -4.934   0.784  0.00  0.00    +0.149 A 
ATOM      2  C   UNL     1      -0.743  -6.343   0.785  0.00  0.00    +0.078 A 
ATOM      3  C   UNL     1      -1.449  -6.696   1.877  0.00  0.00    +0.119 A 
ATOM      4  N   UNL     1      -1.781  -5.558   2.556  0.00  0.00    -0.238 N 
ATOM      5  N   UNL     1      -1.257  -4.473   1.855  0.00  0.00    -0.164 NA
ATOM      6  C   UNL     1      -2.550  -5.550   3.803  0.00  0.00    +0.215 C 
ATOM      7  C   UNL     1      -2.483  -6.944   4.437  0.00  0.00    +0.063 C 
ATOM      8  C   UNL     1      -2.836  -8.009   3.393  0.00  0.00    +0.104 C 
ATOM      9  N   UNL     1      -1.825  -7.968   2.319  0.00  0.00    -0.322 N 
ATOM     10  H   UNL     1      -1.443  -8.776   1.942  0.00  0.00    +0.148 HD
ENDROOT
BRANCH   8  11
ATOM     11  C   UNL     1      -4.200  -7.723   2.820  0.00  0.00    -0.024 A 
ATOM     12  C   UNL     1      -4.347  -6.766   1.833  0.00  0.00    +0.009 A 
ATOM     13  C   UNL     1      -5.596  -6.501   1.304  0.00  0.00    +0.050 A 
ATOM     14  C   UNL     1      -6.705  -7.193   1.763  0.00  0.00    +0.166 A 
ATOM     15  C   UNL     1      -6.557  -8.157   2.757  0.00  0.00    +0.167 A 
ATOM     16  C   UNL     1      -5.301  -8.422   3.279  0.00  0.00    +0.055 A 
ATOM     17  O   UNL     1      -7.783  -8.691   3.033  0.00  0.00    -0.453 OA
ATOM     18  C   UNL     1      -8.739  -7.760   2.491  0.00  0.00    +0.466 C 
ATOM     19  O   UNL     1      -8.023  -7.124   1.415  0.00  0.00    -0.453 OA
ENDBRANCH   8  11
BRANCH   1  21
ATOM     20  N   UNL     1       0.095  -2.777  -0.113  0.00  0.00    -0.277 N 
ATOM     21  C   UNL     1       0.061  -4.119  -0.233  0.00  0.00    +0.268 C 
ATOM     22  O   UNL     1       0.601  -4.659  -1.179  0.00  0.00    -0.268 OA
ATOM     23  H   UNL     1      -0.265  -2.352   0.681  0.00  0.00    +0.155 HD
BRANCH  20  29
ATOM     24  C   UNL     1       1.159  -0.731  -0.849  0.00  0.00    +0.141 A 
ATOM     25  C   UNL     1       1.712   0.034  -1.862  0.00  0.00    +0.047 A 
ATOM     26  C   UNL     1       1.756  -0.456  -3.154  0.00  0.00    +0.004 A 
ATOM     27  C   UNL     1       1.248  -1.710  -3.439  0.00  0.00    +0.002 A 
ATOM     28  C   UNL     1       0.694  -2.480  -2.434  0.00  0.00    +0.027 A 
ATOM     29  C   UNL     1       0.652  -1.997  -1.134  0.00  0.00    +0.076 A 
BRANCH  24  31
ATOM     30  C   UNL     1       1.653   1.056   0.641  0.00  0.00    +0.277 C 
ATOM     31  O   UNL     1       1.115  -0.250   0.422  0.00  0.00    -0.493 OA
ENDBRANCH  24  31
ENDBRANCH  20  29
ENDBRANCH   1  21
BRANCH   6  32
ATOM     32  C   UNL     1      -1.957  -4.518   4.764  0.00  0.00    +0.412 C 
ATOM     33  F   UNL     1      -2.009  -3.249   4.177  0.00  0.00    -0.168 F 
ATOM     34  F   UNL     1      -2.693  -4.512   5.954  0.00  0.00    -0.168 F 
ATOM     35  F   UNL     1      -0.626  -4.849   5.041  0.00  0.00    -0.168 F 
ENDBRANCH   6  32
TORSDOF 5
