REMARK  Name = ZINC39243237
REMARK  10 active torsions:
REMARK  status: ('A' for Active; 'I' for Inactive)
REMARK    1  A    between atoms: C_1  and  C_2
REMARK    2  A    between atoms: C_6  and  C_8
REMARK    3  A    between atoms: C_8  and  O_9
REMARK    4  A    between atoms: O_9  and  C_10
REMARK    5  A    between atoms: C_11  and  O_32
REMARK    6  A    between atoms: C_13  and  C_17
REMARK    7  A    between atoms: C_19  and  C_30
REMARK    8  A    between atoms: C_20  and  N_29
REMARK    9  A    between atoms: C_25  and  C_28
REMARK   10  A    between atoms: O_32  and  C_33
REMARK                            x       y       z     vdW  Elec       q    Type
REMARK                         _______ _______ _______ _____ _____    ______ ____
ROOT
ATOM      1  C   UNL     1       1.599  -3.746   4.056  0.00  0.00    +0.176 A 
ATOM      2  C   UNL     1       1.682  -3.054   5.261  0.00  0.00    +0.163 A 
ATOM      3  C   UNL     1       1.879  -3.749   6.443  0.00  0.00    +0.054 A 
ATOM      4  C   UNL     1       1.992  -5.128   6.424  0.00  0.00    -0.030 A 
ATOM      5  C   UNL     1       1.910  -5.815   5.228  0.00  0.00    +0.023 A 
ATOM      6  C   UNL     1       1.708  -5.127   4.045  0.00  0.00    +0.063 A 
ATOM      7 BR   UNL     1       1.588  -6.072   2.411  0.00  0.00    -0.046 Br
ENDROOT
BRANCH   4   8
ATOM      8  C   UNL     1       2.206  -5.882   7.711  0.00  0.00    +0.098 C 
ATOM      9  C   UNL     1       3.487  -6.693   7.638  0.00  0.00    +0.097 C 
ATOM     10  C   UNL     1       3.509  -8.011   7.926  0.00  0.00    +0.195 C 
ATOM     11  O   UNL     1       2.459  -8.775   8.278  0.00  0.00    -0.448 OA
ATOM     12  C   UNL     1       1.312  -8.109   8.812  0.00  0.00    +0.343 C 
ATOM     13  C   UNL     1       1.104  -6.884   7.916  0.00  0.00    +0.030 C 
ATOM     14  C   UNL     1      -0.120  -6.998   7.463  0.00  0.00    +0.066 C 
ATOM     15  N   UNL     1      -0.666  -8.172   7.871  0.00  0.00    -0.155 NA
ATOM     16  N   UNL     1       0.075  -8.866   8.607  0.00  0.00    -0.138 NA
ATOM     17  C   UNL     1      -0.822  -5.973   6.611  0.00  0.00    +0.067 C 
BRANCH  10  18
ATOM     18  N   UNL     1       4.728  -8.637   7.852  0.00  0.00    -0.329 N 
ATOM     19  H   UNL     1       5.518  -8.132   7.602  0.00  0.00    +0.145 HD
ATOM     20  H   UNL     1       4.800  -9.584   8.049  0.00  0.00    +0.145 HD
ENDBRANCH  10  18
BRANCH   9  21
ATOM     21  C   UNL     1       4.703  -6.042   7.253  0.00  0.00    +0.101 C 
ATOM     22  N   UNL     1       5.668  -5.526   6.948  0.00  0.00    -0.191 NA
ENDBRANCH   9  21
ENDBRANCH   4   8
BRANCH   2  23
ATOM     23  O   UNL     1       1.571  -1.699   5.278  0.00  0.00    -0.491 OA
ATOM     24  C   UNL     1       1.665  -1.056   6.551  0.00  0.00    +0.277 C 
ENDBRANCH   2  23
BRANCH   1  25
ATOM     25  O   UNL     1       1.406  -3.067   2.893  0.00  0.00    -0.483 OA
BRANCH  25  26
ATOM     26  C   UNL     1       0.054  -2.845   2.489  0.00  0.00    +0.264 C 
BRANCH  26  32
ATOM     27  C   UNL     1      -0.018   1.503   0.010  0.00  0.00    +0.044 C 
ATOM     28  C   UNL     1       0.002  -0.004   0.002  0.00  0.00    -0.050 A 
ATOM     29  C   UNL     1       0.006  -0.689  -1.199  0.00  0.00    +0.003 A 
ATOM     30  C   UNL     1       0.025  -2.071  -1.207  0.00  0.00    +0.001 A 
ATOM     31  C   UNL     1       0.040  -2.768  -0.013  0.00  0.00    +0.007 A 
ATOM     32  C   UNL     1       0.037  -2.084   1.188  0.00  0.00    -0.010 A 
ATOM     33  C   UNL     1       0.023  -0.702   1.195  0.00  0.00    +0.010 A 
ENDBRANCH  26  32
ENDBRANCH  25  26
ENDBRANCH   1  25
TORSDOF 7
