REMARK  Name = ZINC59088250
REMARK  14 active torsions:
REMARK  status: ('A' for Active; 'I' for Inactive)
REMARK    1  A    between atoms: C_1  and  C_2
REMARK    2  A    between atoms: C_2  and  C_3
REMARK    3  A    between atoms: C_6  and  N_9
REMARK    4  A    between atoms: N_9  and  C_10
REMARK    5  A    between atoms: C_10  and  N_12
REMARK    6  A    between atoms: N_12  and  C_13
REMARK    7  A    between atoms: N_12  and  C_22
REMARK    8  A    between atoms: C_13  and  C_14
REMARK    9  A    between atoms: C_19  and  O_20
REMARK   10  A    between atoms: O_20  and  C_21
REMARK   11  A    between atoms: C_24  and  C_30
REMARK   12  A    between atoms: C_24  and  C_31
REMARK   13  A    between atoms: C_26  and  C_28
REMARK   14  A    between atoms: C_26  and  C_29
REMARK                            x       y       z     vdW  Elec       q    Type
REMARK                         _______ _______ _______ _____ _____    ______ ____
ROOT
ATOM      1  N   UNL     1       4.603  -1.919  -6.011  0.00  0.00    -0.305 N 
ENDROOT
BRANCH   1   2
ATOM      2  C   UNL     1       3.823  -2.012  -7.252  0.00  0.00    +0.073 C 
ATOM      3  C   UNL     1       2.951  -0.762  -7.392  0.00  0.00    +0.009 C 
ATOM      4  C   UNL     1       2.124  -0.849  -8.674  0.00  0.00    -0.072 C 
ATOM      5  N   UNL     1       1.350  -2.079  -8.744  0.00  0.00    +0.386 N 
ATOM      6  C   UNL     1       2.031  -3.325  -8.427  0.00  0.00    -0.072 C 
ATOM      7  C   UNL     1       2.905  -3.231  -7.180  0.00  0.00    +0.009 C 
ATOM      8  C   UNL     1       2.860  -3.834  -9.609  0.00  0.00    -0.010 C 
ATOM      9  C   UNL     1       0.944  -4.389  -8.146  0.00  0.00    -0.010 C 
ATOM     10  C   UNL     1       3.021  -0.662  -9.896  0.00  0.00    -0.010 C 
ATOM     11  C   UNL     1       1.124   0.331  -8.654  0.00  0.00    -0.010 C 
ATOM     12  H   UNL     1       0.542  -1.987  -8.123  0.00  0.00    -0.084 HD
ATOM     13  H   UNL     1       0.956  -2.158  -9.685  0.00  0.00    -0.084 HD
ENDBRANCH   1   2
BRANCH   1  14
ATOM     14  C   UNL     1       3.979  -1.693  -4.838  0.00  0.00    +0.138 C 
ATOM     15  S   UNL     1       4.896  -1.457  -3.412  0.00  0.00    -0.018 S 
BRANCH  14  16
ATOM     16  N   UNL     1       2.633  -1.652  -4.788  0.00  0.00    -0.297 N 
ATOM     17  H   UNL     1       2.111  -1.862  -5.579  0.00  0.00    +0.154 HD
BRANCH  16  21
ATOM     18  C   UNL     1       0.710  -0.627  -1.238  0.00  0.00    -0.048 A 
ATOM     19  C   UNL     1       0.340  -0.019  -2.423  0.00  0.00    +0.005 A 
ATOM     20  C   UNL     1       0.976  -0.356  -3.602  0.00  0.00    +0.023 A 
ATOM     21  C   UNL     1       1.987  -1.308  -3.596  0.00  0.00    +0.033 A 
ATOM     22  C   UNL     1       2.356  -1.917  -2.404  0.00  0.00    +0.023 A 
ATOM     23  C   UNL     1       1.721  -1.571  -1.227  0.00  0.00    +0.005 A 
BRANCH  18  25
ATOM     24  C   UNL     1       0.750   0.911   0.707  0.00  0.00    +0.009 C 
ATOM     25  C   UNL     1       0.015  -0.257   0.047  0.00  0.00    +0.032 C 
ENDBRANCH  18  25
ENDBRANCH  16  21
ENDBRANCH  14  16
ENDBRANCH   1  14
BRANCH   1  26
ATOM     26  C   UNL     1       6.059  -2.073  -6.048  0.00  0.00    +0.145 C 
BRANCH  26  27
ATOM     27  C   UNL     1       6.416  -3.526  -5.867  0.00  0.00    +0.011 A 
ATOM     28  C   UNL     1       6.822  -3.989  -4.630  0.00  0.00    +0.009 A 
ATOM     29  C   UNL     1       7.150  -5.322  -4.463  0.00  0.00    +0.001 A 
ATOM     30  C   UNL     1       7.072  -6.195  -5.533  0.00  0.00    +0.004 A 
ATOM     31  C   UNL     1       6.666  -5.737  -6.771  0.00  0.00    +0.046 A 
ATOM     32  C   UNL     1       6.331  -4.401  -6.940  0.00  0.00    +0.125 A 
BRANCH  32  33
ATOM     33  O   UNL     1       5.926  -3.949  -8.156  0.00  0.00    -0.495 OA
ATOM     34  C   UNL     1       5.863  -4.906  -9.216  0.00  0.00    +0.277 C 
ENDBRANCH  32  33
ENDBRANCH  26  27
ENDBRANCH   1  26
TORSDOF 8
