REMARK  Name = ZINC48101004
REMARK  9 active torsions:
REMARK  status: ('A' for Active; 'I' for Inactive)
REMARK    1  A    between atoms: C_1  and  C_2
REMARK    2  A    between atoms: C_9  and  C_11
REMARK    3  A    between atoms: C_14  and  N_17
REMARK    4  A    between atoms: N_20  and  C_21
REMARK    5  A    between atoms: C_21  and  C_22
REMARK    6  A    between atoms: C_22  and  C_24
REMARK    7  A    between atoms: C_22  and  N_29
REMARK    8  A    between atoms: N_29  and  C_30
REMARK    9  A    between atoms: N_29  and  C_31
REMARK                            x       y       z     vdW  Elec       q    Type
REMARK                         _______ _______ _______ _____ _____    ______ ____
ROOT
ATOM      1  N   UNL     1       4.708  -1.439   6.180  0.00  0.00    -0.269 N 
ATOM      2  C   UNL     1       4.648  -2.725   6.579  0.00  0.00    +0.304 C 
ATOM      3  O   UNL     1       3.906  -3.504   6.011  0.00  0.00    -0.253 OA
ATOM      4  N   UNL     1       5.409  -3.149   7.608  0.00  0.00    -0.300 N 
ATOM      5  H   UNL     1       5.351  -0.836   6.585  0.00  0.00    +0.156 HD
ATOM      6  H   UNL     1       6.000  -2.528   8.061  0.00  0.00    +0.150 HD
ENDROOT
BRANCH   1  10
ATOM      7  C   UNL     1       2.138  -0.056   3.209  0.00  0.00    +0.037 A 
ATOM      8  C   UNL     1       2.639  -1.360   3.151  0.00  0.00    +0.015 A 
ATOM      9  C   UNL     1       3.488  -1.813   4.134  0.00  0.00    +0.024 A 
ATOM     10  C   UNL     1       3.848  -0.976   5.186  0.00  0.00    +0.035 A 
ATOM     11  C   UNL     1       3.350   0.322   5.247  0.00  0.00    +0.024 A 
ATOM     12  C   UNL     1       2.505   0.784   4.264  0.00  0.00    +0.015 A 
BRANCH   7  20
ATOM     13  C   UNL     1      -0.022   1.425  -0.008  0.00  0.00    +0.028 C 
ATOM     14  C   UNL     1      -0.458   0.025   0.428  0.00  0.00    +0.073 C 
ATOM     15  C   UNL     1      -0.259  -0.959  -0.730  0.00  0.00    +0.022 C 
ATOM     16  C   UNL     1      -0.564  -2.378  -0.246  0.00  0.00    +0.003 C 
ATOM     17  C   UNL     1       0.403  -2.755   0.879  0.00  0.00    +0.019 C 
ATOM     18  C   UNL     1       0.211  -1.792   2.054  0.00  0.00    +0.108 C 
ATOM     19  N   UNL     1       0.358  -0.413   1.569  0.00  0.00    -0.295 N 
ATOM     20  C   UNL     1       1.227   0.434   2.156  0.00  0.00    +0.247 C 
ATOM     21  O   UNL     1       1.261   1.601   1.818  0.00  0.00    -0.270 OA
ENDBRANCH   7  20
ENDBRANCH   1  10
BRANCH   4  22
ATOM     22  C   UNL     1       5.343  -4.546   8.041  0.00  0.00    +0.095 C 
BRANCH  22  23
ATOM     23  C   UNL     1       6.204  -4.734   9.292  0.00  0.00    -0.014 C 
BRANCH  23  24
ATOM     24  C   UNL     1       7.642  -4.428   8.962  0.00  0.00    -0.022 A 
ATOM     25  C   UNL     1       8.352  -3.300   9.207  0.00  0.00    +0.009 A 
ATOM     26  C   UNL     1       9.675  -3.241   8.812  0.00  0.00    +0.008 A 
ATOM     27  C   UNL     1      10.223  -4.314   8.190  0.00  0.00    +0.045 A 
ATOM     28  S   UNL     1       8.854  -5.459   8.154  0.00  0.00    -0.103 S 
ENDBRANCH  23  24
BRANCH  23  29
ATOM     29  N   UNL     1       6.093  -6.122   9.759  0.00  0.00    +0.382 N 
ATOM     30  C   UNL     1       6.835  -6.276  11.017  0.00  0.00    -0.096 C 
ATOM     31  C   UNL     1       4.679  -6.454   9.980  0.00  0.00    -0.096 C 
ATOM     32  H   UNL     1       6.479  -6.743   9.063  0.00  0.00    -0.082 HD
ENDBRANCH  23  29
ENDBRANCH  22  23
ENDBRANCH   4  22
TORSDOF 6
