REMARK  Name = ZINC09330077
REMARK  13 active torsions:
REMARK  status: ('A' for Active; 'I' for Inactive)
REMARK    1  A    between atoms: C_1  and  C_2
REMARK    2  A    between atoms: C_2  and  C_3
REMARK    3  A    between atoms: C_2  and  C_4
REMARK    4  A    between atoms: C_7  and  C_10
REMARK    5  A    between atoms: C_12  and  C_33
REMARK    6  A    between atoms: C_17  and  S_21
REMARK    7  A    between atoms: C_18  and  C_19
REMARK    8  A    between atoms: S_21  and  C_22
REMARK    9  A    between atoms: C_22  and  C_23
REMARK   10  A    between atoms: N_25  and  C_26
REMARK   11  A    between atoms: C_26  and  C_27
REMARK   12  A    between atoms: C_33  and  O_35
REMARK   13  A    between atoms: O_35  and  C_36
REMARK                            x       y       z     vdW  Elec       q    Type
REMARK                         _______ _______ _______ _____ _____    ______ ____
ROOT
ATOM      1  C   UNL     1      -5.419  -2.005   0.043  0.00  0.00    +0.085 C 
ATOM      2  C   UNL     1      -5.400  -3.535   0.036  0.00  0.00    +0.200 C 
ATOM      3  C   UNL     1      -5.002  -4.028  -1.330  0.00  0.00    +0.262 C 
ATOM      4  O   UNL     1      -4.264  -5.148  -1.439  0.00  0.00    -0.270 OA
ATOM      5  N   UNL     1      -5.359  -3.394  -2.406  0.00  0.00    -0.205 NA
ATOM      6  C   UNL     1      -6.063  -2.240  -2.356  0.00  0.00    +0.115 C 
ATOM      7  C   UNL     1      -6.148  -1.515  -1.184  0.00  0.00    +0.070 C 
ENDROOT
BRANCH   1  11
ATOM      8  C   UNL     1      -1.412  -0.526   0.013  0.00  0.00    -0.045 A 
ATOM      9  C   UNL     1      -2.259  -0.204   1.056  0.00  0.00    +0.004 A 
ATOM     10  C   UNL     1      -3.556  -0.683   1.066  0.00  0.00    +0.004 A 
ATOM     11  C   UNL     1      -4.006  -1.482   0.032  0.00  0.00    -0.038 A 
ATOM     12  C   UNL     1      -3.159  -1.803  -1.012  0.00  0.00    +0.004 A 
ATOM     13  C   UNL     1      -1.863  -1.321  -1.024  0.00  0.00    +0.004 A 
BRANCH   8  15
ATOM     14  C   UNL     1      -0.019   1.526   0.010  0.00  0.00    +0.012 C 
ATOM     15  C   UNL     1       0.002  -0.004   0.002  0.00  0.00    +0.013 C 
ATOM     16  C   UNL     1       0.742  -0.511   1.242  0.00  0.00    +0.012 C 
ENDBRANCH   8  15
ENDBRANCH   1  11
BRANCH   7  17
ATOM     17  C   UNL     1      -6.922  -0.311  -1.131  0.00  0.00    +0.098 C 
ATOM     18  N   UNL     1      -7.536   0.644  -1.089  0.00  0.00    -0.191 NA
ENDBRANCH   7  17
BRANCH   2  19
ATOM     19  C   UNL     1      -4.407  -4.030   1.056  0.00  0.00    +0.320 C 
ATOM     20  O   UNL     1      -3.779  -3.239   1.720  0.00  0.00    -0.250 OA
BRANCH  19  21
ATOM     21  O   UNL     1      -4.219  -5.348   1.226  0.00  0.00    -0.467 OA
ATOM     22  C   UNL     1      -3.262  -5.745   2.210  0.00  0.00    +0.280 C 
ENDBRANCH  19  21
ENDBRANCH   2  19
BRANCH   6  23
ATOM     23  S   UNL     1      -6.881  -1.654  -3.803  0.00  0.00    -0.096 S 
BRANCH  23  24
ATOM     24  C   UNL     1      -6.495  -2.903  -5.061  0.00  0.00    +0.171 C 
BRANCH  24  25
ATOM     25  C   UNL     1      -7.143  -2.518  -6.366  0.00  0.00    +0.224 C 
ATOM     26  O   UNL     1      -7.800  -1.502  -6.440  0.00  0.00    -0.275 OA
ATOM     27  N   UNL     1      -6.992  -3.304  -7.450  0.00  0.00    -0.311 N 
ATOM     28  H   UNL     1      -6.467  -4.117  -7.391  0.00  0.00    +0.149 HD
BRANCH  27  29
ATOM     29  C   UNL     1      -7.622  -2.930  -8.719  0.00  0.00    +0.139 C 
BRANCH  29  30
ATOM     30  C   UNL     1      -7.302  -3.967  -9.764  0.00  0.00    -0.030 A 
ATOM     31  C   UNL     1      -6.170  -3.834 -10.546  0.00  0.00    +0.005 A 
ATOM     32  C   UNL     1      -5.876  -4.786 -11.505  0.00  0.00    +0.000 A 
ATOM     33  C   UNL     1      -6.714  -5.871 -11.681  0.00  0.00    +0.000 A 
ATOM     34  C   UNL     1      -7.845  -6.005 -10.898  0.00  0.00    +0.000 A 
ATOM     35  C   UNL     1      -8.137  -5.056  -9.936  0.00  0.00    +0.005 A 
ENDBRANCH  29  30
ENDBRANCH  27  29
ENDBRANCH  24  25
ENDBRANCH  23  24
ENDBRANCH   6  23
TORSDOF 10
