REMARK  Name = ZINC22642851
REMARK  5 active torsions:
REMARK  status: ('A' for Active; 'I' for Inactive)
REMARK    1  A    between atoms: C_1  and  C_2
REMARK    2  A    between atoms: C_11  and  N_13
REMARK    3  A    between atoms: C_14  and  C_16
REMARK    4  A    between atoms: C_16  and  N_17
REMARK    5  A    between atoms: C_18  and  C_20
REMARK                            x       y       z     vdW  Elec       q    Type
REMARK                         _______ _______ _______ _____ _____    ______ ____
ROOT
ATOM      1  N   UNL     1      -6.464   0.991   0.073  0.00  0.00    -0.284 N 
ATOM      2  C   UNL     1      -6.806   2.290   0.186  0.00  0.00    +0.234 C 
ATOM      3  O   UNL     1      -5.946   3.146   0.181  0.00  0.00    -0.274 OA
ATOM      4  H   UNL     1      -7.154   0.313  -0.001  0.00  0.00    +0.155 HD
ENDROOT
BRANCH   1  15
ATOM      5  C   UNL     1      -1.066  -2.277  -1.340  0.00  0.00    +0.109 C 
ATOM      6  C   UNL     1      -0.356  -1.295  -0.445  0.00  0.00    +0.217 C 
ATOM      7  O   UNL     1       0.842  -1.386  -0.274  0.00  0.00    -0.276 OA
ATOM      8  N   UNL     1      -1.051  -0.315   0.166  0.00  0.00    -0.271 N 
ATOM      9  C   UNL     1      -0.472   0.699   1.052  0.00  0.00    +0.118 C 
ATOM     10  C   UNL     1      -1.656   1.577   1.489  0.00  0.00    +0.056 C 
ATOM     11  C   UNL     1      -2.856   0.973   0.794  0.00  0.00    -0.023 A 
ATOM     12  C   UNL     1      -2.430  -0.113   0.043  0.00  0.00    +0.040 A 
ATOM     13  C   UNL     1      -3.367  -0.835  -0.699  0.00  0.00    +0.025 A 
ATOM     14  C   UNL     1      -4.696  -0.471  -0.688  0.00  0.00    +0.025 A 
ATOM     15  C   UNL     1      -5.114   0.620   0.062  0.00  0.00    +0.034 A 
ATOM     16  C   UNL     1      -4.188   1.336   0.810  0.00  0.00    +0.028 A 
ENDBRANCH   1  15
BRANCH   2  17
ATOM     17  C   UNL     1      -8.255   2.680   0.317  0.00  0.00    +0.200 C 
BRANCH  17  18
ATOM     18  N   UNL     1      -8.362   4.137   0.423  0.00  0.00    -0.303 N 
ATOM     19  C   UNL     1      -9.572   4.717   0.549  0.00  0.00    +0.245 C 
ATOM     20  O   UNL     1     -10.575   4.030   0.576  0.00  0.00    -0.270 OA
ATOM     21  H   UNL     1      -7.561   4.684   0.402  0.00  0.00    +0.150 HD
BRANCH  19  22
ATOM     22  C   UNL     1      -9.679   6.185   0.657  0.00  0.00    +0.040 A 
ATOM     23  C   UNL     1      -8.528   6.976   0.621  0.00  0.00    +0.017 A 
ATOM     24  C   UNL     1      -8.630   8.346   0.720  0.00  0.00    +0.050 A 
ATOM     25  C   UNL     1      -9.874   8.946   0.856  0.00  0.00    +0.166 A 
ATOM     26  C   UNL     1     -11.028   8.162   0.893  0.00  0.00    +0.167 A 
ATOM     27  C   UNL     1     -10.932   6.788   0.788  0.00  0.00    +0.062 A 
ATOM     28  O   UNL     1     -12.109   8.984   1.031  0.00  0.00    -0.453 OA
ATOM     29  C   UNL     1     -11.579  10.242   1.488  0.00  0.00    +0.466 C 
ATOM     30  O   UNL     1     -10.235  10.256   0.970  0.00  0.00    -0.453 OA
ENDBRANCH  19  22
ENDBRANCH  17  18
ENDBRANCH   2  17
TORSDOF 4
