REMARK  Name = ZINC38565700
REMARK  8 active torsions:
REMARK  status: ('A' for Active; 'I' for Inactive)
REMARK    1  A    between atoms: C_4  and  C_7
REMARK    2  A    between atoms: C_7  and  C_8
REMARK    3  A    between atoms: C_7  and  N_14
REMARK    4  A    between atoms: N_17  and  C_18
REMARK    5  A    between atoms: C_18  and  C_19
REMARK    6  A    between atoms: C_19  and  C_21
REMARK    7  A    between atoms: C_19  and  S_26
REMARK    8  A    between atoms: S_26  and  C_29
REMARK                            x       y       z     vdW  Elec       q    Type
REMARK                         _______ _______ _______ _____ _____    ______ ____
ROOT
ATOM      1  N   UNL     1       3.611  -1.865  -0.930  0.00  0.00    -0.289 N 
ATOM      2  C   UNL     1       4.721  -2.370  -1.504  0.00  0.00    +0.300 C 
ATOM      3  O   UNL     1       5.805  -1.866  -1.281  0.00  0.00    -0.253 OA
ATOM      4  N   UNL     1       4.629  -3.435  -2.325  0.00  0.00    -0.297 N 
ATOM      5  H   UNL     1       2.747  -2.267  -1.108  0.00  0.00    +0.151 HD
ATOM      6  H   UNL     1       3.765  -3.837  -2.503  0.00  0.00    +0.150 HD
ENDROOT
BRANCH   1   7
ATOM      7  C   UNL     1       3.711  -0.707  -0.038  0.00  0.00    +0.135 C 
BRANCH   7  11
ATOM      8  C   UNL     1      -0.017   1.378   0.010  0.00  0.00    +0.000 A 
ATOM      9  C   UNL     1       1.171   2.086   0.002  0.00  0.00    +0.000 A 
ATOM     10  C   UNL     1       2.377   1.411  -0.013  0.00  0.00    +0.006 A 
ATOM     11  C   UNL     1       2.396   0.029  -0.020  0.00  0.00    -0.023 A 
ATOM     12  C   UNL     1       1.208  -0.679  -0.012  0.00  0.00    +0.006 A 
ATOM     13  C   UNL     1       0.002  -0.004   0.002  0.00  0.00    +0.000 A 
ENDBRANCH   7  11
BRANCH   7  14
ATOM     14  C   UNL     1       4.044  -1.175   1.356  0.00  0.00    -0.023 A 
ATOM     15  C   UNL     1       3.455  -2.320   1.860  0.00  0.00    +0.006 A 
ATOM     16  C   UNL     1       3.760  -2.748   3.138  0.00  0.00    +0.000 A 
ATOM     17  C   UNL     1       4.654  -2.033   3.912  0.00  0.00    +0.000 A 
ATOM     18  C   UNL     1       5.243  -0.888   3.408  0.00  0.00    +0.000 A 
ATOM     19  C   UNL     1       4.941  -0.462   2.128  0.00  0.00    +0.006 A 
ENDBRANCH   7  14
ENDBRANCH   1   7
BRANCH   4  20
ATOM     20  C   UNL     1       5.835  -3.985  -2.949  0.00  0.00    +0.137 C 
BRANCH  20  21
ATOM     21  C   UNL     1       5.456  -5.180  -3.826  0.00  0.00    +0.189 C 
BRANCH  21  22
ATOM     22  C   UNL     1       6.697  -5.746  -4.468  0.00  0.00    +0.016 A 
ATOM     23  C   UNL     1       7.218  -6.993  -4.365  0.00  0.00    +0.013 A 
ATOM     24  C   UNL     1       8.380  -7.292  -5.052  0.00  0.00    +0.008 A 
ATOM     25  C   UNL     1       8.963  -6.330  -5.808  0.00  0.00    +0.045 A 
ATOM     26  S   UNL     1       7.857  -4.950  -5.567  0.00  0.00    -0.100 S 
ENDBRANCH  21  22
BRANCH  21  27
ATOM     27  S   UNL     1       4.301  -4.640  -5.116  0.00  0.00    +0.006 S 
ATOM     28  O   UNL     1       3.058  -4.271  -4.536  0.00  0.00    -0.169 OA
ATOM     29  O   UNL     1       4.959  -3.775  -6.032  0.00  0.00    -0.169 OA
BRANCH  27  30
ATOM     30  C   UNL     1       3.949  -6.095  -6.046  0.00  0.00    +0.089 A 
ATOM     31  C   UNL     1       4.736  -6.428  -7.132  0.00  0.00    +0.030 A 
ATOM     32  C   UNL     1       4.461  -7.569  -7.862  0.00  0.00    +0.040 A 
ATOM     33  C   UNL     1       3.396  -8.379  -7.505  0.00  0.00    +0.124 A 
ATOM     34  C   UNL     1       2.608  -8.044  -6.416  0.00  0.00    +0.040 A 
ATOM     35  C   UNL     1       2.888  -6.905  -5.685  0.00  0.00    +0.030 A 
ATOM     36  F   UNL     1       3.126  -9.494  -8.217  0.00  0.00    -0.205 F 
ENDBRANCH  27  30
ENDBRANCH  21  27
ENDBRANCH  20  21
ENDBRANCH   4  20
TORSDOF 8
