REMARK  Name = ZINC01880744
REMARK  7 active torsions:
REMARK  status: ('A' for Active; 'I' for Inactive)
REMARK    1  A    between atoms: C_1  and  C_2
REMARK    2  A    between atoms: C_5  and  N_8
REMARK    3  A    between atoms: C_17  and  C_21
REMARK    4  A    between atoms: C_17  and  N_25
REMARK    5  A    between atoms: N_25  and  S_26
REMARK    6  A    between atoms: S_26  and  C_29
REMARK    7  A    between atoms: C_32  and  C_35
REMARK                            x       y       z     vdW  Elec       q    Type
REMARK                         _______ _______ _______ _____ _____    ______ ____
ROOT
ATOM      1  N   UNL     1       1.222  -4.786   0.110  0.00  0.00    -0.209 N 
ATOM      2  C   UNL     1       0.933  -5.445   1.290  0.00  0.00    +0.137 C 
ATOM      3  C   UNL     1       0.564  -6.796   1.219  0.00  0.00    +0.092 C 
ATOM      4  C   UNL     1       0.496  -7.427   0.017  0.00  0.00    +0.253 C 
ATOM      5  O   UNL     1       0.141  -8.727  -0.049  0.00  0.00    -0.270 OA
ATOM      6  N   UNL     1       0.792  -6.732  -1.128  0.00  0.00    -0.236 N 
ATOM      7  H   UNL     1       0.745  -7.178  -1.988  0.00  0.00    +0.159 HD
ATOM      8  C   UNL     1       1.141  -5.434  -1.065  0.00  0.00    +0.318 C 
ATOM      9  O   UNL     1       1.393  -4.837  -2.094  0.00  0.00    -0.251 OA
ATOM     10  C   UNL     1       0.319  -7.224   2.647  0.00  0.00    +0.245 C 
ATOM     11  C   UNL     1       0.601  -5.956   3.430  0.00  0.00    +0.273 C 
ATOM     12  O   UNL     1       0.531  -5.820   4.637  0.00  0.00    -0.271 OA
ATOM     13  N   UNL     1       0.937  -5.026   2.552  0.00  0.00    -0.162 NA
ENDROOT
BRANCH   1  18
ATOM     14  C   UNL     1       2.732   0.683   0.221  0.00  0.00    +0.044 C 
ATOM     15  C   UNL     1       2.331  -0.769   0.191  0.00  0.00    -0.050 A 
ATOM     16  C   UNL     1       3.078  -1.705   0.883  0.00  0.00    +0.005 A 
ATOM     17  C   UNL     1       2.713  -3.037   0.858  0.00  0.00    +0.024 A 
ATOM     18  C   UNL     1       1.595  -3.436   0.138  0.00  0.00    +0.044 A 
ATOM     19  C   UNL     1       0.847  -2.493  -0.556  0.00  0.00    +0.024 A 
ATOM     20  C   UNL     1       1.214  -1.162  -0.523  0.00  0.00    +0.005 A 
ENDBRANCH   1  18
BRANCH  10  21
ATOM     21  C   UNL     1       1.285  -8.338   3.053  0.00  0.00    +0.422 C 
ATOM     22  F   UNL     1       2.598  -7.857   3.006  0.00  0.00    -0.168 F 
ATOM     23  F   UNL     1       0.989  -8.761   4.353  0.00  0.00    -0.168 F 
ATOM     24  F   UNL     1       1.151  -9.416   2.171  0.00  0.00    -0.168 F 
ENDBRANCH  10  21
BRANCH  10  25
ATOM     25  N   UNL     1      -1.072  -7.648   2.830  0.00  0.00    -0.162 NA
ATOM     26  H   UNL     1      -1.272  -8.568   3.063  0.00  0.00    +0.150 HD
BRANCH  25  27
ATOM     27  S   UNL     1      -2.303  -6.556   2.638  0.00  0.00    +0.060 S 
ATOM     28  O   UNL     1      -3.504  -7.237   2.972  0.00  0.00    -0.153 OA
ATOM     29  O   UNL     1      -1.894  -5.364   3.294  0.00  0.00    -0.153 OA
BRANCH  27  30
ATOM     30  C   UNL     1      -2.400  -6.178   0.919  0.00  0.00    +0.105 A 
ATOM     31  C   UNL     1      -1.797  -5.034   0.429  0.00  0.00    +0.029 A 
ATOM     32  C   UNL     1      -1.873  -4.737  -0.919  0.00  0.00    +0.005 A 
ATOM     33  C   UNL     1      -2.551  -5.584  -1.776  0.00  0.00    -0.050 A 
ATOM     34  C   UNL     1      -3.153  -6.728  -1.286  0.00  0.00    +0.005 A 
ATOM     35  C   UNL     1      -3.073  -7.027   0.062  0.00  0.00    +0.029 A 
ATOM     36  C   UNL     1      -2.635  -5.259  -3.246  0.00  0.00    +0.044 C 
ENDBRANCH  27  30
ENDBRANCH  25  27
ENDBRANCH  10  25
TORSDOF 5
