REMARK  Name = ZINC21710601
REMARK  6 active torsions:
REMARK  status: ('A' for Active; 'I' for Inactive)
REMARK    1  A    between atoms: C_3  and  C_21
REMARK    2  A    between atoms: C_5  and  N_7
REMARK    3  A    between atoms: N_7  and  S_8
REMARK    4  A    between atoms: S_8  and  C_11
REMARK    5  A    between atoms: C_27  and  C_30
REMARK    6  A    between atoms: N_32  and  C_33
REMARK                            x       y       z     vdW  Elec       q    Type
REMARK                         _______ _______ _______ _____ _____    ______ ____
ROOT
ATOM      1  C   UNL     1      -2.541   5.063   3.755  0.00  0.00    +0.003 A 
ATOM      2  C   UNL     1      -2.124   4.581   2.530  0.00  0.00    +0.013 A 
ATOM      3  C   UNL     1      -2.762   5.000   1.361  0.00  0.00    +0.039 A 
ATOM      4  C   UNL     1      -3.817   5.909   1.436  0.00  0.00    +0.037 A 
ATOM      5  C   UNL     1      -4.232   6.383   2.671  0.00  0.00    +0.049 A 
ATOM      6  C   UNL     1      -3.590   5.960   3.829  0.00  0.00    +0.024 A 
ENDROOT
BRANCH   3   7
ATOM      7  C   UNL     1      -2.317   4.486   0.049  0.00  0.00    +0.247 C 
ATOM      8  O   UNL     1      -2.204   3.289  -0.129  0.00  0.00    -0.270 OA
ATOM      9  N   UNL     1      -2.036   5.345  -0.952  0.00  0.00    -0.297 N 
ATOM     10  C   UNL     1      -2.253   6.788  -0.781  0.00  0.00    +0.108 C 
ATOM     11  C   UNL     1      -0.953   7.525  -1.120  0.00  0.00    +0.020 C 
ATOM     12  C   UNL     1      -0.492   7.120  -2.522  0.00  0.00    +0.016 C 
ATOM     13  C   UNL     1      -0.217   5.614  -2.555  0.00  0.00    +0.092 C 
ATOM     14  C   UNL     1      -1.508   4.856  -2.232  0.00  0.00    +0.120 C 
BRANCH  13  15
ATOM     15  C   UNL     1       0.269   5.222  -3.926  0.00  0.00    +0.218 C 
ATOM     16  O   UNL     1       0.384   6.063  -4.793  0.00  0.00    -0.275 OA
ATOM     17  N   UNL     1       0.576   3.936  -4.190  0.00  0.00    -0.312 N 
ATOM     18  H   UNL     1       0.472   3.174  -3.404  0.00  0.00    +0.149 HD
BRANCH  17  19
ATOM     19  C   UNL     1       1.048   3.554  -5.523  0.00  0.00    +0.073 C 
ATOM     20  C   UNL     1       0.468   2.280  -6.140  0.00  0.00    +0.024 C 
ATOM     21  C   UNL     1       1.911   2.296  -5.633  0.00  0.00    +0.024 C 
ENDBRANCH  17  19
ENDBRANCH  13  15
ENDBRANCH   3   7
BRANCH   5  22
ATOM     22  N   UNL     1      -5.292   7.290   2.751  0.00  0.00    -0.216 N 
ATOM     23  H   UNL     1      -6.208   7.119   2.166  0.00  0.00    +0.174 HD
BRANCH  22  24
ATOM     24  S   UNL     1      -5.170   8.622   3.727  0.00  0.00    +0.072 S 
ATOM     25  O   UNL     1      -6.380   9.351   3.573  0.00  0.00    -0.150 OA
ATOM     26  O   UNL     1      -4.715   8.159   4.991  0.00  0.00    -0.150 OA
BRANCH  24  27
ATOM     27  C   UNL     1      -3.885   9.633   3.069  0.00  0.00    +0.109 A 
ATOM     28  C   UNL     1      -4.179  10.604   2.129  0.00  0.00    +0.029 A 
ATOM     29  C   UNL     1      -3.168  11.390   1.617  0.00  0.00    +0.006 A 
ATOM     30  C   UNL     1      -1.855  11.214   2.038  0.00  0.00    -0.044 A 
ATOM     31  C   UNL     1      -1.564  10.251   2.977  0.00  0.00    -0.042 A 
ATOM     32  C   UNL     1      -2.584   9.463   3.495  0.00  0.00    +0.032 A 
ATOM     33  C   UNL     1      -0.166  10.012   3.486  0.00  0.00    +0.035 C 
ATOM     34  C   UNL     1       0.863  10.625   2.538  0.00  0.00    +0.005 C 
ATOM     35  C   UNL     1       0.470  12.084   2.277  0.00  0.00    +0.005 C 
ATOM     36  C   UNL     1      -0.799  12.097   1.426  0.00  0.00    +0.035 C 
ENDBRANCH  24  27
ENDBRANCH  22  24
ENDBRANCH   5  22
TORSDOF 6
