REMARK  Name = ZINC63383858
REMARK  7 active torsions:
REMARK  status: ('A' for Active; 'I' for Inactive)
REMARK    1  A    between atoms: C_1  and  C_2
REMARK    2  A    between atoms: C_2  and  C_3
REMARK    3  A    between atoms: C_3  and  C_5
REMARK    4  A    between atoms: C_3  and  N_6
REMARK    5  A    between atoms: C_11  and  C_29
REMARK    6  A    between atoms: C_23  and  C_28
REMARK    7  A    between atoms: C_29  and  C_30
REMARK                            x       y       z     vdW  Elec       q    Type
REMARK                         _______ _______ _______ _____ _____    ______ ____
ROOT
ATOM      1  N   UNL     1      -0.055  -0.114  -2.441  0.00  0.00    -0.239 N 
ATOM      2  C   UNL     1      -1.315  -0.515  -2.643  0.00  0.00    +0.227 C 
ATOM      3  O   UNL     1      -1.954  -1.223  -1.894  0.00  0.00    -0.275 OA
ATOM      4  C   UNL     1      -1.819   0.052  -3.951  0.00  0.00    +0.107 C 
ATOM      5  C   UNL     1      -2.006  -1.099  -4.963  0.00  0.00    +0.072 C 
ATOM      6  N   UNL     1      -1.390  -0.602  -6.222  0.00  0.00    -0.295 NA
ATOM      7  C   UNL     1      -0.194   0.135  -5.773  0.00  0.00    +0.136 C 
ATOM      8  C   UNL     1      -0.608   0.872  -4.476  0.00  0.00    +0.122 C 
ATOM      9  C   UNL     1       0.440   0.671  -3.405  0.00  0.00    +0.228 C 
ATOM     10  O   UNL     1       1.556   1.145  -3.419  0.00  0.00    -0.275 OA
ATOM     11  C   UNL     1       0.970  -0.789  -5.546  0.00  0.00    +0.004 A 
ATOM     12  C   UNL     1       1.172  -1.874  -4.723  0.00  0.00    +0.008 A 
ATOM     13  C   UNL     1       2.385  -2.540  -4.740  0.00  0.00    +0.001 A 
ATOM     14  C   UNL     1       3.393  -2.112  -5.585  0.00  0.00    +0.005 A 
ATOM     15  C   UNL     1       3.195  -1.025  -6.411  0.00  0.00    -0.029 A 
ATOM     16  C   UNL     1       1.977  -0.349  -6.400  0.00  0.00    +0.042 A 
ATOM     17  N   UNL     1       1.541   0.758  -7.130  0.00  0.00    -0.283 N 
ATOM     18  C   UNL     1       0.277   1.106  -6.821  0.00  0.00    +0.243 C 
ATOM     19  O   UNL     1      -0.358   2.024  -7.296  0.00  0.00    -0.273 OA
ATOM     20  C   UNL     1       4.299  -0.567  -7.328  0.00  0.00    +0.045 C 
ATOM     21  H   UNL     1      -1.136  -1.368  -6.828  0.00  0.00    +0.124 HD
ATOM     22  H   UNL     1       2.086   1.224  -7.784  0.00  0.00    +0.155 HD
ENDROOT
BRANCH   1  23
ATOM     23  C   UNL     1       0.718  -0.497  -1.257  0.00  0.00    +0.081 C 
ATOM     24  C   UNL     1       0.849  -2.021  -1.205  0.00  0.00    +0.028 C 
BRANCH  23  26
ATOM     25  C   UNL     1      -0.019   1.526   0.010  0.00  0.00    +0.006 C 
ATOM     26  C   UNL     1       0.002  -0.004   0.002  0.00  0.00    +0.019 C 
ENDBRANCH  23  26
ENDBRANCH   1  23
BRANCH   5  27
ATOM     27  C   UNL     1      -3.493  -1.388  -5.173  0.00  0.00    +0.052 C 
BRANCH  27  28
ATOM     28  C   UNL     1      -3.650  -2.591  -6.067  0.00  0.00    -0.040 C 
ATOM     29  C   UNL     1      -3.831  -3.874  -5.680  0.00  0.00    -0.001 A 
ATOM     30  C   UNL     1      -3.931  -4.509  -4.360  0.00  0.00    +0.010 A 
ATOM     31  C   UNL     1      -4.115  -5.847  -4.289  0.00  0.00    +0.001 A 
ATOM     32  C   UNL     1      -4.213  -6.640  -5.441  0.00  0.00    +0.002 A 
ATOM     33  C   UNL     1      -4.131  -6.129  -6.687  0.00  0.00    +0.026 A 
ATOM     34  C   UNL     1      -3.937  -4.733  -6.880  0.00  0.00    +0.043 A 
ATOM     35  N   UNL     1      -3.827  -4.010  -7.968  0.00  0.00    -0.380 N 
ATOM     36  C   UNL     1      -3.643  -2.607  -7.579  0.00  0.00    +0.144 C 
ATOM     37  H   UNL     1      -3.864  -4.345  -8.877  0.00  0.00    +0.160 HD
ENDBRANCH  27  28
ENDBRANCH   5  27
TORSDOF 4
