REMARK  Name = ZINC39668863
REMARK  6 active torsions:
REMARK  status: ('A' for Active; 'I' for Inactive)
REMARK    1  A    between atoms: C_1  and  C_2
REMARK    2  A    between atoms: C_2  and  C_3
REMARK    3  A    between atoms: C_2  and  C_4
REMARK    4  A    between atoms: C_8  and  C_17
REMARK    5  A    between atoms: N_19  and  C_20
REMARK    6  A    between atoms: C_20  and  C_21
REMARK                            x       y       z     vdW  Elec       q    Type
REMARK                         _______ _______ _______ _____ _____    ______ ____
ROOT
ATOM      1  C   UNL     1       0.580  -0.263   1.084  0.00  0.00    +0.218 C 
ATOM      2  O   UNL     1       1.582  -0.909   0.862  0.00  0.00    -0.275 OA
ATOM      3  N   UNL     1       0.189  -0.041   2.355  0.00  0.00    -0.300 N 
ATOM      4  C   UNL     1      -0.999   0.712   2.821  0.00  0.00    +0.121 C 
ATOM      5  C   UNL     1      -1.530  -0.101   4.023  0.00  0.00    +0.100 C 
ATOM      6  C   UNL     1      -0.311  -0.890   4.532  0.00  0.00    -0.004 C 
ATOM      7  C   UNL     1       0.847  -0.501   3.601  0.00  0.00    +0.115 C 
ATOM      8  C   UNL     1      -0.575  -2.389   4.437  0.00  0.00    -0.010 C 
ATOM      9  C   UNL     1       0.627  -3.151   5.001  0.00  0.00    -0.082 C 
ATOM     10  N   UNL     1       0.845  -2.760   6.399  0.00  0.00    +0.379 N 
ATOM     11  C   UNL     1       1.189  -1.335   6.472  0.00  0.00    -0.082 C 
ATOM     12  C   UNL     1       0.011  -0.496   5.970  0.00  0.00    -0.010 C 
ATOM     13  H   UNL     1       0.003  -2.929   6.929  0.00  0.00    -0.086 HD
ATOM     14  H   UNL     1       1.598  -3.307   6.787  0.00  0.00    -0.086 HD
ENDROOT
BRANCH   5  15
ATOM     15  C   UNL     1      -2.619  -1.043   3.580  0.00  0.00    +0.218 C 
ATOM     16  O   UNL     1      -2.609  -1.495   2.454  0.00  0.00    -0.275 OA
ATOM     17  N   UNL     1      -3.605  -1.383   4.434  0.00  0.00    -0.312 N 
ATOM     18  H   UNL     1      -3.613  -1.021   5.334  0.00  0.00    +0.149 HD
BRANCH  17  19
ATOM     19  C   UNL     1      -4.665  -2.299   4.003  0.00  0.00    +0.140 C 
BRANCH  19  20
ATOM     20  C   UNL     1      -5.649  -2.517   5.153  0.00  0.00    +0.165 C 
ATOM     21  C   UNL     1      -6.742  -3.453   4.704  0.00  0.00    -0.014 A 
ATOM     22  C   UNL     1      -7.300  -3.270   3.448  0.00  0.00    +0.006 A 
ATOM     23  C   UNL     1      -8.306  -4.106   3.006  0.00  0.00    +0.000 A 
ATOM     24  C   UNL     1      -8.759  -5.129   3.818  0.00  0.00    +0.000 A 
ATOM     25  C   UNL     1      -8.203  -5.312   5.068  0.00  0.00    +0.004 A 
ATOM     26  C   UNL     1      -7.191  -4.476   5.512  0.00  0.00    -0.040 A 
ATOM     27  C   UNL     1      -6.599  -4.715   6.877  0.00  0.00    +0.063 C 
ATOM     28  C   UNL     1      -5.828  -3.474   7.331  0.00  0.00    +0.165 C 
ATOM     29  O   UNL     1      -4.956  -3.072   6.270  0.00  0.00    -0.370 OA
ENDBRANCH  19  20
ENDBRANCH  17  19
ENDBRANCH   5  15
BRANCH   1  31
ATOM     30  C   UNL     1      -0.286   1.817   0.048  0.00  0.00    +0.017 C 
ATOM     31  C   UNL     1      -0.228   0.292  -0.061  0.00  0.00    +0.069 C 
ATOM     32  C   UNL     1       0.428  -0.101  -1.386  0.00  0.00    +0.017 C 
ENDBRANCH   1  31
TORSDOF 4
