REMARK  Name = ZINC34859702
REMARK  9 active torsions:
REMARK  status: ('A' for Active; 'I' for Inactive)
REMARK    1  A    between atoms: C_1  and  C_2
REMARK    2  A    between atoms: C_7  and  N_12
REMARK    3  A    between atoms: C_9  and  C_11
REMARK    4  A    between atoms: C_13  and  C_15
REMARK    5  A    between atoms: C_23  and  C_36
REMARK    6  A    between atoms: N_29  and  C_30
REMARK    7  A    between atoms: N_38  and  C_39
REMARK    8  A    between atoms: C_42  and  O_45
REMARK    9  A    between atoms: O_45  and  C_46
REMARK                            x       y       z     vdW  Elec       q    Type
REMARK                         _______ _______ _______ _____ _____    ______ ____
ROOT
ATOM      1  C   UNL     1       0.877  -0.486   5.754  0.00  0.00    +0.199 C 
ATOM      2  C   UNL     1       0.250  -1.569   6.577  0.00  0.00    +0.127 C 
ATOM      3  C   UNL     1      -1.233  -1.349   6.809  0.00  0.00    +0.009 C 
ATOM      4  C   UNL     1      -1.640  -2.380   7.535  0.00  0.00    +0.004 C 
ATOM      5  C   UNL     1      -0.374  -3.205   7.798  0.00  0.00    +0.155 C 
ATOM      6  O   UNL     1       0.393  -2.970   6.545  0.00  0.00    -0.358 OA
ATOM      7  C   UNL     1       0.391  -2.312   8.851  0.00  0.00    +0.123 C 
ATOM      8  C   UNL     1       1.022  -1.272   7.925  0.00  0.00    +0.128 C 
ATOM      9  C   UNL     1       0.863   0.192   8.001  0.00  0.00    +0.224 C 
ATOM     10  O   UNL     1       0.739   0.853   9.011  0.00  0.00    -0.275 OA
ATOM     11  N   UNL     1       0.884   0.665   6.711  0.00  0.00    -0.283 N 
ENDROOT
BRANCH  11  12
ATOM     12  C   UNL     1       0.910   2.079   6.330  0.00  0.00    +0.077 C 
ATOM     13  C   UNL     1       2.163   2.740   6.907  0.00  0.00    +0.022 C 
ATOM     14  C   UNL     1       2.190   4.217   6.508  0.00  0.00    +0.002 C 
ATOM     15  C   UNL     1       0.945   4.916   7.059  0.00  0.00    +0.000 C 
ATOM     16  C   UNL     1      -0.308   4.255   6.483  0.00  0.00    +0.002 C 
ATOM     17  C   UNL     1      -0.335   2.778   6.881  0.00  0.00    +0.022 C 
ENDBRANCH  11  12
BRANCH   1  19
ATOM     18  N   UNL     1       0.146  -0.932   3.434  0.00  0.00    -0.311 N 
ATOM     19  C   UNL     1       0.036  -0.175   4.543  0.00  0.00    +0.237 C 
ATOM     20  O   UNL     1      -0.740   0.757   4.567  0.00  0.00    -0.274 OA
ATOM     21  H   UNL     1       0.766  -1.677   3.414  0.00  0.00    +0.149 HD
BRANCH  18  27
ATOM     22  C   UNL     1      -1.012   0.673  -0.346  0.00  0.00    +0.008 C 
ATOM     23  C   UNL     1      -0.829  -0.842  -0.228  0.00  0.00    -0.009 C 
ATOM     24  C   UNL     1      -2.197  -1.511  -0.084  0.00  0.00    +0.003 C 
ATOM     25  C   UNL     1      -2.895  -0.982   1.171  0.00  0.00    +0.002 C 
ATOM     26  C   UNL     1      -2.041  -1.298   2.400  0.00  0.00    +0.022 C 
ATOM     27  C   UNL     1      -0.672  -0.629   2.256  0.00  0.00    +0.076 C 
ATOM     28  C   UNL     1       0.025  -1.158   1.001  0.00  0.00    +0.009 C 
ATOM     29  C   UNL     1       1.393  -0.488   0.858  0.00  0.00    +0.009 C 
ENDBRANCH  18  27
ENDBRANCH   1  19
BRANCH   7  30
ATOM     30  C   UNL     1      -0.570  -1.683   9.827  0.00  0.00    +0.224 C 
ATOM     31  O   UNL     1      -0.660  -0.475   9.896  0.00  0.00    -0.275 OA
ATOM     32  N   UNL     1      -1.329  -2.462  10.622  0.00  0.00    -0.285 N 
ATOM     33  H   UNL     1      -1.314  -3.426  10.514  0.00  0.00    +0.155 HD
BRANCH  32  34
ATOM     34  C   UNL     1      -2.140  -1.880  11.605  0.00  0.00    +0.034 A 
ATOM     35  C   UNL     1      -3.353  -2.466  11.941  0.00  0.00    +0.027 A 
ATOM     36  C   UNL     1      -4.152  -1.892  12.910  0.00  0.00    +0.047 A 
ATOM     37  C   UNL     1      -3.743  -0.730  13.548  0.00  0.00    +0.120 A 
ATOM     38  C   UNL     1      -2.531  -0.144  13.213  0.00  0.00    +0.047 A 
ATOM     39  C   UNL     1      -1.728  -0.721  12.248  0.00  0.00    +0.027 A 
BRANCH  37  40
ATOM     40  O   UNL     1      -4.530  -0.165  14.502  0.00  0.00    -0.495 OA
ATOM     41  C   UNL     1      -4.046   1.030  15.118  0.00  0.00    +0.277 C 
ENDBRANCH  37  40
ENDBRANCH  32  34
ENDBRANCH   7  30
TORSDOF 6
