REMARK  Name = ZINC31889963
REMARK  2 active torsions:
REMARK  status: ('A' for Active; 'I' for Inactive)
REMARK    1  A    between atoms: C_9  and  C_11
REMARK    2  A    between atoms: C_14  and  C_17
REMARK                            x       y       z     vdW  Elec       q    Type
REMARK                         _______ _______ _______ _____ _____    ______ ____
ROOT
ATOM      1  C   UNL     1      -5.668   4.712  -3.529  0.00  0.00    +0.019 A 
ATOM      2  C   UNL     1      -5.256   3.838  -2.501  0.00  0.00    +0.021 A 
ATOM      3  C   UNL     1      -5.359   4.506  -1.343  0.00  0.00    +0.009 A 
ATOM      4  N   UNL     1      -5.824   5.767  -1.613  0.00  0.00    -0.354 N 
ATOM      5  C   UNL     1      -6.009   5.885  -2.953  0.00  0.00    +0.086 A 
ATOM      6  C   UNL     1      -6.064   6.777  -0.575  0.00  0.00    +0.102 C 
ATOM      7  C   UNL     1      -6.115   6.066   0.783  0.00  0.00    -0.059 C 
ATOM      8  N   UNL     1      -4.942   5.194   0.932  0.00  0.00    +0.388 N 
ATOM      9  C   UNL     1      -5.036   4.019   0.048  0.00  0.00    +0.007 C 
ATOM     10  H   UNL     1      -4.032   5.756   0.675  0.00  0.00    -0.084 HD
ATOM     11  H   UNL     1      -4.875   4.846   1.974  0.00  0.00    -0.084 HD
ENDROOT
BRANCH   9  12
ATOM     12  C   UNL     1      -3.720   3.284   0.037  0.00  0.00    -0.056 A 
ATOM     13  C   UNL     1      -3.705   1.900   0.030  0.00  0.00    +0.003 A 
ATOM     14  C   UNL     1      -2.505   1.220   0.021  0.00  0.00    +0.015 A 
ATOM     15  C   UNL     1      -1.304   1.932   0.019  0.00  0.00    +0.063 A 
ATOM     16  C   UNL     1      -1.326   3.328   0.032  0.00  0.00    +0.015 A 
ATOM     17  C   UNL     1      -2.534   3.995   0.036  0.00  0.00    +0.003 A 
BRANCH  15  18
ATOM     18  C   UNL     1      -0.014   1.210   0.009  0.00  0.00    +0.387 C 
ATOM     19  O   UNL     1       0.002  -0.004   0.002  0.00  0.00    -0.241 OA
ATOM     20  O   UNL     1       1.143   1.900   0.001  0.00  0.00    -0.241 OA
ENDBRANCH  15  18
ENDBRANCH   9  12
TORSDOF 2
