REMARK  Name = ZINC40372503
REMARK  6 active torsions:
REMARK  status: ('A' for Active; 'I' for Inactive)
REMARK    1  A    between atoms: C_1  and  C_2
REMARK    2  A    between atoms: C_3  and  C_7
REMARK    3  A    between atoms: N_9  and  C_10
REMARK    4  A    between atoms: C_10  and  C_17
REMARK    5  A    between atoms: C_13  and  C_16
REMARK    6  A    between atoms: N_18  and  O_19
REMARK                            x       y       z     vdW  Elec       q    Type
REMARK                         _______ _______ _______ _____ _____    ______ ____
ROOT
ATOM      1  C   UNL     1       0.053  -0.743  -5.004  0.00  0.00    +0.093 C 
ATOM      2  C   UNL     1       1.327  -0.014  -5.438  0.00  0.00    +0.034 C 
ATOM      3  C   UNL     1       2.545  -0.885  -5.123  0.00  0.00    +0.006 C 
ATOM      4  C   UNL     1       2.433  -2.210  -5.880  0.00  0.00    -0.014 C 
ATOM      5  C   UNL     1       1.160  -2.939  -5.446  0.00  0.00    +0.006 C 
ATOM      6  C   UNL     1      -0.058  -2.068  -5.760  0.00  0.00    +0.034 C 
ATOM      7  C   UNL     1       2.377  -1.936  -7.384  0.00  0.00    +0.007 C 
ENDROOT
BRANCH   1   8
ATOM      8  C   UNL     1      -1.146   0.115  -5.314  0.00  0.00    +0.155 C 
ATOM      9  N   UNL     1      -2.053  -0.312  -6.129  0.00  0.00    -0.075 NA
ATOM     10  N   UNL     1      -1.277   1.354  -4.727  0.00  0.00    -0.342 N 
ATOM     11  H   UNL     1      -0.642   1.640  -4.051  0.00  0.00    +0.144 HD
ATOM     12  H   UNL     1      -2.003   1.941  -4.989  0.00  0.00    +0.144 HD
BRANCH   9  13
ATOM     13  O   UNL     1      -3.180   0.494  -6.420  0.00  0.00    -0.408 OA
ATOM     14  H   UNL     1      -3.802   0.090  -7.040  0.00  0.00    +0.328 HD
ENDBRANCH   9  13
ENDBRANCH   1   8
BRANCH   1  17
ATOM     15  C   UNL     1      -0.931  -1.606  -2.949  0.00  0.00    +0.253 C 
ATOM     16  O   UNL     1      -1.948  -1.849  -3.571  0.00  0.00    -0.270 OA
ATOM     17  N   UNL     1       0.107  -1.006  -3.564  0.00  0.00    -0.298 N 
ATOM     18  H   UNL     1       0.890  -0.748  -3.053  0.00  0.00    +0.150 HD
BRANCH  15  21
ATOM     19  C   UNL     1      -3.116  -2.992  -1.221  0.00  0.00    +0.067 C 
ATOM     20  C   UNL     1      -1.759  -2.579  -0.713  0.00  0.00    +0.058 A 
ATOM     21  C   UNL     1      -0.834  -1.967  -1.531  0.00  0.00    +0.096 A 
ATOM     22  S   UNL     1       0.515  -1.738  -0.384  0.00  0.00    -0.071 S 
ATOM     23  C   UNL     1      -0.214  -2.421   0.971  0.00  0.00    +0.156 A 
ATOM     24  N   UNL     1      -1.400  -2.777   0.531  0.00  0.00    -0.252 NA
ENDBRANCH  15  21
ENDBRANCH   1  17
TORSDOF 4
