REMARK  Name = ZINC14240889
REMARK  9 active torsions:
REMARK  status: ('A' for Active; 'I' for Inactive)
REMARK    1  A    between atoms: C_1  and  C_2
REMARK    2  A    between atoms: C_2  and  C_3
REMARK    3  A    between atoms: C_3  and  C_4
REMARK    4  A    between atoms: C_3  and  C_5
REMARK    5  A    between atoms: C_3  and  C_6
REMARK    6  A    between atoms: C_13  and  N_17
REMARK    7  A    between atoms: C_14  and  C_15
REMARK    8  A    between atoms: C_18  and  C_20
REMARK    9  A    between atoms: C_20  and  N_21
REMARK                            x       y       z     vdW  Elec       q    Type
REMARK                         _______ _______ _______ _____ _____    ______ ____
ROOT
ATOM      1  N   UNL     1      -1.074  -0.881   0.007  0.00  0.00    -0.278 N 
ATOM      2  C   UNL     1      -2.333  -0.402   0.021  0.00  0.00    +0.236 C 
ATOM      3  O   UNL     1      -2.527   0.795   0.030  0.00  0.00    -0.274 OA
ATOM      4  H   UNL     1      -0.919  -1.839   0.000  0.00  0.00    +0.155 HD
ENDROOT
BRANCH   1  11
ATOM      5  C   UNL     1       3.899   3.121   0.361  0.00  0.00    -0.000 C 
ATOM      6  C   UNL     1       4.436   1.965  -0.487  0.00  0.00    +0.009 C 
ATOM      7  C   UNL     1       3.804   0.648  -0.032  0.00  0.00    +0.037 C 
ATOM      8  C   UNL     1       2.289   0.811  -0.016  0.00  0.00    -0.018 A 
ATOM      9  C   UNL     1       1.722   2.038  -0.003  0.00  0.00    -0.004 A 
ATOM     10  S   UNL     1      -0.021   1.728   0.011  0.00  0.00    -0.077 S 
ATOM     11  C   UNL     1       0.002  -0.004   0.002  0.00  0.00    +0.090 A 
ATOM     12  C   UNL     1       1.357  -0.302  -0.013  0.00  0.00    +0.084 A 
ATOM     13  C   UNL     1       2.426   3.359  -0.002  0.00  0.00    +0.047 C 
BRANCH   5  14
ATOM     14  C   UNL     1       4.709   4.387   0.073  0.00  0.00    -0.032 C 
ATOM     15  C   UNL     1       6.179   4.142   0.420  0.00  0.00    +0.011 C 
ATOM     16  C   UNL     1       4.587   4.745  -1.409  0.00  0.00    +0.011 C 
BRANCH  14  18
ATOM     17  C   UNL     1       4.981   6.807   0.635  0.00  0.00    +0.004 C 
ATOM     18  C   UNL     1       4.171   5.541   0.922  0.00  0.00    +0.003 C 
ENDBRANCH  14  18
ENDBRANCH   5  14
BRANCH  12  19
ATOM     19  C   UNL     1       1.818  -1.657  -0.025  0.00  0.00    +0.102 C 
ATOM     20  N   UNL     1       2.185  -2.733  -0.035  0.00  0.00    -0.191 NA
ENDBRANCH  12  19
ENDBRANCH   1  11
BRANCH   2  21
ATOM     21  C   UNL     1      -3.502  -1.355   0.027  0.00  0.00    +0.214 C 
BRANCH  21  22
ATOM     22  N   UNL     1      -4.753  -0.593   0.043  0.00  0.00    -0.215 N 
ATOM     23  C   UNL     1      -5.412  -0.191  -1.066  0.00  0.00    +0.251 C 
ATOM     24  O   UNL     1      -5.096  -0.384  -2.220  0.00  0.00    -0.272 OA
ATOM     25  C   UNL     1      -6.624   0.547  -0.561  0.00  0.00    +0.138 C 
ATOM     26  C   UNL     1      -6.636   1.999  -1.055  0.00  0.00    +0.045 C 
ATOM     27  C   UNL     1      -8.149   2.279  -1.207  0.00  0.00    +0.038 C 
ATOM     28  C   UNL     1      -8.783   0.922  -1.433  0.00  0.00    -0.042 A 
ATOM     29  C   UNL     1      -7.901  -0.077  -1.055  0.00  0.00    -0.012 A 
ATOM     30  C   UNL     1      -8.277  -1.405  -1.173  0.00  0.00    +0.006 A 
ATOM     31  C   UNL     1      -9.524  -1.735  -1.665  0.00  0.00    +0.000 A 
ATOM     32  C   UNL     1     -10.404  -0.738  -2.042  0.00  0.00    +0.000 A 
ATOM     33  C   UNL     1     -10.032   0.588  -1.926  0.00  0.00    +0.004 A 
ATOM     34  N   UNL     1      -6.516   0.481   0.897  0.00  0.00    -0.281 N 
ATOM     35  C   UNL     1      -5.389  -0.212   1.159  0.00  0.00    +0.310 C 
ATOM     36  O   UNL     1      -4.992  -0.460   2.281  0.00  0.00    -0.252 OA
ATOM     37  H   UNL     1      -7.132   0.856   1.544  0.00  0.00    +0.152 HD
ENDBRANCH  21  22
ENDBRANCH   2  21
TORSDOF 6
