REMARK  Name = ZINC09088922
REMARK  7 active torsions:
REMARK  status: ('A' for Active; 'I' for Inactive)
REMARK    1  A    between atoms: C_1  and  C_2
REMARK    2  A    between atoms: C_2  and  C_3
REMARK    3  A    between atoms: C_3  and  C_4
REMARK    4  A    between atoms: C_11  and  N_23
REMARK    5  A    between atoms: C_12  and  C_21
REMARK    6  A    between atoms: C_13  and  C_15
REMARK    7  A    between atoms: C_19  and  C_20
REMARK                            x       y       z     vdW  Elec       q    Type
REMARK                         _______ _______ _______ _____ _____    ______ ____
ROOT
ATOM      1  C   UNL     1       0.762  -2.018   1.233  0.00  0.00    +0.071 A 
ATOM      2  C   UNL     1      -0.197  -2.849   1.795  0.00  0.00    +0.049 A 
ATOM      3  C   UNL     1       0.183  -4.144   1.575  0.00  0.00    +0.222 A 
ATOM      4  N   UNL     1       1.343  -4.117   0.900  0.00  0.00    -0.246 N 
ATOM      5  H   UNL     1       1.851  -4.889   0.606  0.00  0.00    +0.192 HD
ATOM      6  N   UNL     1       1.687  -2.773   0.689  0.00  0.00    -0.176 NA
ATOM      7  O   UNL     1      -0.548  -5.204   2.001  0.00  0.00    -0.423 OA
ATOM      8  C   UNL     1      -1.810  -4.967   2.414  0.00  0.00    +0.200 C 
ATOM      9  C   UNL     1      -2.297  -3.734   2.675  0.00  0.00    +0.098 C 
ATOM     10  C   UNL     1      -1.460  -2.486   2.532  0.00  0.00    +0.102 C 
ENDROOT
BRANCH  10  11
ATOM     11  C   UNL     1      -1.115  -1.946   3.897  0.00  0.00    -0.025 A 
ATOM     12  C   UNL     1      -0.418  -2.723   4.802  0.00  0.00    +0.012 A 
ATOM     13  C   UNL     1      -0.124  -2.207   6.021  0.00  0.00    +0.046 A 
ATOM     14  S   UNL     1      -0.842  -0.576   5.915  0.00  0.00    -0.102 S 
ATOM     15  C   UNL     1      -1.480  -0.690   4.251  0.00  0.00    -0.009 A 
ATOM     16  C   UNL     1      -2.232   0.342   3.450  0.00  0.00    +0.052 C 
ENDBRANCH  10  11
BRANCH   8  17
ATOM     17  N   UNL     1      -2.649  -6.041   2.578  0.00  0.00    -0.328 N 
ATOM     18  H   UNL     1      -2.328  -6.939   2.398  0.00  0.00    +0.145 HD
ATOM     19  H   UNL     1      -3.562  -5.902   2.873  0.00  0.00    +0.145 HD
ENDBRANCH   8  17
BRANCH   9  20
ATOM     20  C   UNL     1      -3.657  -3.606   3.103  0.00  0.00    +0.101 C 
ATOM     21  N   UNL     1      -4.737  -3.505   3.443  0.00  0.00    -0.191 NA
ENDBRANCH   9  20
BRANCH   1  22
ATOM     22  C   UNL     1       0.742  -0.511   1.242  0.00  0.00    +0.057 C 
BRANCH  22  24
ATOM     23  C   UNL     1      -0.019   1.526   0.010  0.00  0.00    +0.004 C 
ATOM     24  C   UNL     1       0.002  -0.004   0.002  0.00  0.00    +0.003 C 
ENDBRANCH  22  24
ENDBRANCH   1  22
TORSDOF 5
