REMARK  Name = ZINC35098011
REMARK  12 active torsions:
REMARK  status: ('A' for Active; 'I' for Inactive)
REMARK    1  A    between atoms: C_1  and  C_2
REMARK    2  A    between atoms: C_2  and  C_3
REMARK    3  A    between atoms: C_3  and  C_5
REMARK    4  A    between atoms: C_3  and  C_6
REMARK    5  A    between atoms: C_6  and  C_8
REMARK    6  A    between atoms: C_6  and  N_24
REMARK    7  A    between atoms: C_14  and  C_17
REMARK    8  A    between atoms: N_20  and  C_21
REMARK    9  A    between atoms: C_21  and  C_22
REMARK   10  A    between atoms: C_21  and  C_23
REMARK   11  A    between atoms: N_24  and  S_25
REMARK   12  A    between atoms: S_25  and  C_28
REMARK                            x       y       z     vdW  Elec       q    Type
REMARK                         _______ _______ _______ _____ _____    ______ ____
ROOT
ATOM      1  C   UNL     1      -2.694  -0.312  -0.987  0.00  0.00    +0.165 C 
ENDROOT
BRANCH   1   2
ATOM      2  C   UNL     1      -2.524   1.183  -1.064  0.00  0.00    +0.235 C 
ATOM      3  O   UNL     1      -3.487   1.893  -1.266  0.00  0.00    -0.274 OA
ATOM      4  N   UNL     1      -1.303   1.732  -0.908  0.00  0.00    -0.297 N 
ATOM      5  C   UNL     1      -0.114   0.881  -0.761  0.00  0.00    +0.127 C 
ATOM      6  C   UNL     1       0.609   1.269   0.535  0.00  0.00    +0.128 C 
ATOM      7  N   UNL     1       0.775   2.729   0.561  0.00  0.00    -0.280 N 
ATOM      8  C   UNL     1      -0.414   3.580   0.413  0.00  0.00    +0.092 C 
ATOM      9  C   UNL     1      -1.136   3.192  -0.888  0.00  0.00    +0.130 C 
ATOM     10  C   UNL     1      -1.346   3.371   1.609  0.00  0.00    +0.030 C 
ATOM     11  C   UNL     1       1.996   3.278   0.717  0.00  0.00    +0.303 C 
ATOM     12  O   UNL     1       2.111   4.483   0.835  0.00  0.00    -0.253 OA
ATOM     13  N   UNL     1       3.091   2.492   0.742  0.00  0.00    -0.297 N 
ATOM     14  H   UNL     1       3.008   1.540   0.571  0.00  0.00    +0.150 HD
BRANCH  13  15
ATOM     15  C   UNL     1       4.404   3.073   1.026  0.00  0.00    +0.068 C 
ATOM     16  C   UNL     1       4.609   3.155   2.540  0.00  0.00    +0.027 C 
ATOM     17  C   UNL     1       5.495   2.195   0.411  0.00  0.00    +0.027 C 
ENDBRANCH  13  15
ENDBRANCH   1   2
BRANCH   1  18
ATOM     18  C   UNL     1      -3.043  -0.713   0.448  0.00  0.00    +0.013 C 
ATOM     19  C   UNL     1      -1.851  -0.425   1.363  0.00  0.00    +0.009 C 
BRANCH  18  21
ATOM     20  C   UNL     1      -5.491  -0.329   0.123  0.00  0.00    +0.004 C 
ATOM     21  C   UNL     1      -4.255   0.092   0.921  0.00  0.00    +0.002 C 
ENDBRANCH  18  21
ENDBRANCH   1  18
BRANCH   1  22
ATOM     22  N   UNL     1      -3.772  -0.729  -1.887  0.00  0.00    -0.178 NA
ATOM     23  H   UNL     1      -4.532  -0.144  -2.036  0.00  0.00    +0.149 HD
BRANCH  22  24
ATOM     24  S   UNL     1      -3.695  -2.197  -2.648  0.00  0.00    +0.059 S 
ATOM     25  O   UNL     1      -4.944  -2.383  -3.300  0.00  0.00    -0.153 OA
ATOM     26  O   UNL     1      -2.459  -2.227  -3.348  0.00  0.00    -0.153 OA
BRANCH  24  27
ATOM     27  C   UNL     1      -3.593  -3.430  -1.394  0.00  0.00    +0.105 A 
ATOM     28  C   UNL     1      -2.360  -3.909  -0.995  0.00  0.00    +0.029 A 
ATOM     29  C   UNL     1      -2.280  -4.876  -0.010  0.00  0.00    +0.017 A 
ATOM     30  C   UNL     1      -3.434  -5.364   0.576  0.00  0.00    +0.018 A 
ATOM     31  C   UNL     1      -4.668  -4.884   0.176  0.00  0.00    +0.017 A 
ATOM     32  C   UNL     1      -4.747  -3.913  -0.805  0.00  0.00    +0.029 A 
ATOM     33 BR   UNL     1      -3.325  -6.687   1.922  0.00  0.00    -0.050 Br
ENDBRANCH  24  27
ENDBRANCH  22  24
ENDBRANCH   1  22
TORSDOF 7
