REMARK  Name = ZINC36213900
REMARK  6 active torsions:
REMARK  status: ('A' for Active; 'I' for Inactive)
REMARK    1  A    between atoms: C_1  and  C_2
REMARK    2  A    between atoms: C_5  and  N_8
REMARK    3  A    between atoms: C_14  and  C_17
REMARK    4  A    between atoms: C_17  and  C_19
REMARK    5  A    between atoms: C_17  and  N_26
REMARK    6  A    between atoms: C_27  and  C_29
REMARK                            x       y       z     vdW  Elec       q    Type
REMARK                         _______ _______ _______ _____ _____    ______ ____
ROOT
ATOM      1  N   UNL     1      -2.680  -3.974   0.706  0.00  0.00    -0.269 N 
ATOM      2  C   UNL     1      -2.588  -4.707   1.833  0.00  0.00    +0.306 C 
ATOM      3  O   UNL     1      -3.166  -4.348   2.841  0.00  0.00    -0.252 OA
ATOM      4  N   UNL     1      -1.857  -5.839   1.843  0.00  0.00    -0.285 N 
ATOM      5  C   UNL     1      -1.023  -6.202   0.689  0.00  0.00    +0.109 C 
ATOM      6  C   UNL     1      -1.387  -7.623   0.245  0.00  0.00    +0.025 C 
ATOM      7  C   UNL     1      -1.258  -8.574   1.438  0.00  0.00    +0.021 C 
ATOM      8  C   UNL     1      -2.231  -8.148   2.540  0.00  0.00    +0.025 C 
ATOM      9  C   UNL     1      -1.872  -6.730   3.011  0.00  0.00    +0.109 C 
ATOM     10  H   UNL     1      -2.322  -4.319  -0.128  0.00  0.00    +0.156 HD
ENDROOT
BRANCH   1  15
ATOM     11  C   UNL     1      -5.160   1.127   0.832  0.00  0.00    +0.044 C 
ATOM     12  C   UNL     1      -4.501  -0.228   0.798  0.00  0.00    -0.050 A 
ATOM     13  C   UNL     1      -3.543  -0.506  -0.159  0.00  0.00    +0.005 A 
ATOM     14  C   UNL     1      -2.938  -1.747  -0.192  0.00  0.00    +0.023 A 
ATOM     15  C   UNL     1      -3.292  -2.716   0.737  0.00  0.00    +0.035 A 
ATOM     16  C   UNL     1      -4.254  -2.434   1.697  0.00  0.00    +0.023 A 
ATOM     17  C   UNL     1      -4.852  -1.189   1.729  0.00  0.00    +0.005 A 
ENDBRANCH   1  15
BRANCH   7  18
ATOM     18  C   UNL     1      -1.587  -9.999   0.990  0.00  0.00    +0.162 C 
BRANCH  18  19
ATOM     19  C   UNL     1      -1.392 -10.946   2.147  0.00  0.00    +0.236 C 
ATOM     20  O   UNL     1      -0.315 -11.475   2.322  0.00  0.00    -0.274 OA
ATOM     21  N   UNL     1      -2.414 -11.205   2.985  0.00  0.00    -0.300 N 
ATOM     22  C   UNL     1      -3.796 -10.729   2.825  0.00  0.00    +0.108 C 
ATOM     23  C   UNL     1      -4.603 -11.249   4.033  0.00  0.00    +0.020 C 
ATOM     24  C   UNL     1      -3.505 -11.515   5.096  0.00  0.00    +0.020 C 
ATOM     25  C   UNL     1      -2.334 -12.018   4.213  0.00  0.00    +0.108 C 
ENDBRANCH  18  19
BRANCH  18  26
ATOM     26  N   UNL     1      -0.699 -10.383  -0.110  0.00  0.00    -0.299 N 
ATOM     27  C   UNL     1      -1.085 -11.330  -0.988  0.00  0.00    +0.251 C 
ATOM     28  O   UNL     1      -2.171 -11.866  -0.867  0.00  0.00    -0.270 OA
ATOM     29  H   UNL     1       0.166  -9.956  -0.207  0.00  0.00    +0.150 HD
BRANCH  27  30
ATOM     30  C   UNL     1      -0.197 -11.714  -2.089  0.00  0.00    +0.074 A 
ATOM     31  C   UNL     1      -0.402 -12.649  -3.092  0.00  0.00    +0.021 A 
ATOM     32  C   UNL     1       0.625 -12.791  -3.995  0.00  0.00    +0.008 A 
ATOM     33  C   UNL     1       1.738 -12.031  -3.852  0.00  0.00    +0.046 A 
ATOM     34  S   UNL     1       1.425 -11.094  -2.493  0.00  0.00    -0.092 S 
ENDBRANCH  27  30
ENDBRANCH  18  26
ENDBRANCH   7  18
TORSDOF 5
