REMARK  Name = ZINC36646173
REMARK  5 active torsions:
REMARK  status: ('A' for Active; 'I' for Inactive)
REMARK    1  A    between atoms: C_1  and  C_2
REMARK    2  A    between atoms: C_5  and  C_8
REMARK    3  A    between atoms: C_8  and  S_9
REMARK    4  A    between atoms: S_9  and  C_10
REMARK    5  A    between atoms: N_23  and  N_24
REMARK                            x       y       z     vdW  Elec       q    Type
REMARK                         _______ _______ _______ _____ _____    ______ ____
ROOT
ATOM      1  C   UNL     1       1.632  -6.614  -0.043  0.00  0.00    +0.190 A 
ATOM      2  N   UNL     1       0.436  -7.167  -0.045  0.00  0.00    -0.215 NA
ATOM      3  C   UNL     1       0.298  -8.488  -0.051  0.00  0.00    +0.117 A 
ATOM      4  C   UNL     1       1.403  -9.355  -0.057  0.00  0.00    +0.077 A 
ATOM      5  C   UNL     1       1.093 -10.786  -0.063  0.00  0.00    -0.023 A 
ATOM      6  C   UNL     1      -0.211 -11.129  -0.064  0.00  0.00    -0.004 A 
ATOM      7  S   UNL     1      -1.093  -9.591  -0.056  0.00  0.00    -0.073 S 
ATOM      8  C   UNL     1      -0.785 -12.513  -0.070  0.00  0.00    +0.043 C 
ATOM      9  C   UNL     1       0.330 -13.499  -0.449  0.00  0.00    +0.005 C 
ATOM     10  C   UNL     1       1.572 -13.181   0.389  0.00  0.00    +0.005 C 
ATOM     11  C   UNL     1       2.181 -11.855  -0.068  0.00  0.00    +0.037 C 
ATOM     12  C   UNL     1       2.688  -8.726  -0.055  0.00  0.00    +0.280 A 
ATOM     13  O   UNL     1       3.705  -9.399  -0.060  0.00  0.00    -0.265 OA
ATOM     14  N   UNL     1       2.760  -7.383  -0.053  0.00  0.00    -0.209 N 
ENDROOT
BRANCH  14  15
ATOM     15  N   UNL     1       3.984  -6.776  -0.057  0.00  0.00    -0.293 N 
ATOM     16  H   UNL     1       3.890  -5.772  -0.051  0.00  0.00    +0.163 HD
ATOM     17  H   UNL     1       4.546  -7.092   0.720  0.00  0.00    +0.163 HD
ENDBRANCH  14  15
BRANCH   1  18
ATOM     18  S   UNL     1       1.777  -4.858  -0.034  0.00  0.00    -0.081 S 
BRANCH  18  19
ATOM     19  C   UNL     1       0.059  -4.275  -0.021  0.00  0.00    +0.112 C 
BRANCH  19  24
ATOM     20  C   UNL     1      -0.018   1.503   0.010  0.00  0.00    +0.044 C 
ATOM     21  C   UNL     1       0.002  -0.004   0.002  0.00  0.00    -0.050 A 
ATOM     22  C   UNL     1       0.006  -0.689  -1.199  0.00  0.00    +0.003 A 
ATOM     23  C   UNL     1       0.025  -2.071  -1.206  0.00  0.00    +0.005 A 
ATOM     24  C   UNL     1       0.040  -2.768  -0.013  0.00  0.00    -0.037 A 
ATOM     25  C   UNL     1       0.037  -2.084   1.188  0.00  0.00    +0.005 A 
ATOM     26  C   UNL     1       0.023  -0.702   1.195  0.00  0.00    +0.003 A 
ENDBRANCH  19  24
ENDBRANCH  18  19
ENDBRANCH   1  18
TORSDOF 4
