REMARK  Name = ZINC62716108
REMARK  3 active torsions:
REMARK  status: ('A' for Active; 'I' for Inactive)
REMARK    1  A    between atoms: C_6  and  C_7
REMARK    2  A    between atoms: C_12  and  C_15
REMARK    3  A    between atoms: C_13  and  O_14
REMARK                            x       y       z     vdW  Elec       q    Type
REMARK                         _______ _______ _______ _____ _____    ______ ____
ROOT
ATOM      1  C   UNL     1      -1.284  -0.827   0.316  0.00  0.00    +0.015 C 
ATOM      2  C   UNL     1      -2.448  -0.142   0.281  0.00  0.00    -0.005 C 
ATOM      3  C   UNL     1      -2.434   1.347   0.047  0.00  0.00    +0.039 C 
ATOM      4  C   UNL     1      -3.737   1.757  -0.645  0.00  0.00    +0.010 C 
ATOM      5  C   UNL     1      -4.921   1.321   0.222  0.00  0.00    +0.042 C 
ATOM      6  C   UNL     1      -4.863  -0.168   0.440  0.00  0.00    +0.032 C 
ATOM      7  C   UNL     1      -3.673  -0.828   0.459  0.00  0.00    +0.126 C 
ENDROOT
BRANCH   1  13
ATOM      8  C   UNL     1       0.106   1.150   0.901  0.00  0.00    +0.012 A 
ATOM      9  C   UNL     1       1.307   1.825   0.873  0.00  0.00    +0.050 A 
ATOM     10  C   UNL     1       2.409   1.268   0.239  0.00  0.00    +0.166 A 
ATOM     11  C   UNL     1       2.305   0.018  -0.374  0.00  0.00    +0.167 A 
ATOM     12  C   UNL     1       1.106  -0.665  -0.352  0.00  0.00    +0.057 A 
ATOM     13  C   UNL     1      -0.005  -0.103   0.288  0.00  0.00    -0.021 A 
ATOM     14  O   UNL     1       3.516  -0.301  -0.919  0.00  0.00    -0.453 OA
ATOM     15  C   UNL     1       4.245   0.939  -0.989  0.00  0.00    +0.466 C 
ATOM     16  O   UNL     1       3.683   1.727   0.077  0.00  0.00    -0.453 OA
ENDBRANCH   1  13
BRANCH   6  17
ATOM     17  C   UNL     1      -6.061  -0.890   0.623  0.00  0.00    +0.099 C 
ATOM     18  N   UNL     1      -6.495  -1.804  -0.245  0.00  0.00    -0.371 N 
ATOM     19  C   UNL     1      -7.764  -2.367   0.239  0.00  0.00    +0.132 C 
ATOM     20  C   UNL     1      -8.014  -1.619   1.564  0.00  0.00    +0.124 C 
ATOM     21  N   UNL     1      -6.854  -0.722   1.680  0.00  0.00    -0.329 N 
ATOM     22  H   UNL     1      -6.693  -0.103   2.410  0.00  0.00    +0.147 HD
ATOM     23  H   UNL     1      -6.044  -2.057  -1.066  0.00  0.00    +0.161 HD
ENDBRANCH   6  17
BRANCH   7  24
ATOM     24  O   UNL     1      -3.661  -2.167   0.656  0.00  0.00    -0.506 OA
ATOM     25  H   UNL     1      -3.154  -2.446   1.431  0.00  0.00    +0.292 HD
ENDBRANCH   7  24
TORSDOF 3
