REMARK  Name = ZINC36019356
REMARK  6 active torsions:
REMARK  status: ('A' for Active; 'I' for Inactive)
REMARK    1  A    between atoms: C_1  and  C_2
REMARK    2  A    between atoms: C_5  and  C_8
REMARK    3  A    between atoms: N_13  and  C_16
REMARK    4  A    between atoms: C_19  and  N_30
REMARK    5  A    between atoms: C_21  and  C_22
REMARK    6  A    between atoms: C_31  and  C_33
REMARK                            x       y       z     vdW  Elec       q    Type
REMARK                         _______ _______ _______ _____ _____    ______ ____
ROOT
ATOM      1  C   UNL     1      -0.835  -7.199   4.291  0.00  0.00    +0.042 A 
ATOM      2  C   UNL     1      -1.925  -7.706   4.987  0.00  0.00    +0.026 A 
ATOM      3  C   UNL     1      -1.741  -8.332   6.202  0.00  0.00    +0.025 A 
ATOM      4  C   UNL     1      -0.464  -8.461   6.741  0.00  0.00    +0.035 A 
ATOM      5  C   UNL     1       0.632  -7.961   6.060  0.00  0.00    +0.038 A 
ATOM      6  C   UNL     1       0.456  -7.331   4.825  0.00  0.00    +0.060 A 
ENDROOT
BRANCH   1  12
ATOM      7  C   UNL     1      -0.356  -4.656  -0.371  0.00  0.00    +0.247 C 
ATOM      8  O   UNL     1      -0.431  -5.315  -1.389  0.00  0.00    -0.270 OA
ATOM      9  N   UNL     1      -0.175  -5.267   0.816  0.00  0.00    -0.295 N 
ATOM     10  C   UNL     1      -0.206  -4.497   2.067  0.00  0.00    +0.127 C 
ATOM     11  C   UNL     1      -1.254  -5.118   2.999  0.00  0.00    +0.124 C 
ATOM     12  N   UNL     1      -1.022  -6.568   3.066  0.00  0.00    -0.326 N 
ATOM     13  C   UNL     1      -0.990  -7.339   1.815  0.00  0.00    +0.124 C 
ATOM     14  C   UNL     1       0.052  -6.718   0.883  0.00  0.00    +0.127 C 
BRANCH   7  19
ATOM     15  C   UNL     1      -0.774   1.078  -0.618  0.00  0.00    +0.044 C 
ATOM     16  C   UNL     1      -0.664  -0.423  -0.553  0.00  0.00    -0.050 A 
ATOM     17  C   UNL     1      -1.381  -1.205  -1.442  0.00  0.00    +0.004 A 
ATOM     18  C   UNL     1      -1.285  -2.580  -1.388  0.00  0.00    +0.013 A 
ATOM     19  C   UNL     1      -0.463  -3.183  -0.435  0.00  0.00    +0.037 A 
ATOM     20  C   UNL     1       0.257  -2.388   0.459  0.00  0.00    +0.013 A 
ATOM     21  C   UNL     1       0.157  -1.014   0.391  0.00  0.00    +0.004 A 
ENDBRANCH   7  19
ENDBRANCH   1  12
BRANCH   6  22
ATOM     22  C   UNL     1       1.620  -6.802   4.091  0.00  0.00    +0.248 C 
ATOM     23  O   UNL     1       1.653  -5.629   3.769  0.00  0.00    -0.270 OA
ATOM     24  N   UNL     1       2.646  -7.617   3.776  0.00  0.00    -0.297 N 
ATOM     25  C   UNL     1       2.569  -9.058   4.053  0.00  0.00    +0.108 C 
ATOM     26  C   UNL     1       2.866  -9.825   2.761  0.00  0.00    +0.019 C 
ATOM     27  C   UNL     1       4.212  -9.364   2.196  0.00  0.00    +0.003 C 
ATOM     28  C   UNL     1       4.144  -7.870   1.867  0.00  0.00    +0.019 C 
ATOM     29  C   UNL     1       3.860  -7.082   3.144  0.00  0.00    +0.108 C 
ENDBRANCH   6  22
BRANCH   4  30
ATOM     30  N   UNL     1      -0.288  -9.098   7.976  0.00  0.00    -0.281 N 
ATOM     31  C   UNL     1       0.674  -8.676   8.821  0.00  0.00    +0.255 C 
ATOM     32  O   UNL     1       1.328  -7.685   8.552  0.00  0.00    -0.269 OA
ATOM     33  H   UNL     1      -0.858  -9.842   8.223  0.00  0.00    +0.155 HD
BRANCH  31  34
ATOM     34  C   UNL     1       0.931  -9.409  10.063  0.00  0.00    +0.074 A 
ATOM     35  C   UNL     1       1.859  -9.143  11.059  0.00  0.00    +0.021 A 
ATOM     36  C   UNL     1       1.866 -10.020  12.118  0.00  0.00    +0.008 A 
ATOM     37  C   UNL     1       0.992 -11.057  12.121  0.00  0.00    +0.046 A 
ATOM     38  S   UNL     1       0.129 -10.872  10.692  0.00  0.00    -0.092 S 
ENDBRANCH  31  34
ENDBRANCH   4  30
TORSDOF 5
