REMARK  Name = ZINC09064654
REMARK  6 active torsions:
REMARK  status: ('A' for Active; 'I' for Inactive)
REMARK    1  A    between atoms: C_5  and  N_7
REMARK    2  A    between atoms: N_7  and  C_8
REMARK    3  A    between atoms: C_8  and  N_10
REMARK    4  A    between atoms: C_11  and  C_13
REMARK    5  A    between atoms: C_16  and  N_22
REMARK    6  A    between atoms: C_17  and  N_19
REMARK                            x       y       z     vdW  Elec       q    Type
REMARK                         _______ _______ _______ _____ _____    ______ ____
ROOT
ATOM      1  N   UNL     1       3.601   3.207  -0.247  0.00  0.00    -0.264 N 
ATOM      2  C   UNL     1       2.426   3.825  -0.482  0.00  0.00    +0.250 C 
ATOM      3  O   UNL     1       2.404   5.018  -0.716  0.00  0.00    -0.270 OA
ATOM      4  H   UNL     1       3.619   2.255  -0.061  0.00  0.00    +0.157 HD
ENDROOT
BRANCH   2   5
ATOM      5  C   UNL     1       1.169   3.055  -0.456  0.00  0.00    +0.039 A 
ATOM      6  C   UNL     1       1.194   1.683  -0.188  0.00  0.00    +0.015 A 
ATOM      7  C   UNL     1       0.029   0.969  -0.164  0.00  0.00    +0.026 A 
ATOM      8  C   UNL     1      -1.185   1.603  -0.411  0.00  0.00    +0.060 A 
ATOM      9  C   UNL     1      -1.220   2.970  -0.673  0.00  0.00    +0.148 A 
ATOM     10  C   UNL     1      -0.050   3.695  -0.699  0.00  0.00    +0.047 A 
BRANCH   8  11
ATOM     11  N   UNL     1      -2.367   0.871  -0.390  0.00  0.00    -0.328 N 
ATOM     12  C   UNL     1      -2.629   0.332   0.951  0.00  0.00    +0.105 C 
ATOM     13  C   UNL     1      -4.003  -0.341   0.972  0.00  0.00    +0.019 C 
ATOM     14  C   UNL     1      -4.029  -1.468  -0.065  0.00  0.00    +0.003 C 
ATOM     15  C   UNL     1      -3.706  -0.888  -1.445  0.00  0.00    +0.019 C 
ATOM     16  C   UNL     1      -2.341  -0.199  -1.396  0.00  0.00    +0.105 C 
ENDBRANCH   8  11
BRANCH   9  17
ATOM     17  N   UNL     1      -2.513   3.643  -0.930  0.00  0.00    +0.058 N 
ATOM     18  O   UNL     1      -2.542   4.838  -1.164  0.00  0.00    -0.126 OA
ATOM     19  O   UNL     1      -3.548   3.001  -0.907  0.00  0.00    -0.126 OA
ENDBRANCH   9  17
ENDBRANCH   2   5
BRANCH   1  20
ATOM     20  C   UNL     1       4.750   3.911  -0.271  0.00  0.00    +0.141 C 
ATOM     21  S   UNL     1       4.717   5.591  -0.600  0.00  0.00    -0.018 S 
BRANCH  20  22
ATOM     22  N   UNL     1       5.924   3.293  -0.036  0.00  0.00    -0.296 N 
ATOM     23  H   UNL     1       5.937   2.355   0.212  0.00  0.00    +0.154 HD
BRANCH  22  28
ATOM     24  C   UNL     1       8.440   5.948   0.337  0.00  0.00    +0.002 A 
ATOM     25  C   UNL     1       9.497   5.410  -0.373  0.00  0.00    +0.001 A 
ATOM     26  C   UNL     1       9.371   4.170  -0.973  0.00  0.00    +0.017 A 
ATOM     27  C   UNL     1       8.187   3.465  -0.863  0.00  0.00    +0.039 A 
ATOM     28  C   UNL     1       7.124   4.003  -0.149  0.00  0.00    +0.047 A 
ATOM     29  C   UNL     1       7.252   5.251   0.447  0.00  0.00    +0.024 A 
ATOM     30 BR   UNL     1       8.015   1.770  -1.684  0.00  0.00    -0.048 Br
ENDBRANCH  22  28
ENDBRANCH  20  22
ENDBRANCH   1  20
TORSDOF 6
