REMARK  Name = ZINC20919834
REMARK  10 active torsions:
REMARK  status: ('A' for Active; 'I' for Inactive)
REMARK    1  A    between atoms: C_1  and  C_2
REMARK    2  A    between atoms: C_2  and  C_3
REMARK    3  A    between atoms: C_2  and  C_4
REMARK    4  A    between atoms: C_4  and  C_5
REMARK    5  A    between atoms: C_5  and  N_6
REMARK    6  A    between atoms: C_15  and  S_16
REMARK    7  A    between atoms: S_16  and  C_17
REMARK    8  A    between atoms: C_17  and  C_18
REMARK    9  A    between atoms: N_20  and  C_21
REMARK   10  A    between atoms: C_22  and  C_26
REMARK                            x       y       z     vdW  Elec       q    Type
REMARK                         _______ _______ _______ _____ _____    ______ ____
ROOT
ATOM      1  N   UNL     1      -0.698   1.558   1.213  0.00  0.00    -0.287 N 
ATOM      2  C   UNL     1      -1.671   0.804   1.758  0.00  0.00    +0.263 A 
ATOM      3  O   UNL     1      -1.982  -0.262   1.254  0.00  0.00    -0.267 OA
ATOM      4  C   UNL     1      -2.336   1.272   2.935  0.00  0.00    +0.076 A 
ATOM      5  C   UNL     1      -3.411   0.622   3.688  0.00  0.00    -0.023 A 
ATOM      6  C   UNL     1      -3.875   1.270   4.775  0.00  0.00    -0.004 A 
ATOM      7  S   UNL     1      -2.924   2.763   4.862  0.00  0.00    -0.073 S 
ATOM      8  C   UNL     1      -1.902   2.512   3.433  0.00  0.00    +0.117 A 
ATOM      9  N   UNL     1      -0.934   3.207   2.848  0.00  0.00    -0.216 NA
ATOM     10  C   UNL     1      -0.335   2.752   1.766  0.00  0.00    +0.173 A 
ATOM     11  C   UNL     1      -4.961   0.821   5.705  0.00  0.00    +0.043 C 
ATOM     12  C   UNL     1      -5.734  -0.322   5.032  0.00  0.00    +0.005 C 
ATOM     13  C   UNL     1      -4.728  -1.333   4.473  0.00  0.00    +0.005 C 
ATOM     14  C   UNL     1      -3.993  -0.728   3.277  0.00  0.00    +0.037 C 
ENDROOT
BRANCH   1  15
ATOM     15  C   UNL     1      -0.013   1.086   0.008  0.00  0.00    +0.127 C 
BRANCH  15  16
ATOM     16  C   UNL     1      -0.753   1.593  -1.232  0.00  0.00    +0.025 C 
BRANCH  16  18
ATOM     17  C   UNL     1      -0.844   1.500  -3.727  0.00  0.00    +0.007 C 
ATOM     18  C   UNL     1      -0.037   1.099  -2.490  0.00  0.00    -0.016 C 
ATOM     19  C   UNL     1       1.356   1.729  -2.565  0.00  0.00    +0.007 C 
ENDBRANCH  16  18
ENDBRANCH  15  16
ENDBRANCH   1  15
BRANCH  10  20
ATOM     20  S   UNL     1       0.950   3.699   1.020  0.00  0.00    -0.078 S 
BRANCH  20  21
ATOM     21  C   UNL     1       0.989   5.117   2.145  0.00  0.00    +0.173 C 
BRANCH  21  22
ATOM     22  C   UNL     1       2.046   6.090   1.691  0.00  0.00    +0.228 C 
ATOM     23  O   UNL     1       2.709   5.849   0.704  0.00  0.00    -0.275 OA
ATOM     24  N   UNL     1       2.256   7.228   2.381  0.00  0.00    -0.279 N 
ATOM     25  H   UNL     1       1.655   7.447   3.277  0.00  0.00    +0.155 HD
BRANCH  24  26
ATOM     26  C   UNL     1       3.229   8.123   1.964  0.00  0.00    +0.084 A 
ATOM     27  C   UNL     1       3.585   9.340   2.534  0.00  0.00    +0.065 A 
ATOM     28  C   UNL     1       4.646  10.074   1.887  0.00  0.00    +0.022 A 
ATOM     29  C   UNL     1       5.191   9.525   0.786  0.00  0.00    +0.048 A 
ATOM     30  S   UNL     1       4.289   8.001   0.600  0.00  0.00    -0.081 S 
BRANCH  27  31
ATOM     31  C   UNL     1       2.918   9.850   3.736  0.00  0.00    +0.244 C 
ATOM     32  O   UNL     1       2.029   9.205   4.259  0.00  0.00    -0.270 OA
ATOM     33  N   UNL     1       3.291  11.034   4.262  0.00  0.00    -0.325 N 
ATOM     34  H   UNL     1       2.790  11.417   5.164  0.00  0.00    +0.145 HD
ATOM     35  H   UNL     1       4.094  11.617   3.789  0.00  0.00    +0.145 HD
ENDBRANCH  27  31
ENDBRANCH  24  26
ENDBRANCH  21  22
ENDBRANCH  20  21
ENDBRANCH  10  20
TORSDOF 8
