REMARK  Name = ZINC15073494
REMARK  6 active torsions:
REMARK  status: ('A' for Active; 'I' for Inactive)
REMARK    1  A    between atoms: C_1  and  O_2
REMARK    2  A    between atoms: O_2  and  C_3
REMARK    3  A    between atoms: C_8  and  N_9
REMARK    4  A    between atoms: N_12  and  C_13
REMARK    5  A    between atoms: N_17  and  C_18
REMARK    6  A    between atoms: C_24  and  C_26
REMARK                            x       y       z     vdW  Elec       q    Type
REMARK                         _______ _______ _______ _____ _____    ______ ____
ROOT
ATOM      1  C   UNL     1       9.178   3.767  -1.703  0.00  0.00    +0.125 A 
ATOM      2  C   UNL     1       9.934   4.761  -2.245  0.00  0.00    +0.065 A 
ATOM      3  C   UNL     1      11.158   4.206  -2.629  0.00  0.00    +0.136 A 
ATOM      4  N   UNL     1      11.140   2.930  -2.339  0.00  0.00    -0.178 NA
ATOM      5  N   UNL     1       9.904   2.627  -1.755  0.00  0.00    -0.247 N 
ENDROOT
BRANCH   5   6
ATOM      6  C   UNL     1       9.474   1.309  -1.283  0.00  0.00    +0.112 C 
ATOM      7  C   UNL     1      10.430   0.821  -0.192  0.00  0.00    +0.046 C 
ATOM      8  C   UNL     1       9.957  -0.542   0.324  0.00  0.00    +0.110 C 
ATOM      9  N   UNL     1       9.824  -1.459  -0.817  0.00  0.00    -0.297 N 
ATOM     10  C   UNL     1       9.000  -1.048  -1.962  0.00  0.00    +0.110 C 
ATOM     11  C   UNL     1       9.484   0.321  -2.451  0.00  0.00    +0.046 C 
ATOM     12  C   UNL     1      10.447  -2.654  -0.813  0.00  0.00    +0.247 C 
ATOM     13  O   UNL     1      10.419  -3.358  -1.804  0.00  0.00    -0.270 OA
BRANCH  12  14
ATOM     14  C   UNL     1      11.160  -3.108   0.392  0.00  0.00    +0.044 A 
ATOM     15  C   UNL     1      12.364  -3.896   0.301  0.00  0.00    +0.020 A 
ATOM     16  C   UNL     1      12.947  -4.259   1.460  0.00  0.00    +0.046 A 
ATOM     17  S   UNL     1      11.872  -3.554   2.692  0.00  0.00    -0.104 S 
ATOM     18  C   UNL     1      10.704  -2.804   1.657  0.00  0.00    +0.058 A 
ENDBRANCH  12  14
ENDBRANCH   5   6
BRANCH   1  22
ATOM     19  N   UNL     1       6.030   5.229  -0.710  0.00  0.00    -0.266 N 
ATOM     20  C   UNL     1       7.277   5.102  -1.203  0.00  0.00    +0.309 C 
ATOM     21  O   UNL     1       7.853   6.071  -1.658  0.00  0.00    -0.252 OA
ATOM     22  N   UNL     1       7.887   3.899  -1.192  0.00  0.00    -0.254 N 
ATOM     23  H   UNL     1       5.596   4.473  -0.285  0.00  0.00    +0.156 HD
ATOM     24  H   UNL     1       7.427   3.126  -0.829  0.00  0.00    +0.158 HD
BRANCH  19  30
ATOM     25  C   UNL     1       3.978   6.483  -0.992  0.00  0.00    +0.141 A 
ATOM     26  C   UNL     1       3.320   7.698  -1.097  0.00  0.00    +0.047 A 
ATOM     27  C   UNL     1       4.033   8.879  -1.010  0.00  0.00    +0.004 A 
ATOM     28  C   UNL     1       5.403   8.853  -0.829  0.00  0.00    +0.002 A 
ATOM     29  C   UNL     1       6.067   7.645  -0.729  0.00  0.00    +0.027 A 
ATOM     30  C   UNL     1       5.359   6.455  -0.810  0.00  0.00    +0.077 A 
BRANCH  25  32
ATOM     31  C   UNL     1       1.865   5.425  -1.259  0.00  0.00    +0.277 C 
ATOM     32  O   UNL     1       3.278   5.320  -1.072  0.00  0.00    -0.493 OA
ENDBRANCH  25  32
ENDBRANCH  19  30
ENDBRANCH   1  22
TORSDOF 5
