REMARK  Name = ZINC36799235
REMARK  8 active torsions:
REMARK  status: ('A' for Active; 'I' for Inactive)
REMARK    1  A    between atoms: C_1  and  C_2
REMARK    2  A    between atoms: C_9  and  C_16
REMARK    3  A    between atoms: C_11  and  O_12
REMARK    4  A    between atoms: C_16  and  S_17
REMARK    5  A    between atoms: S_17  and  C_18
REMARK    6  A    between atoms: C_21  and  C_30
REMARK    7  A    between atoms: N_22  and  C_23
REMARK    8  A    between atoms: C_23  and  C_24
REMARK                            x       y       z     vdW  Elec       q    Type
REMARK                         _______ _______ _______ _____ _____    ______ ____
ROOT
ATOM      1  C   UNL     1       0.480  -6.433  -3.149  0.00  0.00    +0.113 C 
ENDROOT
BRANCH   1  10
ATOM      2  C   UNL     1       0.308   2.239  -1.510  0.00  0.00    +0.109 C 
ATOM      3  C   UNL     1       0.471   0.745  -1.401  0.00  0.00    +0.214 C 
ATOM      4  O   UNL     1       0.797   0.243  -0.339  0.00  0.00    -0.276 OA
ATOM      5  N   UNL     1       0.261  -0.020  -2.454  0.00  0.00    -0.286 N 
ATOM      6  C   UNL     1       0.277  -1.375  -2.326  0.00  0.00    +0.037 A 
ATOM      7  C   UNL     1       0.419  -2.184  -3.467  0.00  0.00    +0.024 A 
ATOM      8  C   UNL     1       0.437  -3.538  -3.352  0.00  0.00    +0.013 A 
ATOM      9  C   UNL     1       0.312  -4.136  -2.086  0.00  0.00    +0.022 A 
ATOM     10  C   UNL     1       0.329  -5.540  -1.945  0.00  0.00    -0.020 A 
ATOM     11  C   UNL     1       0.203  -6.077  -0.679  0.00  0.00    +0.092 A 
ATOM     12  C   UNL     1       0.065  -5.239   0.418  0.00  0.00    +0.285 A 
ATOM     13  O   UNL     1       0.050  -3.909   0.280  0.00  0.00    -0.425 OA
ATOM     14  C   UNL     1       0.169  -3.331  -0.933  0.00  0.00    +0.141 A 
ATOM     15  C   UNL     1       0.157  -1.954  -1.061  0.00  0.00    +0.070 A 
ATOM     16  H   UNL     1       0.095   0.383  -3.321  0.00  0.00    +0.155 HD
BRANCH  12  17
ATOM     17  O   UNL     1      -0.056  -5.776   1.647  0.00  0.00    -0.480 OA
ATOM     18  H   UNL     1      -0.148  -5.123   2.354  0.00  0.00    +0.295 HD
ENDBRANCH  12  17
ENDBRANCH   1  10
BRANCH   1  19
ATOM     19  S   UNL     1       2.162  -7.110  -3.193  0.00  0.00    -0.081 S 
BRANCH  19  20
ATOM     20  C   UNL     1       2.178  -8.118  -4.638  0.00  0.00    +0.193 A 
ATOM     21  N   UNL     1       1.179  -8.303  -5.470  0.00  0.00    -0.122 NA
ATOM     22  N   UNL     1       1.532  -9.098  -6.416  0.00  0.00    -0.128 NA
ATOM     23  C   UNL     1       2.781  -9.470  -6.247  0.00  0.00    +0.172 A 
ATOM     24  N   UNL     1       3.236  -8.849  -5.105  0.00  0.00    -0.297 N 
BRANCH  23  25
ATOM     25  C   UNL     1       3.550 -10.375  -7.117  0.00  0.00    +0.056 A 
ATOM     26  C   UNL     1       3.287 -10.768  -8.404  0.00  0.00    +0.019 A 
ATOM     27  C   UNL     1       4.162 -11.632  -9.024  0.00  0.00    +0.008 A 
ATOM     28  C   UNL     1       5.255 -12.067  -8.345  0.00  0.00    +0.046 A 
ATOM     29  S   UNL     1       5.074 -11.239  -6.774  0.00  0.00    -0.094 S 
ENDBRANCH  23  25
BRANCH  24  30
ATOM     30  C   UNL     1       4.572  -8.951  -4.513  0.00  0.00    +0.161 C 
BRANCH  30  31
ATOM     31  C   UNL     1       5.425  -7.808  -4.997  0.00  0.00    -0.028 A 
ATOM     32  C   UNL     1       6.088  -7.905  -6.207  0.00  0.00    +0.005 A 
ATOM     33  C   UNL     1       6.871  -6.856  -6.651  0.00  0.00    +0.000 A 
ATOM     34  C   UNL     1       6.990  -5.710  -5.887  0.00  0.00    +0.000 A 
ATOM     35  C   UNL     1       6.327  -5.613  -4.678  0.00  0.00    +0.000 A 
ATOM     36  C   UNL     1       5.540  -6.660  -4.236  0.00  0.00    +0.005 A 
ENDBRANCH  30  31
ENDBRANCH  24  30
ENDBRANCH  19  20
ENDBRANCH   1  19
TORSDOF 7
