REMARK  Name = ZINC48503243
REMARK  4 active torsions:
REMARK  status: ('A' for Active; 'I' for Inactive)
REMARK    1  A    between atoms: C_1  and  N_2
REMARK    2  A    between atoms: C_3  and  C_5
REMARK    3  A    between atoms: C_9  and  N_11
REMARK    4  A    between atoms: N_14  and  C_15
REMARK                            x       y       z     vdW  Elec       q    Type
REMARK                         _______ _______ _______ _____ _____    ______ ____
ROOT
ATOM      1  N   UNL     1       1.838  -4.906  -3.133  0.00  0.00    -0.268 N 
ATOM      2  C   UNL     1       2.319  -4.230  -4.194  0.00  0.00    +0.304 C 
ATOM      3  O   UNL     1       2.307  -3.014  -4.197  0.00  0.00    -0.252 OA
ATOM      4  N   UNL     1       2.814  -4.902  -5.253  0.00  0.00    -0.294 N 
ATOM      5  H   UNL     1       1.907  -5.873  -3.102  0.00  0.00    +0.156 HD
ATOM      6  H   UNL     1       2.824  -5.872  -5.250  0.00  0.00    +0.151 HD
ENDROOT
BRANCH   4   7
ATOM      7  C   UNL     1       3.338  -4.167  -6.407  0.00  0.00    +0.037 C 
ATOM      8  C   UNL     1       2.229  -3.300  -7.005  0.00  0.00    +0.029 C 
ATOM      9  C   UNL     1       2.776  -2.532  -8.211  0.00  0.00    -0.008 C 
ATOM     10  C   UNL     1       3.272  -3.524  -9.264  0.00  0.00    +0.007 C 
ATOM     11  C   UNL     1       4.381  -4.391  -8.666  0.00  0.00    -0.008 C 
ATOM     12  C   UNL     1       3.835  -5.159  -7.461  0.00  0.00    +0.029 C 
ATOM     13  C   UNL     1       5.541  -3.499  -8.219  0.00  0.00    +0.007 C 
ATOM     14  C   UNL     1       5.045  -2.507  -7.165  0.00  0.00    -0.008 C 
ATOM     15  C   UNL     1       3.935  -1.640  -7.764  0.00  0.00    +0.007 C 
ATOM     16  C   UNL     1       4.498  -3.275  -5.960  0.00  0.00    +0.029 C 
ENDBRANCH   4   7
BRANCH   1  21
ATOM     17  C   UNL     1       1.114  -2.279  -0.649  0.00  0.00    +0.039 A 
ATOM     18  C   UNL     1       0.036  -2.852   0.028  0.00  0.00    +0.014 A 
ATOM     19  C   UNL     1      -0.432  -4.094  -0.347  0.00  0.00    +0.022 A 
ATOM     20  C   UNL     1       0.164  -4.776  -1.394  0.00  0.00    +0.062 A 
ATOM     21  C   UNL     1       1.238  -4.213  -2.074  0.00  0.00    +0.054 A 
ATOM     22  C   UNL     1       1.711  -2.963  -1.708  0.00  0.00    +0.038 A 
ATOM     23 CL   UNL     1      -0.431  -6.339  -1.859  0.00  0.00    -0.082 Cl
BRANCH  17  26
ATOM     24  C   UNL     1       1.538   1.031   1.171  0.00  0.00    +0.128 C 
ATOM     25  N   UNL     1       1.039  -0.288   0.774  0.00  0.00    -0.314 N 
ATOM     26  C   UNL     1       1.617  -0.948  -0.249  0.00  0.00    +0.244 C 
ATOM     27  O   UNL     1       2.553  -0.448  -0.843  0.00  0.00    -0.270 OA
ATOM     28  H   UNL     1       0.292  -0.687   1.248  0.00  0.00    +0.149 HD
ENDBRANCH  17  26
ENDBRANCH   1  21
TORSDOF 3
