REMARK  Name = ZINC33780517
REMARK  10 active torsions:
REMARK  status: ('A' for Active; 'I' for Inactive)
REMARK    1  A    between atoms: C_1  and  C_2
REMARK    2  A    between atoms: C_2  and  C_3
REMARK    3  A    between atoms: C_2  and  C_4
REMARK    4  A    between atoms: C_2  and  C_5
REMARK    5  A    between atoms: N_10  and  C_13
REMARK    6  A    between atoms: C_16  and  N_19
REMARK    7  A    between atoms: C_20  and  C_22
REMARK    8  A    between atoms: C_22  and  S_23
REMARK    9  A    between atoms: S_23  and  C_24
REMARK   10  A    between atoms: C_27  and  C_29
REMARK                            x       y       z     vdW  Elec       q    Type
REMARK                         _______ _______ _______ _____ _____    ______ ____
ROOT
ATOM      1  N   UNL     1      -0.116  -9.515  -3.784  0.00  0.00    -0.285 N 
ATOM      2  C   UNL     1      -1.193 -10.285  -3.533  0.00  0.00    +0.228 C 
ATOM      3  O   UNL     1      -2.220  -9.779  -3.131  0.00  0.00    -0.275 OA
ATOM      4  H   UNL     1       0.679  -9.907  -4.178  0.00  0.00    +0.155 HD
ENDROOT
BRANCH   1   8
ATOM      5  C   UNL     1      -0.199  -5.448  -2.863  0.00  0.00    +0.030 A 
ATOM      6  C   UNL     1      -0.865  -6.357  -2.052  0.00  0.00    +0.025 A 
ATOM      7  C   UNL     1      -0.838  -7.704  -2.357  0.00  0.00    +0.025 A 
ATOM      8  C   UNL     1      -0.144  -8.148  -3.474  0.00  0.00    +0.034 A 
ATOM      9  C   UNL     1       0.523  -7.239  -4.285  0.00  0.00    +0.025 A 
ATOM     10  C   UNL     1       0.491  -5.892  -3.984  0.00  0.00    +0.025 A 
BRANCH   5  16
ATOM     11  C   UNL     1       0.746  -0.479  -1.149  0.00  0.00    +0.221 C 
ATOM     12  O   UNL     1       1.316   0.317  -1.865  0.00  0.00    -0.275 OA
ATOM     13  N   UNL     1       0.773  -1.793  -1.447  0.00  0.00    -0.298 N 
ATOM     14  C   UNL     1       0.179  -2.779  -0.533  0.00  0.00    +0.126 C 
ATOM     15  C   UNL     1      -0.849  -3.611  -1.310  0.00  0.00    +0.124 C 
ATOM     16  N   UNL     1      -0.226  -4.084  -2.554  0.00  0.00    -0.327 N 
ATOM     17  C   UNL     1       0.367  -3.098  -3.468  0.00  0.00    +0.124 C 
ATOM     18  C   UNL     1       1.390  -2.265  -2.694  0.00  0.00    +0.126 C 
BRANCH  11  20
ATOM     19  C   UNL     1       0.084   1.528   0.148  0.00  0.00    +0.020 C 
ATOM     20  C   UNL     1       0.008   0.002   0.073  0.00  0.00    +0.039 C 
ATOM     21  C   UNL     1       0.647  -0.602   1.326  0.00  0.00    +0.020 C 
ATOM     22  C   UNL     1      -1.457  -0.432  -0.012  0.00  0.00    +0.020 C 
ENDBRANCH  11  20
ENDBRANCH   5  16
ENDBRANCH   1   8
BRANCH   2  23
ATOM     23  C   UNL     1      -1.122 -11.774  -3.752  0.00  0.00    +0.175 C 
BRANCH  23  24
ATOM     24  S   UNL     1      -2.719 -12.524  -3.329  0.00  0.00    -0.056 S 
BRANCH  24  25
ATOM     25  C   UNL     1      -2.477 -14.243  -3.634  0.00  0.00    +0.278 A 
ATOM     26  N   UNL     1      -1.372 -14.808  -4.062  0.00  0.00    -0.101 NA
ATOM     27  N   UNL     1      -1.554 -16.077  -4.171  0.00  0.00    -0.106 NA
ATOM     28  C   UNL     1      -2.781 -16.373  -3.817  0.00  0.00    +0.249 A 
ATOM     29  O   UNL     1      -3.389 -15.218  -3.464  0.00  0.00    -0.411 OA
BRANCH  28  30
ATOM     30  C   UNL     1      -3.386 -17.720  -3.800  0.00  0.00    +0.039 A 
ATOM     31  C   UNL     1      -4.724 -17.880  -3.399  0.00  0.00    +0.014 A 
ATOM     32  C   UNL     1      -5.302 -19.108  -3.375  0.00  0.00    +0.009 A 
ATOM     33  C   UNL     1      -4.561 -20.242  -3.756  0.00  0.00    -0.018 A 
ATOM     34  C   UNL     1      -5.138 -21.523  -3.740  0.00  0.00    +0.008 A 
ATOM     35  C   UNL     1      -4.396 -22.601  -4.114  0.00  0.00    +0.001 A 
ATOM     36  C   UNL     1      -3.069 -22.456  -4.513  0.00  0.00    +0.001 A 
ATOM     37  C   UNL     1      -2.476 -21.232  -4.542  0.00  0.00    +0.008 A 
ATOM     38  C   UNL     1      -3.211 -20.094  -4.163  0.00  0.00    -0.017 A 
ATOM     39  C   UNL     1      -2.632 -18.816  -4.186  0.00  0.00    +0.021 A 
ENDBRANCH  28  30
ENDBRANCH  24  25
ENDBRANCH  23  24
ENDBRANCH   2  23
TORSDOF 7
