REMARK  Name = ZINC39753498
REMARK  11 active torsions:
REMARK  status: ('A' for Active; 'I' for Inactive)
REMARK    1  A    between atoms: C_1  and  O_2
REMARK    2  A    between atoms: O_2  and  C_3
REMARK    3  A    between atoms: C_6  and  N_11
REMARK    4  A    between atoms: C_7  and  O_9
REMARK    5  A    between atoms: O_9  and  C_10
REMARK    6  A    between atoms: N_11  and  S_12
REMARK    7  A    between atoms: S_12  and  C_15
REMARK    8  A    between atoms: C_18  and  N_21
REMARK    9  A    between atoms: C_22  and  C_24
REMARK   10  A    between atoms: N_27  and  C_30
REMARK   11  A    between atoms: C_30  and  C_31
REMARK                            x       y       z     vdW  Elec       q    Type
REMARK                         _______ _______ _______ _____ _____    ______ ____
ROOT
ATOM      1  C   UNL     1       4.883  -1.777  -3.756  0.00  0.00    +0.109 A 
ATOM      2  C   UNL     1       5.351  -2.959  -3.212  0.00  0.00    +0.030 A 
ATOM      3  C   UNL     1       6.296  -2.931  -2.205  0.00  0.00    +0.025 A 
ATOM      4  C   UNL     1       6.777  -1.714  -1.740  0.00  0.00    +0.034 A 
ATOM      5  C   UNL     1       6.305  -0.528  -2.289  0.00  0.00    +0.025 A 
ATOM      6  C   UNL     1       5.364  -0.564  -3.299  0.00  0.00    +0.030 A 
ENDROOT
BRANCH   4   7
ATOM      7  N   UNL     1       7.733  -1.681  -0.719  0.00  0.00    -0.285 N 
ATOM      8  C   UNL     1       8.682  -2.636  -0.654  0.00  0.00    +0.220 C 
ATOM      9  O   UNL     1       8.656  -3.571  -1.427  0.00  0.00    -0.275 OA
ATOM     10  H   UNL     1       7.714  -0.972  -0.058  0.00  0.00    +0.155 HD
BRANCH   8  11
ATOM     11  C   UNL     1       9.776  -2.543   0.378  0.00  0.00    +0.072 C 
ATOM     12  C   UNL     1      10.575  -1.254   0.163  0.00  0.00    -0.006 C 
ATOM     13  C   UNL     1      11.731  -1.205   1.164  0.00  0.00    -0.078 C 
ATOM     14  N   UNL     1      12.608  -2.365   0.961  0.00  0.00    +0.382 N 
ATOM     15  C   UNL     1      11.867  -3.602   1.236  0.00  0.00    -0.078 C 
ATOM     16  C   UNL     1      10.716  -3.744   0.238  0.00  0.00    -0.006 C 
ATOM     17  H   UNL     1      12.936  -2.375   0.007  0.00  0.00    -0.081 HD
BRANCH  14  18
ATOM     18  C   UNL     1      13.758  -2.272   1.871  0.00  0.00    -0.043 C 
BRANCH  18  19
ATOM     19  C   UNL     1      14.720  -3.395   1.580  0.00  0.00    -0.064 A 
ATOM     20  C   UNL     1      14.587  -4.606   2.234  0.00  0.00    +0.004 A 
ATOM     21  C   UNL     1      15.468  -5.636   1.968  0.00  0.00    +0.038 A 
ATOM     22  C   UNL     1      16.485  -5.456   1.045  0.00  0.00    +0.123 A 
ATOM     23  C   UNL     1      16.617  -4.244   0.390  0.00  0.00    +0.038 A 
ATOM     24  C   UNL     1      15.731  -3.216   0.654  0.00  0.00    +0.004 A 
ATOM     25  F   UNL     1      17.347  -6.463   0.785  0.00  0.00    -0.205 F 
ENDBRANCH  18  19
ENDBRANCH  14  18
ENDBRANCH   8  11
ENDBRANCH   4   7
BRANCH   1  26
ATOM     26  S   UNL     1       3.678  -1.818  -5.041  0.00  0.00    +0.072 S 
ATOM     27  O   UNL     1       3.007  -0.566  -5.008  0.00  0.00    -0.150 OA
ATOM     28  O   UNL     1       2.990  -3.055  -4.913  0.00  0.00    -0.150 OA
BRANCH  26  29
ATOM     29  N   UNL     1       4.497  -1.878  -6.479  0.00  0.00    -0.213 N 
ATOM     30  H   UNL     1       4.378  -1.173  -7.135  0.00  0.00    +0.174 HD
BRANCH  29  34
ATOM     31  C   UNL     1       7.072  -5.063  -7.283  0.00  0.00    +0.124 A 
ATOM     32  C   UNL     1       5.906  -5.277  -6.564  0.00  0.00    +0.048 A 
ATOM     33  C   UNL     1       5.053  -4.222  -6.297  0.00  0.00    +0.032 A 
ATOM     34  C   UNL     1       5.363  -2.948  -6.749  0.00  0.00    +0.090 A 
ATOM     35  C   UNL     1       6.534  -2.732  -7.472  0.00  0.00    +0.146 A 
ATOM     36  C   UNL     1       7.388  -3.790  -7.733  0.00  0.00    +0.093 A 
BRANCH  31  38
ATOM     37  C   UNL     1       7.521  -7.387  -7.052  0.00  0.00    +0.277 C 
ATOM     38  O   UNL     1       7.909  -6.103  -7.544  0.00  0.00    -0.495 OA
ENDBRANCH  31  38
BRANCH  35  39
ATOM     39  O   UNL     1       6.839  -1.484  -7.917  0.00  0.00    -0.493 OA
ATOM     40  C   UNL     1       8.056  -1.337  -8.651  0.00  0.00    +0.277 C 
ENDBRANCH  35  39
ENDBRANCH  29  34
ENDBRANCH  26  29
ENDBRANCH   1  26
TORSDOF 9
