REMARK  Name = ZINC03023312
REMARK  7 active torsions:
REMARK  status: ('A' for Active; 'I' for Inactive)
REMARK    1  A    between atoms: C_1  and  C_2
REMARK    2  A    between atoms: C_7  and  N_12
REMARK    3  A    between atoms: C_9  and  C_11
REMARK    4  A    between atoms: N_12  and  S_13
REMARK    5  A    between atoms: S_13  and  C_16
REMARK    6  A    between atoms: C_20  and  C_22
REMARK    7  A    between atoms: N_24  and  C_25
REMARK                            x       y       z     vdW  Elec       q    Type
REMARK                         _______ _______ _______ _____ _____    ______ ____
ROOT
ATOM      1  C   UNL     1       5.952   6.098   0.293  0.00  0.00    +0.106 A 
ATOM      2  C   UNL     1       7.159   5.426   0.382  0.00  0.00    +0.031 A 
ATOM      3  C   UNL     1       7.191   4.044   0.375  0.00  0.00    +0.041 A 
ATOM      4  C   UNL     1       6.015   3.323   0.279  0.00  0.00    +0.136 A 
ATOM      5  C   UNL     1       4.793   3.997   0.189  0.00  0.00    +0.074 A 
ATOM      6  C   UNL     1       4.772   5.393   0.192  0.00  0.00    +0.044 A 
ATOM      7  F   UNL     1       6.046   1.972   0.273  0.00  0.00    -0.205 F 
ENDROOT
BRANCH   5   8
ATOM      8  C   UNL     1       3.532   3.235   0.086  0.00  0.00    +0.251 C 
ATOM      9  O   UNL     1       3.554   2.020   0.080  0.00  0.00    -0.270 OA
ATOM     10  N   UNL     1       2.356   3.888   0.000  0.00  0.00    -0.280 N 
ATOM     11  H   UNL     1       2.342   4.856  -0.061  0.00  0.00    +0.155 HD
BRANCH  10  12
ATOM     12  C   UNL     1       1.156   3.170  -0.002  0.00  0.00    +0.048 A 
ATOM     13  C   UNL     1       1.091   1.924  -0.614  0.00  0.00    +0.024 A 
ATOM     14  C   UNL     1      -0.096   1.218  -0.615  0.00  0.00    +0.002 A 
ATOM     15  C   UNL     1      -1.221   1.751  -0.013  0.00  0.00    +0.001 A 
ATOM     16  C   UNL     1      -1.159   2.988   0.602  0.00  0.00    +0.017 A 
ATOM     17  C   UNL     1       0.025   3.700   0.607  0.00  0.00    +0.039 A 
ATOM     18 BR   UNL     1       0.107   5.395   1.441  0.00  0.00    -0.048 Br
ENDBRANCH  10  12
ENDBRANCH   5   8
BRANCH   1  19
ATOM     19  S   UNL     1       5.925   7.859   0.301  0.00  0.00    +0.059 S 
ATOM     20  O   UNL     1       4.635   8.244   0.756  0.00  0.00    -0.153 OA
ATOM     21  O   UNL     1       7.118   8.281   0.949  0.00  0.00    -0.153 OA
BRANCH  19  22
ATOM     22  N   UNL     1       6.040   8.359  -1.273  0.00  0.00    -0.187 NA
ATOM     23  H   UNL     1       6.819   8.855  -1.569  0.00  0.00    +0.148 HD
BRANCH  22  29
ATOM     24  C   UNL     1       3.530  10.045  -5.185  0.00  0.00    +0.008 C 
ATOM     25  C   UNL     1       3.685   8.888  -4.196  0.00  0.00    -0.010 C 
ATOM     26  C   UNL     1       4.028   7.607  -4.960  0.00  0.00    +0.003 C 
ATOM     27  C   UNL     1       4.184   6.450  -3.971  0.00  0.00    +0.002 C 
ATOM     28  C   UNL     1       5.307   6.771  -2.983  0.00  0.00    +0.020 C 
ATOM     29  C   UNL     1       4.964   8.052  -2.219  0.00  0.00    +0.080 C 
ATOM     30  C   UNL     1       4.809   9.209  -3.208  0.00  0.00    +0.007 C 
ATOM     31  C   UNL     1       4.465  10.489  -2.444  0.00  0.00    +0.009 C 
ENDBRANCH  22  29
ENDBRANCH  19  22
ENDBRANCH   1  19
TORSDOF 5
