REMARK  Name = ZINC09171853
REMARK  9 active torsions:
REMARK  status: ('A' for Active; 'I' for Inactive)
REMARK    1  A    between atoms: C_1  and  C_2
REMARK    2  A    between atoms: C_4  and  C_34
REMARK    3  A    between atoms: C_5  and  O_9
REMARK    4  A    between atoms: C_6  and  C_8
REMARK    5  A    between atoms: O_9  and  C_10
REMARK    6  A    between atoms: C_10  and  C_11
REMARK    7  A    between atoms: N_13  and  C_14
REMARK    8  A    between atoms: C_15  and  C_23
REMARK    9  A    between atoms: N_25  and  C_26
REMARK                            x       y       z     vdW  Elec       q    Type
REMARK                         _______ _______ _______ _____ _____    ______ ____
ROOT
ATOM      1  C   UNL     1      -4.415   0.809   2.088  0.00  0.00    +0.084 A 
ATOM      2  C   UNL     1      -3.094   1.163   2.321  0.00  0.00    +0.069 A 
ATOM      3  C   UNL     1      -2.199   1.208   1.178  0.00  0.00    -0.023 A 
ATOM      4  C   UNL     1      -2.764   0.894  -0.008  0.00  0.00    -0.004 A 
ATOM      5  S   UNL     1      -4.456   0.542   0.376  0.00  0.00    -0.077 S 
ATOM      6  C   UNL     1      -2.094   0.856  -1.347  0.00  0.00    +0.043 C 
ATOM      7  C   UNL     1      -0.750   1.591  -1.235  0.00  0.00    +0.005 C 
ATOM      8  C   UNL     1      -0.013   1.086   0.008  0.00  0.00    +0.005 C 
ATOM      9  C   UNL     1      -0.725   1.577   1.269  0.00  0.00    +0.037 C 
ENDROOT
BRANCH   1  12
ATOM     10  C   UNL     1      -6.682   0.336   2.586  0.00  0.00    +0.255 C 
ATOM     11  O   UNL     1      -6.883   0.111   1.411  0.00  0.00    -0.272 OA
ATOM     12  N   UNL     1      -5.452   0.696   3.002  0.00  0.00    -0.277 N 
ATOM     13  H   UNL     1      -5.291   0.876   3.942  0.00  0.00    +0.155 HD
BRANCH  10  14
ATOM     14  C   UNL     1      -7.808   0.214   3.580  0.00  0.00    +0.324 C 
BRANCH  14  15
ATOM     15  O   UNL     1      -9.003  -0.177   2.900  0.00  0.00    -0.482 OA
BRANCH  15  20
ATOM     16  C   UNL     1     -13.635  -0.824   6.039  0.00  0.00    +0.044 C 
ATOM     17  C   UNL     1     -12.396  -0.650   5.199  0.00  0.00    -0.050 A 
ATOM     18  C   UNL     1     -12.106   0.581   4.641  0.00  0.00    +0.010 A 
ATOM     19  C   UNL     1     -10.971   0.742   3.871  0.00  0.00    -0.008 A 
ATOM     20  C   UNL     1     -10.120  -0.333   3.657  0.00  0.00    +0.127 A 
ATOM     21  C   UNL     1     -10.416  -1.569   4.214  0.00  0.00    -0.008 A 
ATOM     22  C   UNL     1     -11.549  -1.724   4.988  0.00  0.00    +0.010 A 
ATOM     23  C   UNL     1      -9.498  -2.741   3.979  0.00  0.00    +0.047 C 
ATOM     24  C   UNL     1     -10.656   2.085   3.263  0.00  0.00    +0.047 C 
ENDBRANCH  15  20
ENDBRANCH  14  15
ENDBRANCH  10  14
ENDBRANCH   1  12
BRANCH   2  25
ATOM     25  C   UNL     1      -2.619   1.481   3.671  0.00  0.00    +0.247 C 
ATOM     26  O   UNL     1      -2.667   2.626   4.080  0.00  0.00    -0.270 OA
ATOM     27  N   UNL     1      -2.129   0.504   4.461  0.00  0.00    -0.307 N 
ATOM     28  H   UNL     1      -2.091  -0.409   4.136  0.00  0.00    +0.149 HD
BRANCH  27  29
ATOM     29  C   UNL     1      -1.655   0.822   5.810  0.00  0.00    +0.096 C 
ATOM     30  C   UNL     1      -2.846   0.824   6.783  0.00  0.00    +0.046 C 
ATOM     31  C   UNL     1      -2.286   0.849   8.234  0.00  0.00    +0.168 C 
ATOM     32  S   UNL     1      -0.873  -0.322   8.070  0.00  0.00    -0.029 S 
ATOM     33  O   UNL     1      -1.313  -1.629   8.413  0.00  0.00    -0.174 OA
ATOM     34  O   UNL     1       0.262   0.229   8.725  0.00  0.00    -0.174 OA
ATOM     35  C   UNL     1      -0.615  -0.236   6.251  0.00  0.00    +0.188 C 
ENDBRANCH  27  29
ENDBRANCH   2  25
TORSDOF 6
