REMARK  Name = ZINC38849815
REMARK  8 active torsions:
REMARK  status: ('A' for Active; 'I' for Inactive)
REMARK    1  A    between atoms: C_1  and  C_2
REMARK    2  A    between atoms: C_5  and  S_8
REMARK    3  A    between atoms: S_8  and  N_11
REMARK    4  A    between atoms: N_14  and  C_17
REMARK    5  A    between atoms: C_17  and  C_18
REMARK    6  A    between atoms: C_21  and  C_24
REMARK    7  A    between atoms: N_26  and  C_27
REMARK    8  A    between atoms: C_32  and  C_33
REMARK                            x       y       z     vdW  Elec       q    Type
REMARK                         _______ _______ _______ _____ _____    ______ ____
ROOT
ATOM      1  C   UNL     1       5.680  -7.924   1.032  0.00  0.00    -0.033 A 
ATOM      2  C   UNL     1       6.932  -7.377   0.812  0.00  0.00    +0.005 A 
ATOM      3  C   UNL     1       7.857  -7.331   1.834  0.00  0.00    +0.013 A 
ATOM      4  C   UNL     1       7.529  -7.838   3.092  0.00  0.00    +0.037 A 
ATOM      5  C   UNL     1       6.264  -8.389   3.308  0.00  0.00    +0.013 A 
ATOM      6  C   UNL     1       5.346  -8.423   2.278  0.00  0.00    +0.005 A 
ENDROOT
BRANCH   4   7
ATOM      7  C   UNL     1       8.515  -7.793   4.192  0.00  0.00    +0.248 C 
ATOM      8  O   UNL     1       9.616  -7.313   4.002  0.00  0.00    -0.270 OA
ATOM      9  N   UNL     1       8.195  -8.283   5.406  0.00  0.00    -0.281 N 
ATOM     10  H   UNL     1       7.292  -8.592   5.581  0.00  0.00    +0.155 HD
BRANCH   9  11
ATOM     11  C   UNL     1       9.163  -8.346   6.412  0.00  0.00    +0.045 A 
ATOM     12  C   UNL     1      10.510  -8.412   6.079  0.00  0.00    +0.024 A 
ATOM     13  C   UNL     1      11.464  -8.474   7.076  0.00  0.00    +0.002 A 
ATOM     14  C   UNL     1      11.080  -8.472   8.404  0.00  0.00    +0.001 A 
ATOM     15  C   UNL     1       9.740  -8.408   8.739  0.00  0.00    +0.014 A 
ATOM     16  C   UNL     1       8.781  -8.338   7.747  0.00  0.00    +0.076 A 
BRANCH  16  17
ATOM     17  C   UNL     1       7.321  -8.261   8.114  0.00  0.00    +0.419 C 
ATOM     18  F   UNL     1       7.189  -8.267   9.506  0.00  0.00    -0.166 F 
ATOM     19  F   UNL     1       6.773  -7.082   7.598  0.00  0.00    -0.166 F 
ATOM     20  F   UNL     1       6.647  -9.363   7.576  0.00  0.00    -0.166 F 
ENDBRANCH  16  17
ENDBRANCH   9  11
ENDBRANCH   4   7
BRANCH   1  21
ATOM     21  C   UNL     1       4.675  -7.971  -0.089  0.00  0.00    +0.119 C 
BRANCH  21  25
ATOM     22  N   UNL     1       1.648  -5.064  -0.069  0.00  0.00    -0.174 NA
ATOM     23  C   UNL     1       2.372  -5.265  -1.333  0.00  0.00    +0.125 C 
ATOM     24  C   UNL     1       3.049  -6.639  -1.292  0.00  0.00    +0.102 C 
ATOM     25  N   UNL     1       3.874  -6.739  -0.081  0.00  0.00    -0.296 NA
ATOM     26  C   UNL     1       3.052  -6.654   1.133  0.00  0.00    +0.102 C 
ATOM     27  C   UNL     1       2.376  -5.274   1.192  0.00  0.00    +0.125 C 
BRANCH  22  28
ATOM     28  S   UNL     1       0.057  -4.604  -0.065  0.00  0.00    +0.061 S 
ATOM     29  O   UNL     1      -0.483  -5.023   1.181  0.00  0.00    -0.153 OA
ATOM     30  O   UNL     1      -0.489  -5.019  -1.309  0.00  0.00    -0.153 OA
BRANCH  28  35
ATOM     31  C   UNL     1      -0.063   1.428  -0.056  0.00  0.00    +0.044 C 
ATOM     32  C   UNL     1      -0.033  -0.079  -0.058  0.00  0.00    -0.050 A 
ATOM     33  C   UNL     1      -0.021  -0.768  -1.256  0.00  0.00    +0.005 A 
ATOM     34  C   UNL     1       0.007  -2.150  -1.258  0.00  0.00    +0.029 A 
ATOM     35  C   UNL     1       0.023  -2.843  -0.062  0.00  0.00    +0.105 A 
ATOM     36  C   UNL     1       0.012  -2.153   1.136  0.00  0.00    +0.029 A 
ATOM     37  C   UNL     1      -0.011  -0.771   1.138  0.00  0.00    +0.005 A 
ENDBRANCH  28  35
ENDBRANCH  22  28
ENDBRANCH  21  25
ENDBRANCH   1  21
TORSDOF 7
