REMARK  Name = ZINC01040684
REMARK  6 active torsions:
REMARK  status: ('A' for Active; 'I' for Inactive)
REMARK    1  A    between atoms: C_6  and  C_7
REMARK    2  A    between atoms: N_9  and  S_10
REMARK    3  A    between atoms: S_10  and  C_13
REMARK    4  A    between atoms: C_16  and  O_20
REMARK    5  A    between atoms: O_20  and  C_21
REMARK    6  A    between atoms: C_24  and  N_27
REMARK                            x       y       z     vdW  Elec       q    Type
REMARK                         _______ _______ _______ _____ _____    ______ ____
ROOT
ATOM      1  C   UNL     1       1.063   6.101   0.923  0.00  0.00    +0.112 A 
ATOM      2  C   UNL     1      -0.300   6.126   1.150  0.00  0.00    +0.052 A 
ATOM      3  C   UNL     1      -0.806   6.779   2.259  0.00  0.00    +0.086 A 
ATOM      4  C   UNL     1       0.057   7.418   3.140  0.00  0.00    +0.165 A 
ATOM      5  C   UNL     1       1.425   7.394   2.906  0.00  0.00    +0.086 A 
ATOM      6  C   UNL     1       1.925   6.736   1.798  0.00  0.00    +0.052 A 
ATOM      7 CL   UNL     1       2.507   8.191   4.005  0.00  0.00    -0.080 Cl
ATOM      8 CL   UNL     1      -2.518   6.805   2.547  0.00  0.00    -0.080 Cl
ENDROOT
BRANCH   1   9
ATOM      9  S   UNL     1       1.704   5.263  -0.488  0.00  0.00    +0.074 S 
ATOM     10  O   UNL     1       3.021   5.755  -0.690  0.00  0.00    -0.150 OA
ATOM     11  O   UNL     1       0.702   5.335  -1.493  0.00  0.00    -0.150 OA
BRANCH   9  14
ATOM     12  C   UNL     1       2.694   3.289   0.942  0.00  0.00    +0.116 C 
ATOM     13  H   UNL     1       3.547   5.111   1.257  0.00  0.00    +0.157 HD
ATOM     14  N   UNL     1       1.853   3.664  -0.083  0.00  0.00    -0.201 N 
ATOM     15  H   UNL     1       1.349   2.992  -0.567  0.00  0.00    +0.175 HD
ATOM     16  N   UNL     1       3.479   4.145   1.579  0.00  0.00    -0.385 N 
ATOM     17  H   UNL     1       4.019   3.836   2.395  0.00  0.00    +0.157 HD
BRANCH  12  23
ATOM     18  C   UNL     1       3.591   1.494   2.420  0.00  0.00    +0.013 A 
ATOM     19  C   UNL     1       3.631   0.176   2.826  0.00  0.00    +0.020 A 
ATOM     20  C   UNL     1       2.828  -0.766   2.205  0.00  0.00    +0.041 A 
ATOM     21  C   UNL     1       1.982  -0.392   1.175  0.00  0.00    +0.020 A 
ATOM     22  C   UNL     1       1.935   0.923   0.761  0.00  0.00    +0.013 A 
ATOM     23  C   UNL     1       2.741   1.876   1.382  0.00  0.00    +0.014 A 
ATOM     24 CL   UNL     1       2.883  -2.423   2.721  0.00  0.00    -0.084 Cl
ENDBRANCH  12  23
ENDBRANCH   9  14
ENDBRANCH   1   9
BRANCH   4  25
ATOM     25  O   UNL     1      -0.438   8.064   4.229  0.00  0.00    -0.453 OA
BRANCH  25  26
ATOM     26  C   UNL     1      -0.762   9.377   4.098  0.00  0.00    +0.129 A 
ATOM     27  C   UNL     1      -0.580  10.021   2.882  0.00  0.00    +0.048 A 
ATOM     28  C   UNL     1      -0.915  11.354   2.751  0.00  0.00    +0.036 A 
ATOM     29  C   UNL     1      -1.422  12.051   3.833  0.00  0.00    +0.126 A 
ATOM     30  C   UNL     1      -1.599  11.414   5.047  0.00  0.00    +0.036 A 
ATOM     31  C   UNL     1      -1.270  10.079   5.182  0.00  0.00    +0.048 A 
BRANCH  29  32
ATOM     32  N   UNL     1      -1.774  13.481   3.691  0.00  0.00    +0.056 N 
ATOM     33  O   UNL     1      -2.220  14.096   4.643  0.00  0.00    -0.126 OA
ATOM     34  O   UNL     1      -1.619  14.044   2.622  0.00  0.00    -0.126 OA
ENDBRANCH  29  32
ENDBRANCH  25  26
ENDBRANCH   4  25
TORSDOF 6
