REMARK  Name = ZINC01933709
REMARK  7 active torsions:
REMARK  status: ('A' for Active; 'I' for Inactive)
REMARK    1  A    between atoms: C_1  and  C_2
REMARK    2  A    between atoms: C_9  and  N_27
REMARK    3  A    between atoms: C_10  and  C_11
REMARK    4  A    between atoms: N_13  and  C_14
REMARK    5  A    between atoms: C_17  and  N_20
REMARK    6  A    between atoms: C_23  and  C_26
REMARK    7  A    between atoms: C_28  and  C_30
REMARK                            x       y       z     vdW  Elec       q    Type
REMARK                         _______ _______ _______ _____ _____    ______ ____
ROOT
ATOM      1  C   UNL     1      -0.037   1.547   0.106  0.00  0.00    +0.008 C 
ATOM      2  C   UNL     1      -0.014   0.017   0.071  0.00  0.00    -0.009 C 
ATOM      3  C   UNL     1      -1.449  -0.517   0.091  0.00  0.00    +0.008 C 
ATOM      4  C   UNL     1      -1.448  -2.022  -0.191  0.00  0.00    +0.037 C 
ATOM      5  C   UNL     1      -0.470  -2.696   0.760  0.00  0.00    -0.023 A 
ATOM      6  C   UNL     1       0.483  -1.988   1.404  0.00  0.00    -0.004 A 
ATOM      7  S   UNL     1       1.353  -3.185   2.374  0.00  0.00    -0.077 S 
ATOM      8  C   UNL     1       0.500  -4.569   1.952  0.00  0.00    +0.085 A 
ATOM      9  C   UNL     1      -0.461  -4.116   1.061  0.00  0.00    +0.069 A 
ATOM     10  C   UNL     1       0.735  -0.515   1.301  0.00  0.00    +0.046 C 
ENDROOT
BRANCH   9  11
ATOM     11  C   UNL     1      -1.427  -5.033   0.450  0.00  0.00    +0.251 C 
ATOM     12  O   UNL     1      -1.164  -5.580  -0.606  0.00  0.00    -0.270 OA
ATOM     13  N   UNL     1      -2.607  -5.271   1.056  0.00  0.00    -0.281 N 
ATOM     14  H   UNL     1      -2.791  -4.887   1.927  0.00  0.00    +0.155 HD
BRANCH  13  15
ATOM     15  C   UNL     1      -3.569  -6.073   0.427  0.00  0.00    +0.034 A 
ATOM     16  C   UNL     1      -4.919  -5.782   0.572  0.00  0.00    +0.025 A 
ATOM     17  C   UNL     1      -5.866  -6.573  -0.047  0.00  0.00    +0.025 A 
ATOM     18  C   UNL     1      -5.469  -7.660  -0.816  0.00  0.00    +0.030 A 
ATOM     19  C   UNL     1      -4.119  -7.950  -0.961  0.00  0.00    +0.025 A 
ATOM     20  C   UNL     1      -3.171  -7.156  -0.346  0.00  0.00    +0.025 A 
BRANCH  18  21
ATOM     21  N   UNL     1      -6.429  -8.461  -1.443  0.00  0.00    -0.330 N 
ATOM     22  C   UNL     1      -6.034  -9.686  -2.152  0.00  0.00    +0.105 C 
ATOM     23  C   UNL     1      -6.856 -10.858  -1.607  0.00  0.00    +0.022 C 
ATOM     24  C   UNL     1      -8.346 -10.523  -1.712  0.00  0.00    -0.011 C 
ATOM     25  C   UNL     1      -8.653  -9.284  -0.869  0.00  0.00    +0.022 C 
ATOM     26  C   UNL     1      -7.852  -8.098  -1.400  0.00  0.00    +0.105 C 
ATOM     27  C   UNL     1      -9.171 -11.706  -1.201  0.00  0.00    +0.007 C 
ENDBRANCH  18  21
ENDBRANCH  13  15
ENDBRANCH   9  11
BRANCH   8  28
ATOM     28  N   UNL     1       0.709  -5.866   2.393  0.00  0.00    -0.275 N 
ATOM     29  C   UNL     1       1.700  -6.128   3.269  0.00  0.00    +0.249 C 
ATOM     30  O   UNL     1       2.409  -5.227   3.672  0.00  0.00    -0.270 OA
ATOM     31  H   UNL     1       0.143  -6.585   2.072  0.00  0.00    +0.156 HD
BRANCH  29  32
ATOM     32  C   UNL     1       1.923  -7.511   3.740  0.00  0.00    +0.037 A 
ATOM     33  C   UNL     1       1.113  -8.549   3.275  0.00  0.00    +0.013 A 
ATOM     34  C   UNL     1       1.327  -9.838   3.718  0.00  0.00    +0.001 A 
ATOM     35  C   UNL     1       2.341 -10.102   4.622  0.00  0.00    +0.000 A 
ATOM     36  C   UNL     1       3.147  -9.078   5.087  0.00  0.00    +0.001 A 
ATOM     37  C   UNL     1       2.948  -7.786   4.647  0.00  0.00    +0.013 A 
ENDBRANCH  29  32
ENDBRANCH   8  28
TORSDOF 5
