REMARK  Name = ZINC35692832
REMARK  11 active torsions:
REMARK  status: ('A' for Active; 'I' for Inactive)
REMARK    1  A    between atoms: C_1  and  C_2
REMARK    2  A    between atoms: C_2  and  O_3
REMARK    3  A    between atoms: O_3  and  C_4
REMARK    4  A    between atoms: C_4  and  C_6
REMARK    5  A    between atoms: C_7  and  C_34
REMARK    6  A    between atoms: C_11  and  C_13
REMARK    7  A    between atoms: C_17  and  C_19
REMARK    8  A    between atoms: C_20  and  C_23
REMARK    9  A    between atoms: C_24  and  N_26
REMARK   10  A    between atoms: N_26  and  C_27
REMARK   11  A    between atoms: C_27  and  C_28
REMARK                            x       y       z     vdW  Elec       q    Type
REMARK                         _______ _______ _______ _____ _____    ______ ____
ROOT
ATOM      1  C   UNL     1       1.094  -2.419  -2.625  0.00  0.00    +0.082 C 
ATOM      2  C   UNL     1       1.617  -3.697  -2.610  0.00  0.00    +0.053 C 
ATOM      3  N   UNL     1       2.477  -4.080  -3.540  0.00  0.00    -0.230 NA
ATOM      4  C   UNL     1       2.903  -3.321  -4.529  0.00  0.00    +0.166 C 
ATOM      5  N   UNL     1       2.506  -2.027  -4.722  0.00  0.00    -0.267 N 
ATOM      6  C   UNL     1       1.532  -1.490  -3.736  0.00  0.00    +0.150 C 
ATOM      7  C   UNL     1       3.043  -1.363  -5.807  0.00  0.00    +0.048 C 
ATOM      8  C   UNL     1       3.914  -2.039  -6.588  0.00  0.00    +0.072 C 
ATOM      9  S   UNL     1       3.975  -3.627  -5.783  0.00  0.00    -0.060 S 
ATOM     10  C   UNL     1       1.207  -4.662  -1.527  0.00  0.00    +0.066 C 
ENDROOT
BRANCH   6  11
ATOM     11  C   UNL     1       0.301  -1.050  -4.485  0.00  0.00    -0.022 A 
ATOM     12  C   UNL     1      -0.342  -1.930  -5.335  0.00  0.00    +0.006 A 
ATOM     13  C   UNL     1      -1.471  -1.526  -6.023  0.00  0.00    +0.001 A 
ATOM     14  C   UNL     1      -1.957  -0.242  -5.860  0.00  0.00    +0.003 A 
ATOM     15  C   UNL     1      -1.315   0.637  -5.009  0.00  0.00    -0.050 A 
ATOM     16  C   UNL     1      -0.188   0.232  -4.318  0.00  0.00    +0.009 A 
ATOM     17  C   UNL     1      -1.845   2.037  -4.832  0.00  0.00    +0.044 C 
ENDBRANCH   6  11
BRANCH   7  18
ATOM     18  C   UNL     1       2.680   0.031  -6.101  0.00  0.00    +0.091 C 
ATOM     19  C   UNL     1       3.088   0.605  -7.250  0.00  0.00    +0.239 C 
ATOM     20  O   UNL     1       3.705  -0.141  -8.198  0.00  0.00    -0.271 OA
BRANCH  19  21
ATOM     21  N   UNL     1       2.876   1.957  -7.461  0.00  0.00    -0.309 N 
ATOM     22  H   UNL     1       2.501   2.505  -6.755  0.00  0.00    +0.149 HD
BRANCH  21  23
ATOM     23  C   UNL     1       3.218   2.558  -8.752  0.00  0.00    +0.136 C 
BRANCH  23  24
ATOM     24  C   UNL     1       3.005   4.072  -8.682  0.00  0.00    +0.135 C 
ATOM     25  C   UNL     1       3.246   4.700 -10.072  0.00  0.00    +0.035 C 
ATOM     26  C   UNL     1       3.982   6.019  -9.713  0.00  0.00    +0.031 C 
ATOM     27  C   UNL     1       4.800   5.574  -8.475  0.00  0.00    +0.160 C 
ATOM     28  O   UNL     1       3.946   4.654  -7.773  0.00  0.00    -0.375 OA
ENDBRANCH  23  24
ENDBRANCH  21  23
ENDBRANCH  19  21
ENDBRANCH   7  18
BRANCH   1  29
ATOM     29  C   UNL     1       0.183  -1.999  -1.648  0.00  0.00    +0.339 C 
ATOM     30  O   UNL     1      -0.258  -2.799  -0.842  0.00  0.00    -0.245 OA
BRANCH  29  31
ATOM     31  O   UNL     1      -0.208  -0.706  -1.600  0.00  0.00    -0.462 OA
BRANCH  31  33
ATOM     32  C   UNL     1      -1.461   1.145  -0.680  0.00  0.00    +0.048 C 
ATOM     33  C   UNL     1      -1.139  -0.348  -0.577  0.00  0.00    +0.229 C 
ENDBRANCH  31  33
ENDBRANCH  29  31
ENDBRANCH   1  29
TORSDOF 8
