REMARK  Name = ZINC13438079
REMARK  7 active torsions:
REMARK  status: ('A' for Active; 'I' for Inactive)
REMARK    1  A    between atoms: C_1  and  C_2
REMARK    2  A    between atoms: C_2  and  C_4
REMARK    3  A    between atoms: C_2  and  S_16
REMARK    4  A    between atoms: N_6  and  C_7
REMARK    5  A    between atoms: C_12  and  C_13
REMARK    6  A    between atoms: S_16  and  C_17
REMARK    7  A    between atoms: C_20  and  N_23
REMARK                            x       y       z     vdW  Elec       q    Type
REMARK                         _______ _______ _______ _____ _____    ______ ____
ROOT
ATOM      1  C   UNL     1      -0.055   1.172   0.014  0.00  0.00    +0.230 C 
ATOM      2  O   UNL     1      -0.055  -0.041   0.009  0.00  0.00    -0.274 OA
ATOM      3  N   UNL     1      -1.222   1.845   0.033  0.00  0.00    -0.284 N 
ATOM      4  H   UNL     1      -1.223   2.812   0.118  0.00  0.00    +0.155 HD
ENDROOT
BRANCH   3   5
ATOM      5  C   UNL     1      -2.427   1.154  -0.070  0.00  0.00    +0.048 A 
ATOM      6  C   UNL     1      -2.469  -0.085  -0.695  0.00  0.00    +0.025 A 
ATOM      7  C   UNL     1      -3.663  -0.769  -0.796  0.00  0.00    +0.016 A 
ATOM      8  C   UNL     1      -4.828  -0.227  -0.275  0.00  0.00    +0.014 A 
ATOM      9  C   UNL     1      -4.806   1.002   0.348  0.00  0.00    +0.031 A 
ATOM     10  C   UNL     1      -3.603   1.704   0.463  0.00  0.00    +0.085 A 
ATOM     11  I   UNL     1      -6.631  -1.281  -0.437  0.00  0.00    -0.044 I 
BRANCH  10  12
ATOM     12  C   UNL     1      -3.570   3.015   1.134  0.00  0.00    +0.388 C 
ATOM     13  O   UNL     1      -2.543   3.665   1.149  0.00  0.00    -0.241 OA
ATOM     14  O   UNL     1      -4.679   3.494   1.731  0.00  0.00    -0.241 OA
ENDBRANCH  10  12
ENDBRANCH   3   5
BRANCH   1  16
ATOM     15  C   UNL     1       1.540   2.403  -1.432  0.00  0.00    +0.029 C 
ATOM     16  C   UNL     1       1.250   1.926  -0.007  0.00  0.00    +0.134 C 
BRANCH  16  17
ATOM     17  S   UNL     1       2.588   0.834   0.548  0.00  0.00    -0.113 S 
BRANCH  17  18
ATOM     18  C   UNL     1       3.965   1.915   0.746  0.00  0.00    +0.009 A 
ATOM     19  C   UNL     1       4.888   2.064  -0.282  0.00  0.00    +0.017 A 
ATOM     20  C   UNL     1       5.962   2.917  -0.126  0.00  0.00    +0.034 A 
ATOM     21  C   UNL     1       6.128   3.613   1.058  0.00  0.00    +0.126 A 
ATOM     22  C   UNL     1       5.215   3.463   2.086  0.00  0.00    +0.034 A 
ATOM     23  C   UNL     1       4.135   2.617   1.934  0.00  0.00    +0.017 A 
BRANCH  21  24
ATOM     24  N   UNL     1       7.284   4.522   1.224  0.00  0.00    +0.056 N 
ATOM     25  O   UNL     1       7.431   5.136   2.266  0.00  0.00    -0.126 OA
ATOM     26  O   UNL     1       8.089   4.655   0.320  0.00  0.00    -0.126 OA
ENDBRANCH  21  24
ENDBRANCH  17  18
ENDBRANCH  16  17
ENDBRANCH   1  16
TORSDOF 6
