REMARK  Name = ZINC36053266
REMARK  12 active torsions:
REMARK  status: ('A' for Active; 'I' for Inactive)
REMARK    1  A    between atoms: C_1  and  C_2
REMARK    2  A    between atoms: C_5  and  C_35
REMARK    3  A    between atoms: C_6  and  C_8
REMARK    4  A    between atoms: C_10  and  C_29
REMARK    5  A    between atoms: C_11  and  C_28
REMARK    6  A    between atoms: C_15  and  C_18
REMARK    7  A    between atoms: C_19  and  N_21
REMARK    8  A    between atoms: N_21  and  C_22
REMARK    9  A    between atoms: C_22  and  C_23
REMARK   10  A    between atoms: C_29  and  O_31
REMARK   11  A    between atoms: O_31  and  C_32
REMARK   12  A    between atoms: C_32  and  C_33
REMARK                            x       y       z     vdW  Elec       q    Type
REMARK                         _______ _______ _______ _____ _____    ______ ____
ROOT
ATOM      1  C   UNL     1       0.990  -2.226   2.551  0.00  0.00    +0.150 C 
ATOM      2  C   UNL     1       1.683  -2.218   3.896  0.00  0.00    +0.083 C 
ATOM      3  C   UNL     1       0.976  -1.738   4.982  0.00  0.00    +0.053 C 
ATOM      4  N   UNL     1      -0.266  -1.304   4.835  0.00  0.00    -0.230 NA
ATOM      5  C   UNL     1      -0.925  -1.284   3.695  0.00  0.00    +0.166 C 
ATOM      6  N   UNL     1      -0.405  -1.713   2.506  0.00  0.00    -0.267 N 
ATOM      7  C   UNL     1      -1.224  -1.628   1.398  0.00  0.00    +0.048 C 
ATOM      8  C   UNL     1      -2.467  -1.128   1.574  0.00  0.00    +0.072 C 
ATOM      9  S   UNL     1      -2.480  -0.778   3.319  0.00  0.00    -0.060 S 
ATOM     10  C   UNL     1       1.622  -1.710   6.343  0.00  0.00    +0.066 C 
ENDROOT
BRANCH   1  16
ATOM     11  C   UNL     1       4.356  -1.953  -1.142  0.00  0.00    +0.044 C 
ATOM     12  C   UNL     1       3.429  -1.273  -0.168  0.00  0.00    -0.050 A 
ATOM     13  C   UNL     1       3.338   0.107  -0.149  0.00  0.00    +0.003 A 
ATOM     14  C   UNL     1       2.487   0.731   0.744  0.00  0.00    +0.004 A 
ATOM     15  C   UNL     1       1.727  -0.024   1.618  0.00  0.00    -0.045 A 
ATOM     16  C   UNL     1       1.818  -1.403   1.598  0.00  0.00    -0.019 A 
ATOM     17  C   UNL     1       2.666  -2.028   0.702  0.00  0.00    +0.009 A 
ATOM     18  C   UNL     1       0.801   0.656   2.592  0.00  0.00    +0.044 C 
ENDBRANCH   1  16
BRANCH   7  19
ATOM     19  C   UNL     1      -0.759  -2.064   0.073  0.00  0.00    +0.091 C 
ATOM     20  C   UNL     1      -1.507  -1.813  -1.019  0.00  0.00    +0.239 C 
ATOM     21  O   UNL     1      -2.609  -1.032  -0.920  0.00  0.00    -0.271 OA
BRANCH  20  22
ATOM     22  N   UNL     1      -1.149  -2.355  -2.242  0.00  0.00    -0.305 N 
ATOM     23  H   UNL     1      -0.360  -2.914  -2.312  0.00  0.00    +0.149 HD
BRANCH  22  24
ATOM     24  C   UNL     1      -1.962  -2.083  -3.429  0.00  0.00    +0.179 C 
BRANCH  24  25
ATOM     25  C   UNL     1      -1.362  -2.784  -4.621  0.00  0.00    +0.122 A 
ATOM     26  C   UNL     1      -1.658  -4.029  -5.033  0.00  0.00    +0.046 A 
ATOM     27  C   UNL     1      -0.869  -4.281  -6.178  0.00  0.00    +0.041 A 
ATOM     28  C   UNL     1      -0.137  -3.174  -6.398  0.00  0.00    +0.195 A 
ATOM     29  O   UNL     1      -0.444  -2.268  -5.455  0.00  0.00    -0.466 OA
ENDBRANCH  24  25
ENDBRANCH  22  24
ENDBRANCH  20  22
ENDBRANCH   7  19
BRANCH   2  30
ATOM     30  C   UNL     1       2.996  -2.682   4.036  0.00  0.00    +0.339 C 
ATOM     31  O   UNL     1       3.575  -2.562   5.102  0.00  0.00    -0.245 OA
BRANCH  30  32
ATOM     32  O   UNL     1       3.623  -3.262   2.989  0.00  0.00    -0.457 OA
BRANCH  32  33
ATOM     33  C   UNL     1       4.919  -3.814   3.232  0.00  0.00    +0.259 C 
BRANCH  33  34
ATOM     34  C   UNL     1       5.503  -4.315   1.937  0.00  0.00    +0.006 C 
ATOM     35  C   UNL     1       6.750  -4.047   1.634  0.00  0.00    +0.007 C 
ENDBRANCH  33  34
ENDBRANCH  32  33
ENDBRANCH  30  32
ENDBRANCH   2  30
TORSDOF 9
