REMARK  Name = ZINC39662568
REMARK  6 active torsions:
REMARK  status: ('A' for Active; 'I' for Inactive)
REMARK    1  A    between atoms: C_4  and  C_7
REMARK    2  A    between atoms: C_7  and  C_9
REMARK    3  A    between atoms: C_7  and  N_11
REMARK    4  A    between atoms: C_12  and  C_14
REMARK    5  A    between atoms: C_25  and  C_27
REMARK    6  A    between atoms: C_30  and  C_32
REMARK                            x       y       z     vdW  Elec       q    Type
REMARK                         _______ _______ _______ _____ _____    ______ ____
ROOT
ATOM      1  C   UNL     1       4.619  -3.561  -2.422  0.00  0.00    +0.100 C 
ATOM      2  C   UNL     1       3.669  -3.251  -3.601  0.00  0.00    +0.121 C 
ATOM      3  N   UNL     1       4.563  -2.800  -4.694  0.00  0.00    -0.294 N 
ATOM      4  C   UNL     1       5.745  -3.689  -4.592  0.00  0.00    +0.115 C 
ATOM      5  C   UNL     1       5.979  -3.851  -3.077  0.00  0.00    -0.004 C 
ATOM      6  C   UNL     1       7.022  -2.847  -2.595  0.00  0.00    -0.010 C 
ATOM      7  C   UNL     1       8.379  -3.190  -3.216  0.00  0.00    -0.082 C 
ATOM      8  N   UNL     1       8.766  -4.552  -2.829  0.00  0.00    +0.379 N 
ATOM      9  C   UNL     1       7.807  -5.520  -3.376  0.00  0.00    -0.082 C 
ATOM     10  C   UNL     1       6.426  -5.275  -2.761  0.00  0.00    -0.010 C 
ATOM     11  C   UNL     1       4.349  -1.807  -5.579  0.00  0.00    +0.282 C 
ATOM     12  O   UNL     1       5.186  -1.556  -6.426  0.00  0.00    -0.267 OA
ATOM     13  H   UNL     1       9.687  -4.754  -3.188  0.00  0.00    -0.086 HD
ATOM     14  H   UNL     1       8.778  -4.624  -1.823  0.00  0.00    -0.086 HD
ENDROOT
BRANCH  11  15
ATOM     15  C   UNL     1       3.108  -1.030  -5.523  0.00  0.00    +0.190 A 
ATOM     16  C   UNL     1       2.761   0.003  -6.366  0.00  0.00    +0.055 A 
ATOM     17  C   UNL     1       1.503   0.454  -5.955  0.00  0.00    +0.050 A 
ATOM     18  C   UNL     1       1.131  -0.311  -4.887  0.00  0.00    +0.136 A 
ATOM     19  O   UNL     1       2.102  -1.206  -4.639  0.00  0.00    -0.450 OA
BRANCH  18  20
ATOM     20  C   UNL     1      -0.132  -0.181  -4.134  0.00  0.00    +0.017 A 
ATOM     21  C   UNL     1      -1.070   0.786  -4.500  0.00  0.00    +0.014 A 
ATOM     22  C   UNL     1      -2.248   0.903  -3.793  0.00  0.00    +0.039 A 
ATOM     23  C   UNL     1      -2.502   0.062  -2.721  0.00  0.00    +0.123 A 
ATOM     24  C   UNL     1      -1.574  -0.899  -2.352  0.00  0.00    +0.039 A 
ATOM     25  C   UNL     1      -0.396  -1.029  -3.056  0.00  0.00    +0.014 A 
ATOM     26  F   UNL     1      -3.658   0.181  -2.031  0.00  0.00    -0.205 F 
ENDBRANCH  18  20
ENDBRANCH  11  15
BRANCH   1  28
ATOM     27  N   UNL     1       4.984  -2.550  -0.194  0.00  0.00    -0.296 N 
ATOM     28  C   UNL     1       4.721  -2.370  -1.504  0.00  0.00    +0.219 C 
ATOM     29  O   UNL     1       4.567  -1.251  -1.944  0.00  0.00    -0.275 OA
ATOM     30  H   UNL     1       5.107  -3.446   0.157  0.00  0.00    +0.150 HD
BRANCH  27  31
ATOM     31  C   UNL     1       5.084  -1.393   0.698  0.00  0.00    +0.207 C 
BRANCH  31  35
ATOM     32  C   UNL     1       4.190  -2.599   4.697  0.00  0.00    +0.000 A 
ATOM     33  C   UNL     1       3.725  -1.388   4.221  0.00  0.00    +0.000 A 
ATOM     34  C   UNL     1       4.014  -0.997   2.926  0.00  0.00    +0.006 A 
ATOM     35  C   UNL     1       4.769  -1.818   2.109  0.00  0.00    -0.013 A 
ATOM     36  C   UNL     1       5.235  -3.029   2.586  0.00  0.00    +0.006 A 
ATOM     37  C   UNL     1       4.944  -3.420   3.880  0.00  0.00    +0.000 A 
ENDBRANCH  31  35
BRANCH  31  38
ATOM     38  C   UNL     1       6.450  -0.847   0.643  0.00  0.00    +0.090 C 
ATOM     39  N   UNL     1       7.504  -0.426   0.601  0.00  0.00    -0.194 NA
ENDBRANCH  31  38
ENDBRANCH  27  31
ENDBRANCH   1  28
TORSDOF 6
