REMARK  Name = ZINC36064999
REMARK  11 active torsions:
REMARK  status: ('A' for Active; 'I' for Inactive)
REMARK    1  A    between atoms: C_1  and  C_2
REMARK    2  A    between atoms: C_3  and  C_29
REMARK    3  A    between atoms: C_4  and  C_22
REMARK    4  A    between atoms: C_7  and  C_12
REMARK    5  A    between atoms: C_13  and  N_15
REMARK    6  A    between atoms: N_15  and  C_16
REMARK    7  A    between atoms: C_16  and  C_17
REMARK    8  A    between atoms: C_29  and  O_31
REMARK    9  A    between atoms: O_31  and  C_32
REMARK   10  A    between atoms: C_32  and  C_33
REMARK   11  A    between atoms: C_32  and  C_34
REMARK                            x       y       z     vdW  Elec       q    Type
REMARK                         _______ _______ _______ _____ _____    ______ ____
ROOT
ATOM      1  C   UNL     1       0.527   1.320   0.150  0.00  0.00    +0.066 C 
ATOM      2  C   UNL     1       0.328  -0.170   0.045  0.00  0.00    +0.053 C 
ATOM      3  C   UNL     1      -0.935  -0.679  -0.186  0.00  0.00    +0.083 C 
ATOM      4  C   UNL     1      -1.083  -2.181  -0.284  0.00  0.00    +0.152 C 
ATOM      5  N   UNL     1       0.151  -2.994  -0.123  0.00  0.00    -0.267 N 
ATOM      6  C   UNL     1       0.252  -4.370  -0.175  0.00  0.00    +0.048 C 
ATOM      7  C   UNL     1       1.477  -4.916  -0.002  0.00  0.00    +0.072 C 
ATOM      8  S   UNL     1       2.493  -3.472   0.235  0.00  0.00    -0.060 S 
ATOM      9  C   UNL     1       1.304  -2.295   0.100  0.00  0.00    +0.166 C 
ATOM     10  N   UNL     1       1.366  -0.982   0.169  0.00  0.00    -0.230 NA
ENDROOT
BRANCH   4  11
ATOM     11  C   UNL     1      -1.677  -2.502  -1.632  0.00  0.00    +0.013 A 
ATOM     12  C   UNL     1      -2.998  -2.893  -1.730  0.00  0.00    +0.008 A 
ATOM     13  C   UNL     1      -3.543  -3.187  -2.966  0.00  0.00    +0.001 A 
ATOM     14  C   UNL     1      -2.766  -3.090  -4.105  0.00  0.00    +0.003 A 
ATOM     15  C   UNL     1      -1.444  -2.699  -4.010  0.00  0.00    +0.039 A 
ATOM     16  C   UNL     1      -0.899  -2.399  -2.773  0.00  0.00    +0.129 A 
ATOM     17  F   UNL     1       0.392  -2.011  -2.679  0.00  0.00    -0.205 F 
ENDBRANCH   4  11
BRANCH   6  18
ATOM     18  C   UNL     1      -0.930  -5.212  -0.409  0.00  0.00    +0.091 C 
ATOM     19  C   UNL     1      -0.819  -6.554  -0.371  0.00  0.00    +0.239 C 
ATOM     20  O   UNL     1       0.397  -7.129  -0.205  0.00  0.00    -0.271 OA
BRANCH  19  21
ATOM     21  N   UNL     1      -1.948  -7.346  -0.503  0.00  0.00    -0.305 N 
ATOM     22  H   UNL     1      -2.818  -6.934  -0.621  0.00  0.00    +0.149 HD
BRANCH  21  23
ATOM     23  C   UNL     1      -1.827  -8.805  -0.462  0.00  0.00    +0.179 C 
BRANCH  23  24
ATOM     24  C   UNL     1      -3.190  -9.426  -0.626  0.00  0.00    +0.122 A 
ATOM     25  C   UNL     1      -3.761  -9.774  -1.794  0.00  0.00    +0.046 A 
ATOM     26  C   UNL     1      -5.030 -10.315  -1.485  0.00  0.00    +0.041 A 
ATOM     27  C   UNL     1      -5.159 -10.266  -0.147  0.00  0.00    +0.195 A 
ATOM     28  O   UNL     1      -4.039  -9.732   0.368  0.00  0.00    -0.466 OA
ENDBRANCH  23  24
ENDBRANCH  21  23
ENDBRANCH  19  21
ENDBRANCH   6  18
BRANCH   3  29
ATOM     29  C   UNL     1      -2.042   0.167  -0.324  0.00  0.00    +0.339 C 
ATOM     30  O   UNL     1      -1.886   1.376  -0.344  0.00  0.00    -0.245 OA
BRANCH  29  31
ATOM     31  O   UNL     1      -3.283  -0.356  -0.436  0.00  0.00    -0.459 OA
BRANCH  31  32
ATOM     32  C   UNL     1      -4.366   0.566  -0.574  0.00  0.00    +0.171 C 
ATOM     33  C   UNL     1      -4.605   0.853  -2.058  0.00  0.00    +0.052 C 
ATOM     34  C   UNL     1      -5.631  -0.037   0.039  0.00  0.00    +0.052 C 
ENDBRANCH  31  32
ENDBRANCH  29  31
ENDBRANCH   3  29
TORSDOF 8
