REMARK  Name = ZINC36014002
REMARK  13 active torsions:
REMARK  status: ('A' for Active; 'I' for Inactive)
REMARK    1  A    between atoms: C_1  and  C_2
REMARK    2  A    between atoms: C_2  and  N_3
REMARK    3  A    between atoms: C_4  and  C_23
REMARK    4  A    between atoms: C_5  and  C_18
REMARK    5  A    between atoms: C_6  and  C_11
REMARK    6  A    between atoms: C_18  and  O_20
REMARK    7  A    between atoms: O_20  and  C_21
REMARK    8  A    between atoms: C_21  and  C_22
REMARK    9  A    between atoms: C_23  and  N_24
REMARK   10  A    between atoms: N_33  and  C_34
REMARK   11  A    between atoms: C_34  and  C_35
REMARK   12  A    between atoms: C_34  and  C_36
REMARK   13  A    between atoms: C_34  and  C_37
REMARK                            x       y       z     vdW  Elec       q    Type
REMARK                         _______ _______ _______ _____ _____    ______ ____
ROOT
ATOM      1  N   UNL     1       1.496  -0.199  -2.388  0.00  0.00    -0.261 N 
ATOM      2  C   UNL     1       0.469  -0.929  -2.911  0.00  0.00    +0.010 C 
ATOM      3  C   UNL     1       0.704  -2.049  -3.629  0.00  0.00    +0.076 C 
ATOM      4  C   UNL     1       2.147  -2.465  -3.834  0.00  0.00    +0.143 C 
ATOM      5  N   UNL     1       3.180  -1.608  -3.229  0.00  0.00    -0.288 N 
ATOM      6  C   UNL     1       2.788  -0.517  -2.542  0.00  0.00    +0.307 C 
ATOM      7  O   UNL     1       3.634   0.199  -2.042  0.00  0.00    -0.252 OA
ATOM      8  H   UNL     1       4.122  -1.822  -3.325  0.00  0.00    +0.151 HD
ENDROOT
BRANCH   4   9
ATOM      9  C   UNL     1       2.313  -3.855  -3.278  0.00  0.00    -0.022 A 
ATOM     10  C   UNL     1       2.463  -4.041  -1.916  0.00  0.00    +0.007 A 
ATOM     11  C   UNL     1       2.615  -5.317  -1.405  0.00  0.00    +0.020 A 
ATOM     12  C   UNL     1       2.617  -6.407  -2.257  0.00  0.00    +0.041 A 
ATOM     13  C   UNL     1       2.467  -6.220  -3.620  0.00  0.00    +0.020 A 
ATOM     14  C   UNL     1       2.309  -4.945  -4.129  0.00  0.00    +0.007 A 
ATOM     15 CL   UNL     1       2.809  -8.009  -1.616  0.00  0.00    -0.084 Cl
ENDBRANCH   4   9
BRANCH   1  17
ATOM     16  C   UNL     1       1.082   2.205  -2.564  0.00  0.00    +0.025 C 
ATOM     17  C   UNL     1       1.168   1.005  -1.619  0.00  0.00    +0.111 C 
ENDBRANCH   1  17
BRANCH   3  18
ATOM     18  C   UNL     1      -0.360  -2.807  -4.171  0.00  0.00    +0.339 C 
ATOM     19  O   UNL     1      -1.508  -2.428  -4.037  0.00  0.00    -0.245 OA
BRANCH  18  20
ATOM     20  O   UNL     1      -0.101  -3.952  -4.838  0.00  0.00    -0.462 OA
BRANCH  20  21
ATOM     21  C   UNL     1      -1.224  -4.667  -5.359  0.00  0.00    +0.229 C 
ATOM     22  C   UNL     1      -0.737  -5.927  -6.077  0.00  0.00    +0.048 C 
ENDBRANCH  20  21
ENDBRANCH  18  20
ENDBRANCH   3  18
BRANCH   2  23
ATOM     23  C   UNL     1      -0.952  -0.480  -2.684  0.00  0.00    -0.026 C 
BRANCH  23  24
ATOM     24  N   UNL     1      -1.549  -1.273  -1.601  0.00  0.00    +0.384 N 
ATOM     25  C   UNL     1      -2.986  -1.012  -1.577  0.00  0.00    -0.077 C 
ATOM     26  C   UNL     1      -3.707  -2.234  -1.052  0.00  0.00    +0.000 C 
ATOM     27  C   UNL     1      -3.912  -2.095   0.467  0.00  0.00    +0.107 C 
ATOM     28  N   UNL     1      -2.723  -1.503   1.112  0.00  0.00    -0.287 N 
ATOM     29  C   UNL     1      -1.373  -1.879   0.744  0.00  0.00    +0.091 C 
ATOM     30  C   UNL     1      -0.869  -0.970  -0.400  0.00  0.00    -0.059 C 
ATOM     31  C   UNL     1      -2.899  -0.579   2.077  0.00  0.00    +0.303 C 
ATOM     32  O   UNL     1      -4.020  -0.311   2.465  0.00  0.00    -0.253 OA
ATOM     33  N   UNL     1      -1.833   0.048   2.613  0.00  0.00    -0.294 N 
ATOM     34  H   UNL     1      -0.946  -0.112   2.255  0.00  0.00    +0.151 HD
ATOM     35  H   UNL     1      -1.408  -2.250  -1.808  0.00  0.00    -0.081 HD
BRANCH  33  36
ATOM     36  C   UNL     1      -2.014   0.971   3.736  0.00  0.00    +0.028 C 
ATOM     37  C   UNL     1      -2.635   0.221   4.917  0.00  0.00    +0.031 C 
ATOM     38  C   UNL     1      -0.657   1.542   4.151  0.00  0.00    +0.031 C 
ATOM     39  C   UNL     1      -2.941   2.113   3.314  0.00  0.00    +0.031 C 
ENDBRANCH  33  36
ENDBRANCH  23  24
ENDBRANCH   2  23
TORSDOF 8
