REMARK  Name = ZINC09159357
REMARK  5 active torsions:
REMARK  status: ('A' for Active; 'I' for Inactive)
REMARK    1  A    between atoms: C_4  and  C_7
REMARK    2  A    between atoms: C_14  and  N_36
REMARK    3  A    between atoms: C_15  and  C_34
REMARK    4  A    between atoms: N_23  and  C_26
REMARK    5  A    between atoms: C_26  and  C_27
REMARK                            x       y       z     vdW  Elec       q    Type
REMARK                         _______ _______ _______ _____ _____    ______ ____
ROOT
ATOM      1  C   UNL     1       3.182  -1.756  -1.443  0.00  0.00    +0.101 A 
ATOM      2  C   UNL     1       3.209  -3.105  -1.081  0.00  0.00    +0.066 A 
ATOM      3  C   UNL     1       4.069  -3.752  -1.923  0.00  0.00    +0.224 A 
ATOM      4  N   UNL     1       4.565  -2.838  -2.783  0.00  0.00    -0.246 N 
ATOM      5  H   UNL     1       5.201  -3.011  -3.494  0.00  0.00    +0.192 HD
ATOM      6  N   UNL     1       3.994  -1.595  -2.470  0.00  0.00    -0.171 NA
ATOM      7  O   UNL     1       4.317  -5.082  -1.833  0.00  0.00    -0.423 OA
ATOM      8  C   UNL     1       3.499  -5.827  -1.062  0.00  0.00    +0.201 C 
ATOM      9  C   UNL     1       2.615  -5.303  -0.181  0.00  0.00    +0.110 C 
ATOM     10  C   UNL     1       2.469  -3.819   0.015  0.00  0.00    +0.145 C 
ATOM     11  C   UNL     1       2.958  -3.399   1.364  0.00  0.00    -0.001 A 
ATOM     12  C   UNL     1       4.198  -3.493   1.959  0.00  0.00    +0.007 A 
ATOM     13  C   UNL     1       4.318  -2.993   3.251  0.00  0.00    +0.000 A 
ATOM     14  C   UNL     1       3.243  -2.428   3.906  0.00  0.00    +0.002 A 
ATOM     15  C   UNL     1       1.992  -2.331   3.315  0.00  0.00    +0.024 A 
ATOM     16  C   UNL     1       1.858  -2.829   2.018  0.00  0.00    +0.041 A 
ATOM     17  N   UNL     1       0.742  -2.863   1.201  0.00  0.00    -0.265 N 
ATOM     18  C   UNL     1       1.008  -3.429   0.004  0.00  0.00    +0.241 C 
ATOM     19  O   UNL     1       0.224  -3.593  -0.906  0.00  0.00    -0.274 OA
ENDROOT
BRANCH   1  23
ATOM     20  C   UNL     1       0.875   1.290   0.424  0.00  0.00    +0.000 A 
ATOM     21  C   UNL     1       0.905   1.197  -0.956  0.00  0.00    +0.001 A 
ATOM     22  C   UNL     1       1.653   0.210  -1.567  0.00  0.00    +0.010 A 
ATOM     23  C   UNL     1       2.377  -0.693  -0.791  0.00  0.00    +0.003 A 
ATOM     24  C   UNL     1       2.342  -0.595   0.598  0.00  0.00    +0.010 A 
ATOM     25  C   UNL     1       1.592   0.396   1.199  0.00  0.00    +0.001 A 
ENDBRANCH   1  23
BRANCH   8  26
ATOM     26  N   UNL     1       3.568  -7.193  -1.177  0.00  0.00    -0.328 N 
ATOM     27  H   UNL     1       4.192  -7.597  -1.800  0.00  0.00    +0.145 HD
ATOM     28  H   UNL     1       2.992  -7.755  -0.635  0.00  0.00    +0.145 HD
ENDBRANCH   8  26
BRANCH   9  29
ATOM     29  C   UNL     1       1.793  -6.189   0.587  0.00  0.00    +0.102 C 
ATOM     30  N   UNL     1       1.141  -6.892   1.196  0.00  0.00    -0.191 NA
ENDBRANCH   9  29
BRANCH  17  31
ATOM     31  C   UNL     1      -0.573  -2.346   1.588  0.00  0.00    +0.148 C 
BRANCH  31  32
ATOM     32  C   UNL     1      -0.944  -1.194   0.691  0.00  0.00    -0.030 A 
ATOM     33  C   UNL     1      -1.173   0.057   1.232  0.00  0.00    +0.006 A 
ATOM     34  C   UNL     1      -1.513   1.115   0.410  0.00  0.00    +0.020 A 
ATOM     35  C   UNL     1      -1.624   0.920  -0.956  0.00  0.00    +0.041 A 
ATOM     36  C   UNL     1      -1.395  -0.332  -1.497  0.00  0.00    +0.020 A 
ATOM     37  C   UNL     1      -1.049  -1.387  -0.674  0.00  0.00    +0.006 A 
ATOM     38 CL   UNL     1      -2.052   2.248  -1.990  0.00  0.00    -0.084 Cl
ENDBRANCH  31  32
ENDBRANCH  17  31
TORSDOF 5
