REMARK  Name = ZINC09791384
REMARK  10 active torsions:
REMARK  status: ('A' for Active; 'I' for Inactive)
REMARK    1  A    between atoms: C_1  and  C_2
REMARK    2  A    between atoms: C_2  and  C_4
REMARK    3  A    between atoms: C_2  and  N_14
REMARK    4  A    between atoms: C_7  and  S_10
REMARK    5  A    between atoms: S_10  and  N_13
REMARK    6  A    between atoms: N_17  and  C_18
REMARK    7  A    between atoms: C_18  and  C_20
REMARK    8  A    between atoms: C_18  and  C_30
REMARK    9  A    between atoms: C_30  and  C_31
REMARK   10  A    between atoms: C_30  and  C_32
REMARK                            x       y       z     vdW  Elec       q    Type
REMARK                         _______ _______ _______ _____ _____    ______ ____
ROOT
ATOM      1  N   UNL     1       0.711  -0.489   1.189  0.00  0.00    -0.293 N 
ATOM      2  C   UNL     1       0.051  -0.633   2.355  0.00  0.00    +0.301 C 
ATOM      3  O   UNL     1      -1.132  -0.361   2.423  0.00  0.00    -0.253 OA
ATOM      4  N   UNL     1       0.703  -1.080   3.447  0.00  0.00    -0.292 N 
ATOM      5  H   UNL     1       1.654  -0.707   1.135  0.00  0.00    +0.151 HD
ATOM      6  H   UNL     1       1.647  -1.298   3.394  0.00  0.00    +0.151 HD
ENDROOT
BRANCH   1   8
ATOM      7  C   UNL     1      -0.019   1.526   0.010  0.00  0.00    +0.033 C 
ATOM      8  C   UNL     1       0.002  -0.004   0.002  0.00  0.00    +0.102 C 
BRANCH   8   9
ATOM      9  C   UNL     1       0.707  -0.490  -1.238  0.00  0.00    -0.027 A 
ATOM     10  C   UNL     1       2.089  -0.511  -1.284  0.00  0.00    +0.007 A 
ATOM     11  C   UNL     1       2.736  -0.957  -2.421  0.00  0.00    +0.029 A 
ATOM     12  C   UNL     1       2.002  -1.382  -3.512  0.00  0.00    +0.105 A 
ATOM     13  C   UNL     1       0.620  -1.362  -3.466  0.00  0.00    +0.029 A 
ATOM     14  C   UNL     1      -0.027  -0.920  -2.327  0.00  0.00    +0.007 A 
BRANCH  12  15
ATOM     15  S   UNL     1       2.826  -1.949  -4.962  0.00  0.00    +0.056 S 
ATOM     16  O   UNL     1       1.916  -1.778  -6.040  0.00  0.00    -0.153 OA
ATOM     17  O   UNL     1       4.117  -1.356  -4.954  0.00  0.00    -0.153 OA
BRANCH  15  18
ATOM     18  N   UNL     1       3.054  -3.580  -4.790  0.00  0.00    -0.204 NA
ATOM     19  H   UNL     1       3.075  -4.153  -5.573  0.00  0.00    +0.144 HD
ATOM     20  H   UNL     1       3.167  -3.963  -3.906  0.00  0.00    +0.144 HD
ENDBRANCH  15  18
ENDBRANCH  12  15
ENDBRANCH   8   9
ENDBRANCH   1   8
BRANCH   4  21
ATOM     21  C   UNL     1      -0.014  -1.237   4.715  0.00  0.00    +0.107 C 
BRANCH  21  22
ATOM     22  C   UNL     1       0.962  -1.138   5.859  0.00  0.00    -0.023 A 
ATOM     23  C   UNL     1       2.210  -1.724   5.755  0.00  0.00    +0.009 A 
ATOM     24  C   UNL     1       3.107  -1.637   6.802  0.00  0.00    +0.050 A 
ATOM     25  C   UNL     1       2.758  -0.962   7.962  0.00  0.00    +0.162 A 
ATOM     26  C   UNL     1       1.504  -0.370   8.066  0.00  0.00    +0.162 A 
ATOM     27  C   UNL     1       0.610  -0.458   7.010  0.00  0.00    +0.055 A 
ATOM     28  O   UNL     1       1.144   0.305   9.192  0.00  0.00    -0.485 OA
ATOM     29  C   UNL     1       1.924   0.058  10.367  0.00  0.00    +0.270 C 
ATOM     30  C   UNL     1       3.408   0.114   9.980  0.00  0.00    +0.270 C 
ATOM     31  O   UNL     1       3.650  -0.888   8.987  0.00  0.00    -0.485 OA
ENDBRANCH  21  22
BRANCH  21  32
ATOM     32  C   UNL     1      -0.701  -2.603   4.747  0.00  0.00    +0.008 C 
ATOM     33  C   UNL     1      -1.450  -2.767   6.072  0.00  0.00    +0.009 C 
ATOM     34  C   UNL     1      -1.692  -2.703   3.586  0.00  0.00    +0.009 C 
ENDBRANCH  21  32
ENDBRANCH   4  21
TORSDOF 7
