REMARK  Name = ZINC32527474
REMARK  11 active torsions:
REMARK  status: ('A' for Active; 'I' for Inactive)
REMARK    1  A    between atoms: C_1  and  C_2
REMARK    2  A    between atoms: C_2  and  C_3
REMARK    3  A    between atoms: C_3  and  C_5
REMARK    4  A    between atoms: C_3  and  N_23
REMARK    5  A    between atoms: N_7  and  C_8
REMARK    6  A    between atoms: C_9  and  C_20
REMARK    7  A    between atoms: C_10  and  C_13
REMARK    8  A    between atoms: C_16  and  C_19
REMARK    9  A    between atoms: C_27  and  C_36
REMARK   10  A    between atoms: C_30  and  C_35
REMARK   11  A    between atoms: C_32  and  C_34
REMARK                            x       y       z     vdW  Elec       q    Type
REMARK                         _______ _______ _______ _____ _____    ______ ____
ROOT
ATOM      1  C   UNL     1      -2.653   2.179  -2.970  0.00  0.00    +0.241 C 
ATOM      2  O   UNL     1      -3.735   2.713  -2.850  0.00  0.00    -0.273 OA
ATOM      3  N   UNL     1      -2.195   1.357  -2.005  0.00  0.00    -0.278 N 
ATOM      4  H   UNL     1      -1.214   0.873  -2.115  0.00  0.00    +0.155 HD
ENDROOT
BRANCH   3   5
ATOM      5  C   UNL     1      -2.962   1.121  -0.875  0.00  0.00    +0.085 A 
ATOM      6  C   UNL     1      -2.663   0.314   0.213  0.00  0.00    +0.073 A 
ATOM      7  C   UNL     1      -3.652   0.251   1.272  0.00  0.00    +0.003 A 
ATOM      8  C   UNL     1      -4.782   0.984   1.096  0.00  0.00    +0.056 A 
ATOM      9  S   UNL     1      -4.523   1.760  -0.486  0.00  0.00    -0.081 S 
BRANCH   7  10
ATOM     10  C   UNL     1      -3.442  -0.573   2.486  0.00  0.00    -0.017 A 
ATOM     11  C   UNL     1      -3.061  -1.909   2.367  0.00  0.00    +0.009 A 
ATOM     12  C   UNL     1      -2.861  -2.670   3.501  0.00  0.00    +0.004 A 
ATOM     13  C   UNL     1      -3.049  -2.113   4.753  0.00  0.00    -0.050 A 
ATOM     14  C   UNL     1      -3.432  -0.789   4.877  0.00  0.00    +0.004 A 
ATOM     15  C   UNL     1      -3.629  -0.017   3.750  0.00  0.00    +0.009 A 
ATOM     16  C   UNL     1      -2.835  -2.951   5.987  0.00  0.00    +0.044 C 
ENDBRANCH   7  10
BRANCH   6  17
ATOM     17  C   UNL     1      -1.406  -0.434   0.292  0.00  0.00    +0.244 C 
ATOM     18  O   UNL     1      -1.342  -1.565  -0.152  0.00  0.00    -0.270 OA
ATOM     19  N   UNL     1      -0.319   0.133   0.851  0.00  0.00    -0.325 N 
ATOM     20  H   UNL     1       0.626  -0.428   0.911  0.00  0.00    +0.145 HD
ATOM     21  H   UNL     1      -0.375   1.157   1.249  0.00  0.00    +0.145 HD
ENDBRANCH   6  17
ENDBRANCH   3   5
BRANCH   1  22
ATOM     22  C   UNL     1      -1.819   2.436  -4.199  0.00  0.00    +0.176 C 
BRANCH  22  23
ATOM     23  N   UNL     1      -2.531   3.357  -5.089  0.00  0.00    -0.296 N 
ATOM     24  C   UNL     1      -1.933   4.496  -5.479  0.00  0.00    +0.253 A 
ATOM     25  O   UNL     1      -0.806   4.741  -5.085  0.00  0.00    -0.268 OA
ATOM     26  C   UNL     1      -2.577   5.414  -6.336  0.00  0.00    +0.074 A 
ATOM     27  C   UNL     1      -3.830   5.163  -6.788  0.00  0.00    -0.036 A 
ATOM     28  C   UNL     1      -4.491   3.925  -6.369  0.00  0.00    +0.002 A 
ATOM     29  C   UNL     1      -3.802   3.040  -5.518  0.00  0.00    +0.056 A 
ATOM     30  C   UNL     1      -4.423   1.865  -5.109  0.00  0.00    -0.026 A 
ATOM     31  C   UNL     1      -5.697   1.575  -5.549  0.00  0.00    +0.008 A 
ATOM     32  C   UNL     1      -6.370   2.448  -6.393  0.00  0.00    -0.050 A 
ATOM     33  C   UNL     1      -5.782   3.611  -6.802  0.00  0.00    +0.013 A 
ATOM     34  C   UNL     1      -7.762   2.110  -6.860  0.00  0.00    +0.044 C 
ATOM     35  C   UNL     1      -3.704   0.908  -4.192  0.00  0.00    +0.046 C 
ATOM     36  C   UNL     1      -4.529   6.136  -7.703  0.00  0.00    +0.044 C 
ENDBRANCH  22  23
BRANCH  22  38
ATOM     37  C   UNL     1       0.499   2.977  -4.959  0.00  0.00    +0.006 C 
ATOM     38  C   UNL     1      -0.482   3.056  -3.788  0.00  0.00    +0.031 C 
ENDBRANCH  22  38
ENDBRANCH   1  22
TORSDOF 6
