REMARK  Name = ZINC37359407
REMARK  4 active torsions:
REMARK  status: ('A' for Active; 'I' for Inactive)
REMARK    1  A    between atoms: C_5  and  C_7
REMARK    2  A    between atoms: C_9  and  N_35
REMARK    3  A    between atoms: N_10  and  C_28
REMARK    4  A    between atoms: C_19  and  N_22
REMARK                            x       y       z     vdW  Elec       q    Type
REMARK                         _______ _______ _______ _____ _____    ______ ____
ROOT
ATOM      1  C   UNL     1       1.212  -2.166  -0.278  0.00  0.00    +0.091 A 
ATOM      2  C   UNL     1       0.038  -2.912  -0.029  0.00  0.00    +0.086 A 
ATOM      3  C   UNL     1      -1.297  -2.614   0.212  0.00  0.00    +0.131 A 
ATOM      4  N   UNL     1      -1.950  -3.781   0.379  0.00  0.00    -0.216 N 
ATOM      5  N   UNL     1      -1.054  -4.849   0.251  0.00  0.00    -0.144 NA
ATOM      6  C   UNL     1       0.150  -4.381   0.006  0.00  0.00    +0.189 A 
ATOM      7  N   UNL     1       1.364  -4.925  -0.203  0.00  0.00    -0.193 NA
ATOM      8  C   UNL     1       2.409  -4.154  -0.429  0.00  0.00    +0.220 A 
ATOM      9  N   UNL     1       2.347  -2.827  -0.472  0.00  0.00    -0.213 NA
ATOM     10  N   UNL     1       3.635  -4.759  -0.637  0.00  0.00    -0.300 N 
ATOM     11  C   UNL     1       4.836  -3.950  -0.888  0.00  0.00    +0.106 C 
ATOM     12  C   UNL     1       5.923  -4.358   0.112  0.00  0.00    +0.004 C 
ATOM     13  C   UNL     1       6.152  -5.869   0.021  0.00  0.00    -0.066 C 
ATOM     14  C   UNL     1       4.861  -6.605   0.385  0.00  0.00    +0.004 C 
ATOM     15  C   UNL     1       3.763  -6.223  -0.606  0.00  0.00    +0.106 C 
ENDROOT
BRANCH   1  20
ATOM     16  C   UNL     1       0.681   1.417   0.718  0.00  0.00    +0.001 A 
ATOM     17  C   UNL     1       1.110   2.081  -0.418  0.00  0.00    +0.003 A 
ATOM     18  C   UNL     1       1.572   1.369  -1.510  0.00  0.00    +0.039 A 
ATOM     19  C   UNL     1       1.609  -0.013  -1.472  0.00  0.00    +0.133 A 
ATOM     20  C   UNL     1       1.177  -0.688  -0.327  0.00  0.00    +0.036 A 
ATOM     21  C   UNL     1       0.712   0.039   0.770  0.00  0.00    +0.013 A 
ATOM     22  F   UNL     1       2.060  -0.708  -2.538  0.00  0.00    -0.205 F 
ENDBRANCH   1  20
BRANCH  13  23
ATOM     23  N   UNL     1       7.217  -6.259   0.955  0.00  0.00    +0.382 N 
ATOM     24  C   UNL     1       8.453  -5.546   0.610  0.00  0.00    -0.078 C 
ATOM     25  C   UNL     1       9.544  -5.886   1.628  0.00  0.00    -0.019 C 
ATOM     26  C   UNL     1       9.800  -7.396   1.607  0.00  0.00    -0.004 C 
ATOM     27  C   UNL     1       8.488  -8.131   1.895  0.00  0.00    -0.019 C 
ATOM     28  C   UNL     1       7.436  -7.707   0.867  0.00  0.00    -0.078 C 
ATOM     29  H   UNL     1       6.944  -6.017   1.895  0.00  0.00    -0.081 HD
ENDBRANCH  13  23
BRANCH   4  30
ATOM     30  C   UNL     1      -3.319  -3.906   0.642  0.00  0.00    +0.070 A 
ATOM     31  C   UNL     1      -3.967  -2.960   1.426  0.00  0.00    +0.028 A 
ATOM     32  C   UNL     1      -5.317  -3.086   1.685  0.00  0.00    +0.005 A 
ATOM     33  C   UNL     1      -6.027  -4.152   1.164  0.00  0.00    +0.038 A 
ATOM     34  C   UNL     1      -5.385  -5.098   0.382  0.00  0.00    +0.125 A 
ATOM     35  C   UNL     1      -4.033  -4.974   0.115  0.00  0.00    +0.066 A 
ATOM     36  F   UNL     1      -6.081  -6.139  -0.125  0.00  0.00    -0.205 F 
ENDBRANCH   4  30
BRANCH   3  37
ATOM     37  N   UNL     1      -1.855  -1.350   0.270  0.00  0.00    -0.342 N 
ATOM     38  H   UNL     1      -1.296  -0.567   0.148  0.00  0.00    +0.144 HD
ATOM     39  H   UNL     1      -2.806  -1.247   0.433  0.00  0.00    +0.144 HD
ENDBRANCH   3  37
TORSDOF 4
