REMARK  Name = ZINC39945664
REMARK  8 active torsions:
REMARK  status: ('A' for Active; 'I' for Inactive)
REMARK    1  A    between atoms: C_4  and  C_7
REMARK    2  A    between atoms: C_7  and  C_9
REMARK    3  A    between atoms: C_7  and  S_20
REMARK    4  A    between atoms: C_9  and  C_11
REMARK    5  A    between atoms: S_20  and  C_21
REMARK    6  A    between atoms: C_24  and  C_27
REMARK    7  A    between atoms: N_25  and  N_26
REMARK    8  A    between atoms: C_27  and  C_28
REMARK                            x       y       z     vdW  Elec       q    Type
REMARK                         _______ _______ _______ _____ _____    ______ ____
ROOT
ATOM      1  C   UNL     1       3.673  -0.141   0.050  0.00  0.00    +0.155 C 
ENDROOT
BRANCH   1   5
ATOM      2  C   UNL     1      -0.024   1.994  -0.100  0.00  0.00    +0.000 A 
ATOM      3  C   UNL     1       1.173   2.680  -0.170  0.00  0.00    +0.000 A 
ATOM      4  C   UNL     1       2.370   1.990  -0.121  0.00  0.00    +0.005 A 
ATOM      5  C   UNL     1       2.369   0.612  -0.002  0.00  0.00    -0.027 A 
ATOM      6  C   UNL     1       1.171  -0.074   0.069  0.00  0.00    +0.005 A 
ATOM      7  C   UNL     1      -0.025   0.616   0.019  0.00  0.00    +0.000 A 
ENDBRANCH   1   5
BRANCH   1   8
ATOM      8  C   UNL     1       3.765  -0.898   1.350  0.00  0.00    +0.179 C 
ATOM      9  O   UNL     1       3.424  -2.062   1.399  0.00  0.00    -0.291 OA
BRANCH   8  10
ATOM     10  C   UNL     1       4.246  -0.253   2.509  0.00  0.00    +0.025 C 
ATOM     11  C   UNL     1       4.397  -0.802   3.770  0.00  0.00    +0.006 A 
ATOM     12  C   UNL     1       4.143  -2.091   4.295  0.00  0.00    +0.010 A 
ATOM     13  C   UNL     1       4.389  -2.357   5.597  0.00  0.00    +0.001 A 
ATOM     14  C   UNL     1       4.898  -1.392   6.481  0.00  0.00    +0.002 A 
ATOM     15  C   UNL     1       5.174  -0.132   6.080  0.00  0.00    +0.026 A 
ATOM     16  C   UNL     1       4.935   0.242   4.676  0.00  0.00    +0.043 A 
ATOM     17  N   UNL     1       5.109   1.360   4.032  0.00  0.00    -0.380 N 
ATOM     18  C   UNL     1       4.712   1.181   2.632  0.00  0.00    +0.152 C 
ATOM     19  H   UNL     1       5.450   2.182   4.418  0.00  0.00    +0.160 HD
ENDBRANCH   8  10
ENDBRANCH   1   8
BRANCH   1  20
ATOM     20  S   UNL     1       3.753  -1.308  -1.337  0.00  0.00    -0.068 S 
BRANCH  20  21
ATOM     21  C   UNL     1       3.784  -0.274  -2.763  0.00  0.00    +0.209 A 
ATOM     22  N   UNL     1       3.760   1.039  -2.776  0.00  0.00    -0.121 NA
ATOM     23  N   UNL     1       3.795   1.464  -3.989  0.00  0.00    -0.132 NA
ATOM     24  C   UNL     1       3.843   0.457  -4.814  0.00  0.00    +0.155 A 
ATOM     25  N   UNL     1       3.844  -0.686  -4.063  0.00  0.00    -0.228 N 
BRANCH  25  26
ATOM     26  N   UNL     1       3.891  -1.972  -4.519  0.00  0.00    -0.295 N 
ATOM     27  H   UNL     1       2.969  -2.305  -4.760  0.00  0.00    +0.163 HD
ATOM     28  H   UNL     1       4.521  -2.055  -5.303  0.00  0.00    +0.163 HD
ENDBRANCH  25  26
BRANCH  24  29
ATOM     29  C   UNL     1       3.894   0.537  -6.318  0.00  0.00    +0.116 C 
BRANCH  29  30
ATOM     30  C   UNL     1       2.497   0.438  -6.875  0.00  0.00    -0.005 A 
ATOM     31  C   UNL     1       2.003  -0.786  -7.286  0.00  0.00    +0.007 A 
ATOM     32  C   UNL     1       0.721  -0.878  -7.796  0.00  0.00    +0.000 A 
ATOM     33  C   UNL     1      -0.067   0.253  -7.896  0.00  0.00    +0.003 A 
ATOM     34  C   UNL     1       0.425   1.478  -7.485  0.00  0.00    +0.038 A 
ATOM     35  C   UNL     1       1.706   1.570  -6.969  0.00  0.00    +0.127 A 
ATOM     36  F   UNL     1       2.187   2.766  -6.563  0.00  0.00    -0.205 F 
ENDBRANCH  29  30
ENDBRANCH  24  29
ENDBRANCH  20  21
ENDBRANCH   1  20
TORSDOF 8
