REMARK  Name = ZINC26326641
REMARK  12 active torsions:
REMARK  status: ('A' for Active; 'I' for Inactive)
REMARK    1  A    between atoms: C_1  and  C_2
REMARK    2  A    between atoms: C_4  and  C_34
REMARK    3  A    between atoms: C_5  and  S_9
REMARK    4  A    between atoms: C_6  and  C_8
REMARK    5  A    between atoms: S_9  and  N_12
REMARK    6  A    between atoms: C_16  and  C_18
REMARK    7  A    between atoms: N_20  and  C_21
REMARK    8  A    between atoms: C_24  and  N_27
REMARK    9  A    between atoms: C_28  and  C_30
REMARK   10  A    between atoms: C_30  and  C_31
REMARK   11  A    between atoms: C_31  and  C_32
REMARK   12  A    between atoms: C_31  and  C_33
REMARK                            x       y       z     vdW  Elec       q    Type
REMARK                         _______ _______ _______ _____ _____    ______ ____
ROOT
ATOM      1  C   UNL     1       0.039   2.070  -0.125  0.00  0.00    +0.236 C 
ATOM      2  O   UNL     1       0.505   0.982   0.137  0.00  0.00    -0.274 OA
ATOM      3  N   UNL     1       0.842   3.059  -0.567  0.00  0.00    -0.284 N 
ATOM      4  H   UNL     1       0.409   4.019  -0.883  0.00  0.00    +0.155 HD
ENDROOT
BRANCH   3   5
ATOM      5  C   UNL     1       2.228   2.863  -0.622  0.00  0.00    +0.034 A 
ATOM      6  C   UNL     1       2.865   2.129   0.370  0.00  0.00    +0.025 A 
ATOM      7  C   UNL     1       4.230   1.931   0.312  0.00  0.00    +0.025 A 
ATOM      8  C   UNL     1       4.968   2.476  -0.730  0.00  0.00    +0.033 A 
ATOM      9  C   UNL     1       4.331   3.215  -1.719  0.00  0.00    +0.025 A 
ATOM     10  C   UNL     1       2.965   3.408  -1.665  0.00  0.00    +0.025 A 
BRANCH   8  11
ATOM     11  N   UNL     1       6.354   2.280  -0.785  0.00  0.00    -0.285 N 
ATOM     12  C   UNL     1       6.883   1.101  -0.403  0.00  0.00    +0.217 C 
ATOM     13  O   UNL     1       6.156   0.180  -0.097  0.00  0.00    -0.275 OA
ATOM     14  H   UNL     1       7.010   3.088  -1.141  0.00  0.00    +0.155 HD
BRANCH  12  15
ATOM     15  C   UNL     1       8.379   0.927  -0.356  0.00  0.00    +0.099 C 
BRANCH  15  16
ATOM     16  C   UNL     1       8.713  -0.492   0.107  0.00  0.00    -0.008 C 
ATOM     17  C   UNL     1       8.222  -1.497  -0.937  0.00  0.00    +0.008 C 
ATOM     18  C   UNL     1      10.228  -0.631   0.275  0.00  0.00    +0.008 C 
ENDBRANCH  15  16
ENDBRANCH  12  15
ENDBRANCH   8  11
ENDBRANCH   3   5
BRANCH   1  23
ATOM     19  N   UNL     1      -2.168   1.041  -0.027  0.00  0.00    -0.165 NA
ATOM     20  C   UNL     1      -2.863   0.829   1.256  0.00  0.00    +0.110 C 
ATOM     21  C   UNL     1      -3.044   2.249   1.848  0.00  0.00    +0.019 C 
ATOM     22  C   UNL     1      -1.719   2.940   1.420  0.00  0.00    +0.031 C 
ATOM     23  C   UNL     1      -1.439   2.316   0.036  0.00  0.00    +0.166 C 
BRANCH  19  24
ATOM     24  S   UNL     1      -2.202   0.012  -1.324  0.00  0.00    +0.062 S 
ATOM     25  O   UNL     1      -0.968   0.180  -2.008  0.00  0.00    -0.153 OA
ATOM     26  O   UNL     1      -2.635  -1.248  -0.831  0.00  0.00    -0.153 OA
BRANCH  24  31
ATOM     27  C   UNL     1      -6.521   1.981  -5.050  0.00  0.00    +0.044 C 
ATOM     28  C   UNL     1      -5.442   1.490  -4.119  0.00  0.00    -0.050 A 
ATOM     29  C   UNL     1      -5.781   0.785  -2.979  0.00  0.00    +0.008 A 
ATOM     30  C   UNL     1      -4.792   0.334  -2.126  0.00  0.00    -0.024 A 
ATOM     31  C   UNL     1      -3.463   0.587  -2.412  0.00  0.00    +0.111 A 
ATOM     32  C   UNL     1      -3.125   1.297  -3.549  0.00  0.00    -0.024 A 
ATOM     33  C   UNL     1      -4.114   1.744  -4.405  0.00  0.00    +0.008 A 
ATOM     34  C   UNL     1      -1.677   1.578  -3.858  0.00  0.00    +0.046 C 
ATOM     35  C   UNL     1      -5.162  -0.434  -0.883  0.00  0.00    +0.046 C 
ENDBRANCH  24  31
ENDBRANCH  19  24
ENDBRANCH   1  23
TORSDOF 7
