REMARK  Name = ZINC13220668
REMARK  10 active torsions:
REMARK  status: ('A' for Active; 'I' for Inactive)
REMARK    1  A    between atoms: C_1  and  C_2
REMARK    2  A    between atoms: C_5  and  C_8
REMARK    3  A    between atoms: C_11  and  S_16
REMARK    4  A    between atoms: N_12  and  C_13
REMARK    5  A    between atoms: C_13  and  C_14
REMARK    6  A    between atoms: S_16  and  C_17
REMARK    7  A    between atoms: C_17  and  C_18
REMARK    8  A    between atoms: N_20  and  C_21
REMARK    9  A    between atoms: C_21  and  C_23
REMARK   10  A    between atoms: C_21  and  C_30
REMARK                            x       y       z     vdW  Elec       q    Type
REMARK                         _______ _______ _______ _____ _____    ______ ____
ROOT
ATOM      1  C   UNL     1      -2.780   1.465  -2.657  0.00  0.00    +0.173 C 
ENDROOT
BRANCH   1   2
ATOM      2  C   UNL     1      -2.121   0.967  -1.397  0.00  0.00    +0.224 C 
ATOM      3  O   UNL     1      -2.411  -0.124  -0.952  0.00  0.00    -0.275 OA
ATOM      4  N   UNL     1      -1.211   1.733  -0.764  0.00  0.00    -0.303 N 
ATOM      5  H   UNL     1      -0.980   2.605  -1.119  0.00  0.00    +0.150 HD
BRANCH   4   6
ATOM      6  C   UNL     1      -0.571   1.249   0.462  0.00  0.00    +0.140 C 
BRANCH   6   7
ATOM      7  C   UNL     1       0.765   1.924   0.631  0.00  0.00    -0.022 A 
ATOM      8  C   UNL     1       0.905   3.265   0.326  0.00  0.00    +0.008 A 
ATOM      9  C   UNL     1       2.129   3.887   0.485  0.00  0.00    +0.038 A 
ATOM     10  C   UNL     1       3.218   3.164   0.942  0.00  0.00    +0.123 A 
ATOM     11  C   UNL     1       3.078   1.820   1.243  0.00  0.00    +0.038 A 
ATOM     12  C   UNL     1       1.852   1.201   1.087  0.00  0.00    +0.008 A 
ATOM     13  F   UNL     1       4.416   3.769   1.094  0.00  0.00    -0.205 F 
ENDBRANCH   6   7
BRANCH   6  14
ATOM     14  C   UNL     1      -1.448   1.566   1.646  0.00  0.00    +0.014 A 
ATOM     15  C   UNL     1      -1.718   0.807   2.736  0.00  0.00    +0.013 A 
ATOM     16  C   UNL     1      -2.561   1.308   3.710  0.00  0.00    +0.008 A 
ATOM     17  C   UNL     1      -3.093   2.543   3.546  0.00  0.00    +0.045 A 
ATOM     18  S   UNL     1      -2.395   3.042   1.980  0.00  0.00    -0.099 S 
ENDBRANCH   6  14
ENDBRANCH   4   6
ENDBRANCH   1   2
BRANCH   1  19
ATOM     19  S   UNL     1      -3.944   0.218  -3.263  0.00  0.00    -0.077 S 
BRANCH  19  23
ATOM     20  C   UNL     1      -5.635   1.537  -6.530  0.00  0.00    +0.165 A 
ATOM     21  N   UNL     1      -4.830   2.521  -6.205  0.00  0.00    -0.128 NA
ATOM     22  N   UNL     1      -4.191   2.229  -5.128  0.00  0.00    -0.122 NA
ATOM     23  C   UNL     1      -4.550   1.039  -4.700  0.00  0.00    +0.193 A 
ATOM     24  N   UNL     1      -5.476   0.555  -5.579  0.00  0.00    -0.291 N 
BRANCH  20  29
ATOM     25  C   UNL     1      -9.148   1.354 -11.083  0.00  0.00    +0.044 C 
ATOM     26  C   UNL     1      -8.228   1.401  -9.891  0.00  0.00    -0.050 A 
ATOM     27  C   UNL     1      -8.442   0.551  -8.821  0.00  0.00    +0.004 A 
ATOM     28  C   UNL     1      -7.604   0.589  -7.726  0.00  0.00    +0.012 A 
ATOM     29  C   UNL     1      -6.537   1.489  -7.700  0.00  0.00    +0.019 A 
ATOM     30  C   UNL     1      -6.330   2.348  -8.780  0.00  0.00    +0.012 A 
ATOM     31  C   UNL     1      -7.173   2.296  -9.871  0.00  0.00    +0.004 A 
ENDBRANCH  20  29
BRANCH  24  32
ATOM     32  C   UNL     1      -6.160  -0.740  -5.521  0.00  0.00    +0.250 C 
BRANCH  32  33
ATOM     33  C   UNL     1      -7.418  -0.607  -4.701  0.00  0.00    +0.375 C 
ATOM     34  O   UNL     1      -7.712   0.459  -4.215  0.00  0.00    -0.244 OA
ATOM     35  O   UNL     1      -8.210  -1.673  -4.510  0.00  0.00    -0.244 OA
ENDBRANCH  32  33
ENDBRANCH  24  32
ENDBRANCH  19  23
ENDBRANCH   1  19
TORSDOF 9
