REMARK  Name = ZINC13312220
REMARK  7 active torsions:
REMARK  status: ('A' for Active; 'I' for Inactive)
REMARK    1  A    between atoms: C_1  and  C_2
REMARK    2  A    between atoms: C_4  and  C_30
REMARK    3  A    between atoms: C_6  and  S_9
REMARK    4  A    between atoms: C_7  and  C_8
REMARK    5  A    between atoms: S_9  and  N_12
REMARK    6  A    between atoms: C_15  and  C_18
REMARK    7  A    between atoms: N_20  and  C_21
REMARK                            x       y       z     vdW  Elec       q    Type
REMARK                         _______ _______ _______ _____ _____    ______ ____
ROOT
ATOM      1  N   UNL     1       8.600   2.957  -0.681  0.00  0.00    -0.177 NA
ATOM      2  C   UNL     1       8.565   1.999   0.432  0.00  0.00    +0.110 C 
ATOM      3  C   UNL     1       7.299   1.146   0.308  0.00  0.00    +0.030 C 
ATOM      4  C   UNL     1       6.076   2.063   0.229  0.00  0.00    +0.078 C 
ATOM      5  C   UNL     1       6.183   2.952  -1.012  0.00  0.00    +0.030 C 
ATOM      6  C   UNL     1       7.436   3.825  -0.903  0.00  0.00    +0.110 C 
ENDROOT
BRANCH   4   7
ATOM      7  C   UNL     1       4.826   1.226   0.141  0.00  0.00    +0.220 C 
ATOM      8  O   UNL     1       4.905   0.016   0.142  0.00  0.00    -0.275 OA
ATOM      9  N   UNL     1       3.620   1.823   0.062  0.00  0.00    -0.285 N 
ATOM     10  H   UNL     1       3.560   2.788  -0.011  0.00  0.00    +0.155 HD
BRANCH   9  11
ATOM     11  C   UNL     1       2.452   1.048   0.084  0.00  0.00    +0.037 A 
ATOM     12  C   UNL     1       2.407  -0.117   0.837  0.00  0.00    +0.027 A 
ATOM     13  C   UNL     1       1.256  -0.881   0.861  0.00  0.00    +0.051 A 
ATOM     14  C   UNL     1       0.144  -0.487   0.134  0.00  0.00    +0.166 A 
ATOM     15  C   UNL     1       0.187   0.682  -0.622  0.00  0.00    +0.168 A 
ATOM     16  C   UNL     1       1.341   1.447  -0.645  0.00  0.00    +0.072 A 
ATOM     17  O   UNL     1      -1.018   0.845  -1.242  0.00  0.00    -0.453 OA
ATOM     18  C   UNL     1      -1.662  -0.440  -1.179  0.00  0.00    +0.466 C 
ATOM     19  O   UNL     1      -1.091  -1.054  -0.008  0.00  0.00    -0.453 OA
ENDBRANCH   9  11
ENDBRANCH   4   7
BRANCH   1  20
ATOM     20  S   UNL     1       9.927   3.056  -1.667  0.00  0.00    +0.061 S 
ATOM     21  O   UNL     1       9.996   4.401  -2.121  0.00  0.00    -0.153 OA
ATOM     22  O   UNL     1      10.997   2.431  -0.971  0.00  0.00    -0.153 OA
BRANCH  20  28
ATOM     23  C   UNL     1       9.175  -1.599  -3.920  0.00  0.00    +0.044 C 
ATOM     24  C   UNL     1       9.261  -0.102  -4.066  0.00  0.00    -0.045 A 
ATOM     25  C   UNL     1       9.083   0.480  -5.305  0.00  0.00    +0.018 A 
ATOM     26  C   UNL     1       9.163   1.868  -5.438  0.00  0.00    +0.065 A 
ATOM     27  C   UNL     1       9.423   2.657  -4.316  0.00  0.00    +0.044 A 
ATOM     28  C   UNL     1       9.599   2.062  -3.084  0.00  0.00    +0.109 A 
ATOM     29  C   UNL     1       9.524   0.686  -2.960  0.00  0.00    -0.021 A 
ATOM     30  C   UNL     1       9.723   0.043  -1.612  0.00  0.00    +0.046 C 
BRANCH  26  31
ATOM     31  C   UNL     1       8.975   2.498  -6.761  0.00  0.00    +0.387 C 
ATOM     32  O   UNL     1       9.045   3.705  -6.874  0.00  0.00    -0.241 OA
ATOM     33  O   UNL     1       8.724   1.734  -7.842  0.00  0.00    -0.241 OA
ENDBRANCH  26  31
ENDBRANCH  20  28
ENDBRANCH   1  20
TORSDOF 5
