REMARK  Name = ZINC53735886
REMARK  6 active torsions:
REMARK  status: ('A' for Active; 'I' for Inactive)
REMARK    1  A    between atoms: C_1  and  C_2
REMARK    2  A    between atoms: C_5  and  N_9
REMARK    3  A    between atoms: C_13  and  N_22
REMARK    4  A    between atoms: C_17  and  C_18
REMARK    5  A    between atoms: C_18  and  C_20
REMARK    6  A    between atoms: C_18  and  O_21
REMARK                            x       y       z     vdW  Elec       q    Type
REMARK                         _______ _______ _______ _____ _____    ______ ____
ROOT
ATOM      1  N   UNL     1       0.057  -4.174  -0.025  0.00  0.00    -0.291 N 
ATOM      2  C   UNL     1      -1.047  -5.010  -0.031  0.00  0.00    +0.074 A 
ATOM      3  C   UNL     1      -2.418  -4.794  -0.030  0.00  0.00    +0.030 A 
ATOM      4  C   UNL     1      -3.282  -5.867  -0.037  0.00  0.00    +0.025 A 
ATOM      5  C   UNL     1      -2.788  -7.170  -0.046  0.00  0.00    +0.027 A 
ATOM      6  C   UNL     1      -1.425  -7.401  -0.047  0.00  0.00    +0.052 A 
ATOM      7  C   UNL     1      -0.540  -6.320  -0.040  0.00  0.00    +0.091 A 
ATOM      8  N   UNL     1       0.815  -6.221  -0.039  0.00  0.00    -0.229 NA
ATOM      9  C   UNL     1       1.164  -4.968  -0.036  0.00  0.00    +0.144 A 
ENDROOT
BRANCH   1  14
ATOM     10  C   UNL     1      -0.018   1.503   0.010  0.00  0.00    +0.044 C 
ATOM     11  C   UNL     1       0.002  -0.004   0.002  0.00  0.00    -0.048 A 
ATOM     12  C   UNL     1       0.006  -0.687  -1.200  0.00  0.00    +0.005 A 
ATOM     13  C   UNL     1       0.024  -2.068  -1.212  0.00  0.00    +0.029 A 
ATOM     14  C   UNL     1       0.039  -2.772  -0.016  0.00  0.00    +0.083 A 
ATOM     15  C   UNL     1       0.036  -2.083   1.192  0.00  0.00    +0.147 A 
ATOM     16  C   UNL     1       0.023  -0.700   1.196  0.00  0.00    +0.043 A 
ATOM     17  F   UNL     1       0.050  -2.764   2.359  0.00  0.00    -0.203 F 
ENDBRANCH   1  14
BRANCH   5  18
ATOM     18  N   UNL     1      -3.676  -8.251  -0.052  0.00  0.00    -0.358 N 
ATOM     19  H   UNL     1      -4.633  -8.093  -0.051  0.00  0.00    +0.142 HD
ATOM     20  H   UNL     1      -3.335  -9.159  -0.058  0.00  0.00    +0.142 HD
ENDBRANCH   5  18
BRANCH   9  21
ATOM     21  C   UNL     1       2.585  -4.467  -0.041  0.00  0.00    +0.177 C 
ATOM     22  C   UNL     1       3.183  -4.641  -1.439  0.00  0.00    +0.046 C 
BRANCH  21  23
ATOM     23  O   UNL     1       3.356  -5.213   0.903  0.00  0.00    -0.384 OA
ATOM     24  H   UNL     1       4.284  -4.944   0.953  0.00  0.00    +0.210 HD
ENDBRANCH  21  23
ENDBRANCH   9  21
TORSDOF 4
