REMARK  Name = ZINC37928302
REMARK  6 active torsions:
REMARK  status: ('A' for Active; 'I' for Inactive)
REMARK    1  A    between atoms: C_1  and  C_2
REMARK    2  A    between atoms: C_7  and  N_12
REMARK    3  A    between atoms: C_9  and  C_11
REMARK    4  A    between atoms: N_12  and  S_13
REMARK    5  A    between atoms: S_13  and  C_16
REMARK    6  A    between atoms: C_19  and  N_23
REMARK                            x       y       z     vdW  Elec       q    Type
REMARK                         _______ _______ _______ _____ _____    ______ ____
ROOT
ATOM      1  S   UNL     1       2.396  -3.897   2.329  0.00  0.00    +0.064 S 
ATOM      2  O   UNL     1       2.966  -4.088   3.617  0.00  0.00    -0.153 OA
ATOM      3  O   UNL     1       1.596  -4.885   1.696  0.00  0.00    -0.153 OA
ENDROOT
BRANCH   1   4
ATOM      4  C   UNL     1       3.732  -3.552   1.234  0.00  0.00    +0.175 A 
ATOM      5  C   UNL     1       3.595  -3.796  -0.122  0.00  0.00    +0.154 A 
ATOM      6  C   UNL     1       4.643  -3.526  -0.985  0.00  0.00    +0.063 A 
ATOM      7  C   UNL     1       5.833  -3.011  -0.489  0.00  0.00    +0.030 A 
ATOM      8  C   UNL     1       5.969  -2.767   0.872  0.00  0.00    +0.063 A 
ATOM      9  C   UNL     1       4.917  -3.033   1.729  0.00  0.00    +0.154 A 
ATOM     10  F   UNL     1       5.046  -2.791   3.052  0.00  0.00    -0.203 F 
ATOM     11  F   UNL     1       2.436  -4.297  -0.604  0.00  0.00    -0.203 F 
BRANCH   7  12
ATOM     12  N   UNL     1       6.893  -2.739  -1.357  0.00  0.00    -0.358 N 
ATOM     13  H   UNL     1       6.797  -2.910  -2.307  0.00  0.00    +0.142 HD
ATOM     14  H   UNL     1       7.724  -2.379  -1.010  0.00  0.00    +0.142 HD
ENDBRANCH   7  12
ENDBRANCH   1   4
BRANCH   1  15
ATOM     15  N   UNL     1       1.471  -2.526   2.420  0.00  0.00    -0.186 NA
ATOM     16  H   UNL     1       1.399  -2.045   3.259  0.00  0.00    +0.148 HD
BRANCH  15  22
ATOM     17  C   UNL     1      -0.019   1.526   0.010  0.00  0.00    +0.008 C 
ATOM     18  C   UNL     1       0.002  -0.004   0.002  0.00  0.00    -0.010 C 
ATOM     19  C   UNL     1      -1.433  -0.534   0.013  0.00  0.00    +0.003 C 
ATOM     20  C   UNL     1      -1.413  -2.063   0.004  0.00  0.00    +0.002 C 
ATOM     21  C   UNL     1      -0.673  -2.570   1.244  0.00  0.00    +0.020 C 
ATOM     22  C   UNL     1       0.763  -2.041   1.233  0.00  0.00    +0.080 C 
ATOM     23  C   UNL     1       0.742  -0.511   1.242  0.00  0.00    +0.007 C 
ATOM     24  C   UNL     1       0.026  -0.018   2.500  0.00  0.00    +0.009 C 
ENDBRANCH  15  22
ENDBRANCH   1  15
TORSDOF 4
