REMARK  Name = ZINC64701153
REMARK  8 active torsions:
REMARK  status: ('A' for Active; 'I' for Inactive)
REMARK    1  A    between atoms: C_1  and  C_2
REMARK    2  A    between atoms: C_2  and  C_3
REMARK    3  A    between atoms: C_2  and  C_4
REMARK    4  A    between atoms: C_7  and  C_10
REMARK    5  A    between atoms: C_18  and  S_22
REMARK    6  A    between atoms: S_22  and  C_23
REMARK    7  A    between atoms: C_23  and  C_24
REMARK    8  A    between atoms: N_26  and  C_27
REMARK                            x       y       z     vdW  Elec       q    Type
REMARK                         _______ _______ _______ _____ _____    ______ ____
ROOT
ATOM      1  C   UNL     1       2.797  -1.898   4.636  0.00  0.00    +0.047 C 
ATOM      2  C   UNL     1       2.260  -2.702   5.584  0.00  0.00    +0.027 C 
ATOM      3  C   UNL     1       3.381  -2.920   6.564  0.00  0.00    +0.193 C 
ATOM      4  C   UNL     1       3.014  -2.899   8.016  0.00  0.00    +0.276 C 
ATOM      5  O   UNL     1       1.932  -3.270   8.406  0.00  0.00    -0.270 OA
ATOM      6  N   UNL     1       3.964  -2.441   8.870  0.00  0.00    -0.081 NA
ATOM      7  N   UNL     1       5.036  -1.953   8.503  0.00  0.00    -0.163 NA
ATOM      8  C   UNL     1       5.401  -1.769   7.087  0.00  0.00    +0.272 C 
ATOM      9  N   UNL     1       4.178  -1.673   6.325  0.00  0.00    -0.178 NA
ATOM     10  N   UNL     1       4.142  -1.609   4.972  0.00  0.00    -0.274 N 
ATOM     11  H   UNL     1       4.873  -1.409   4.367  0.00  0.00    +0.167 HD
ENDROOT
BRANCH   1  15
ATOM     12  C   UNL     1       0.768  -0.479   1.182  0.00  0.00    -0.045 A 
ATOM     13  C   UNL     1       2.087  -0.125   1.401  0.00  0.00    +0.004 A 
ATOM     14  C   UNL     1       2.751  -0.582   2.520  0.00  0.00    +0.010 A 
ATOM     15  C   UNL     1       2.090  -1.403   3.433  0.00  0.00    -0.003 A 
ATOM     16  C   UNL     1       0.760  -1.757   3.207  0.00  0.00    +0.010 A 
ATOM     17  C   UNL     1       0.105  -1.289   2.087  0.00  0.00    +0.004 A 
BRANCH  12  19
ATOM     18  C   UNL     1       0.030   1.554  -0.030  0.00  0.00    +0.012 C 
ATOM     19  C   UNL     1       0.048   0.024  -0.042  0.00  0.00    +0.013 C 
ATOM     20  C   UNL     1       0.772  -0.468  -1.297  0.00  0.00    +0.012 C 
ENDBRANCH  12  19
ENDBRANCH   1  15
BRANCH   8  21
ATOM     21  S   UNL     1       6.377  -0.252   6.892  0.00  0.00    -0.107 S 
BRANCH  21  22
ATOM     22  C   UNL     1       5.271   1.060   7.482  0.00  0.00    +0.168 C 
BRANCH  22  23
ATOM     23  C   UNL     1       5.969   2.391   7.373  0.00  0.00    +0.227 C 
ATOM     24  O   UNL     1       7.100   2.450   6.940  0.00  0.00    -0.275 OA
ATOM     25  N   UNL     1       5.335   3.517   7.757  0.00  0.00    -0.285 N 
ATOM     26  H   UNL     1       4.408   3.479   8.040  0.00  0.00    +0.155 HD
BRANCH  25  27
ATOM     27  C   UNL     1       6.015   4.741   7.747  0.00  0.00    +0.034 A 
ATOM     28  C   UNL     1       5.751   5.691   8.724  0.00  0.00    +0.026 A 
ATOM     29  C   UNL     1       6.422   6.898   8.713  0.00  0.00    +0.040 A 
ATOM     30  C   UNL     1       7.359   7.161   7.727  0.00  0.00    +0.124 A 
ATOM     31  C   UNL     1       7.624   6.215   6.751  0.00  0.00    +0.040 A 
ATOM     32  C   UNL     1       6.959   5.004   6.763  0.00  0.00    +0.026 A 
ATOM     33  F   UNL     1       8.014   8.342   7.717  0.00  0.00    -0.205 F 
ENDBRANCH  25  27
ENDBRANCH  22  23
ENDBRANCH  21  22
ENDBRANCH   8  21
TORSDOF 6
