REMARK  Name = ZINC35476887
REMARK  9 active torsions:
REMARK  status: ('A' for Active; 'I' for Inactive)
REMARK    1  A    between atoms: C_1  and  C_2
REMARK    2  A    between atoms: C_6  and  N_8
REMARK    3  A    between atoms: N_8  and  C_9
REMARK    4  A    between atoms: C_9  and  C_11
REMARK    5  A    between atoms: C_9  and  C_18
REMARK    6  A    between atoms: C_19  and  C_33
REMARK    7  A    between atoms: C_20  and  C_32
REMARK    8  A    between atoms: C_22  and  N_23
REMARK    9  A    between atoms: C_24  and  C_26
REMARK                            x       y       z     vdW  Elec       q    Type
REMARK                         _______ _______ _______ _____ _____    ______ ____
ROOT
ATOM      1  C   UNL     1       0.074  -4.094   2.465  0.00  0.00    +0.138 C 
ENDROOT
BRANCH   1   2
ATOM      2  C   UNL     1      -1.325  -4.652   2.462  0.00  0.00    +0.012 A 
ATOM      3  C   UNL     1      -2.388  -3.855   2.843  0.00  0.00    +0.008 A 
ATOM      4  C   UNL     1      -3.672  -4.366   2.840  0.00  0.00    +0.001 A 
ATOM      5  C   UNL     1      -3.895  -5.676   2.457  0.00  0.00    +0.003 A 
ATOM      6  C   UNL     1      -2.835  -6.475   2.075  0.00  0.00    +0.039 A 
ATOM      7  C   UNL     1      -1.548  -5.962   2.072  0.00  0.00    +0.129 A 
ATOM      8  F   UNL     1      -0.511  -6.741   1.695  0.00  0.00    -0.205 F 
ENDBRANCH   1   2
BRANCH   1   9
ATOM      9  C   UNL     1       0.793  -4.547   3.709  0.00  0.00    +0.009 A 
ATOM     10  C   UNL     1       1.803  -5.489   3.636  0.00  0.00    -0.033 A 
ATOM     11  C   UNL     1       2.428  -5.874   4.775  0.00  0.00    -0.008 A 
ATOM     12  S   UNL     1       1.590  -4.894   6.010  0.00  0.00    -0.078 S 
ATOM     13  C   UNL     1       0.464  -4.031   4.927  0.00  0.00    +0.078 A 
ATOM     14  C   UNL     1       3.543  -6.872   4.953  0.00  0.00    +0.052 C 
ATOM     15  C   UNL     1       2.201  -6.080   2.308  0.00  0.00    +0.045 C 
BRANCH  13  16
ATOM     16  N   UNL     1      -0.505  -3.077   5.245  0.00  0.00    -0.276 N 
ATOM     17  C   UNL     1      -0.608  -2.617   6.508  0.00  0.00    +0.249 C 
ATOM     18  O   UNL     1       0.141  -3.033   7.370  0.00  0.00    -0.270 OA
ATOM     19  H   UNL     1      -1.103  -2.745   4.557  0.00  0.00    +0.156 HD
BRANCH  17  20
ATOM     20  C   UNL     1      -1.633  -1.607   6.844  0.00  0.00    +0.037 A 
ATOM     21  C   UNL     1      -2.500  -1.131   5.858  0.00  0.00    +0.013 A 
ATOM     22  C   UNL     1      -3.454  -0.189   6.179  0.00  0.00    +0.001 A 
ATOM     23  C   UNL     1      -3.555   0.285   7.475  0.00  0.00    +0.000 A 
ATOM     24  C   UNL     1      -2.699  -0.182   8.457  0.00  0.00    +0.001 A 
ATOM     25  C   UNL     1      -1.744  -1.128   8.151  0.00  0.00    +0.013 A 
ENDBRANCH  17  20
ENDBRANCH  13  16
ENDBRANCH   1   9
BRANCH   1  26
ATOM     26  N   UNL     1       0.017  -2.631   2.439  0.00  0.00    -0.320 N 
ATOM     27  H   UNL     1       0.101  -2.127   3.264  0.00  0.00    +0.148 HD
BRANCH  26  33
ATOM     28  C   UNL     1      -0.428   1.538   0.127  0.00  0.00    +0.063 C 
ATOM     29  C   UNL     1      -0.376   0.032   0.092  0.00  0.00    +0.014 A 
ATOM     30  C   UNL     1      -0.503  -0.627  -1.115  0.00  0.00    +0.021 A 
ATOM     31  C   UNL     1      -0.454  -2.014  -1.141  0.00  0.00    +0.005 A 
ATOM     32  C   UNL     1      -0.279  -2.691   0.053  0.00  0.00    +0.041 A 
ATOM     33  C   UNL     1      -0.159  -1.963   1.232  0.00  0.00    +0.097 A 
ATOM     34  N   UNL     1      -0.205  -0.640   1.215  0.00  0.00    -0.347 N 
ATOM     35  H   UNL     1      -0.115  -0.152   2.049  0.00  0.00    +0.167 HD
ENDBRANCH  26  33
ENDBRANCH   1  26
TORSDOF 6
