REMARK  Name = ZINC33009807
REMARK  5 active torsions:
REMARK  status: ('A' for Active; 'I' for Inactive)
REMARK    1  A    between atoms: C_3  and  N_8
REMARK    2  A    between atoms: N_11  and  C_12
REMARK    3  A    between atoms: C_14  and  N_23
REMARK    4  A    between atoms: C_17  and  N_18
REMARK    5  A    between atoms: C_24  and  C_26
REMARK                            x       y       z     vdW  Elec       q    Type
REMARK                         _______ _______ _______ _____ _____    ______ ____
ROOT
ATOM      1  C   UNL     1       1.656   4.677   0.737  0.00  0.00    +0.058 A 
ATOM      2  C   UNL     1       0.365   4.191   0.876  0.00  0.00    +0.048 A 
ATOM      3  C   UNL     1       0.132   2.824   0.831  0.00  0.00    +0.036 A 
ATOM      4  C   UNL     1       1.190   1.943   0.651  0.00  0.00    +0.025 A 
ATOM      5  C   UNL     1       2.477   2.425   0.507  0.00  0.00    +0.027 A 
ATOM      6  C   UNL     1       2.716   3.791   0.552  0.00  0.00    +0.051 A 
ENDROOT
BRANCH   1  10
ATOM      7  N   UNL     1       1.101   8.248   0.639  0.00  0.00    -0.269 N 
ATOM      8  C   UNL     1       0.905   6.923   0.487  0.00  0.00    +0.308 C 
ATOM      9  O   UNL     1      -0.164   6.509   0.083  0.00  0.00    -0.252 OA
ATOM     10  N   UNL     1       1.895   6.058   0.783  0.00  0.00    -0.267 N 
ATOM     11  H   UNL     1       2.092   8.628   0.929  0.00  0.00    +0.156 HD
ATOM     12  H   UNL     1       2.891   6.435   1.061  0.00  0.00    +0.156 HD
BRANCH   7  15
ATOM     13  C   UNL     1      -1.921   9.781  -0.789  0.00  0.00    +0.003 A 
ATOM     14  C   UNL     1      -0.875   8.902  -0.586  0.00  0.00    +0.023 A 
ATOM     15  C   UNL     1       0.044   9.140   0.427  0.00  0.00    +0.036 A 
ATOM     16  C   UNL     1      -0.084  10.270   1.226  0.00  0.00    +0.038 A 
ATOM     17  C   UNL     1      -1.129  11.148   1.014  0.00  0.00    +0.020 A 
ATOM     18  C   UNL     1      -2.047  10.904   0.007  0.00  0.00    +0.015 A 
ATOM     19 BR   UNL     1      -1.305  12.687   2.100  0.00  0.00    -0.050 Br
ENDBRANCH   7  15
ENDBRANCH   1  10
BRANCH   6  20
ATOM     20  N   UNL     1       4.022   4.279   0.410  0.00  0.00    -0.328 N 
ATOM     21  C   UNL     1       4.973   3.176   0.118  0.00  0.00    +0.105 C 
ATOM     22  C   UNL     1       6.185   3.910  -0.510  0.00  0.00    +0.020 C 
ATOM     23  C   UNL     1       5.517   5.020  -1.354  0.00  0.00    +0.020 C 
ATOM     24  C   UNL     1       4.119   5.209  -0.736  0.00  0.00    +0.105 C 
ENDBRANCH   6  20
BRANCH   3  25
ATOM     25  N   UNL     1      -1.172   2.332   0.972  0.00  0.00    -0.281 N 
ATOM     26  C   UNL     1      -1.544   1.212   0.321  0.00  0.00    +0.248 C 
ATOM     27  O   UNL     1      -0.779   0.680  -0.460  0.00  0.00    -0.270 OA
ATOM     28  H   UNL     1      -1.893   2.859   1.615  0.00  0.00    +0.155 HD
BRANCH  26  29
ATOM     29  C   UNL     1      -2.882   0.631   0.555  0.00  0.00    +0.037 A 
ATOM     30  C   UNL     1      -3.761   1.236   1.456  0.00  0.00    +0.016 A 
ATOM     31  C   UNL     1      -5.010   0.693   1.667  0.00  0.00    +0.039 A 
ATOM     32  C   UNL     1      -5.390  -0.459   0.995  0.00  0.00    +0.123 A 
ATOM     33  C   UNL     1      -4.519  -1.067   0.104  0.00  0.00    +0.039 A 
ATOM     34  C   UNL     1      -3.269  -0.529  -0.119  0.00  0.00    +0.016 A 
ATOM     35  F   UNL     1      -6.613  -0.990   1.209  0.00  0.00    -0.205 F 
ENDBRANCH  26  29
ENDBRANCH   3  25
TORSDOF 5
