REMARK  Name = ZINC44737114
REMARK  6 active torsions:
REMARK  status: ('A' for Active; 'I' for Inactive)
REMARK    1  A    between atoms: C_1  and  C_2
REMARK    2  A    between atoms: C_9  and  C_11
REMARK    3  A    between atoms: C_11  and  C_13
REMARK    4  A    between atoms: C_11  and  N_14
REMARK    5  A    between atoms: C_15  and  C_17
REMARK    6  A    between atoms: C_28  and  C_30
REMARK                            x       y       z     vdW  Elec       q    Type
REMARK                         _______ _______ _______ _____ _____    ______ ____
ROOT
ATOM      1  C   UNL     1       2.053  -9.043   0.389  0.00  0.00    +0.100 C 
ATOM      2  C   UNL     1       3.135  -8.144  -0.252  0.00  0.00    +0.121 C 
ATOM      3  N   UNL     1       4.355  -8.397   0.551  0.00  0.00    -0.296 N 
ATOM      4  C   UNL     1       4.322  -9.854   0.821  0.00  0.00    +0.115 C 
ATOM      5  C   UNL     1       2.836 -10.166   1.089  0.00  0.00    -0.004 C 
ATOM      6  C   UNL     1       2.465 -11.520   0.492  0.00  0.00    -0.010 C 
ATOM      7  C   UNL     1       3.212 -12.626   1.243  0.00  0.00    -0.082 C 
ATOM      8  N   UNL     1       2.855 -12.581   2.666  0.00  0.00    +0.379 N 
ATOM      9  C   UNL     1       3.300 -11.312   3.254  0.00  0.00    -0.082 C 
ATOM     10  C   UNL     1       2.556 -10.150   2.588  0.00  0.00    -0.010 C 
ATOM     11  C   UNL     1       5.284  -7.504   0.945  0.00  0.00    +0.247 C 
ATOM     12  O   UNL     1       5.107  -6.317   0.751  0.00  0.00    -0.270 OA
ATOM     13  H   UNL     1       1.854 -12.663   2.763  0.00  0.00    -0.086 HD
ATOM     14  H   UNL     1       3.301 -13.348   3.147  0.00  0.00    -0.086 HD
ENDROOT
BRANCH  11  15
ATOM     15  C   UNL     1       6.518  -7.968   1.613  0.00  0.00    +0.038 A 
ATOM     16  C   UNL     1       6.943  -9.289   1.462  0.00  0.00    +0.013 A 
ATOM     17  C   UNL     1       8.096  -9.716   2.088  0.00  0.00    +0.002 A 
ATOM     18  C   UNL     1       8.831  -8.838   2.865  0.00  0.00    +0.015 A 
ATOM     19  C   UNL     1       8.415  -7.527   3.021  0.00  0.00    +0.019 A 
ATOM     20  C   UNL     1       7.267  -7.086   2.394  0.00  0.00    +0.028 A 
ATOM     21 BR   UNL     1       9.426  -6.337   4.087  0.00  0.00    -0.050 Br
ENDBRANCH  11  15
BRANCH   1  23
ATOM     22  N   UNL     1      -0.000  -8.656   1.712  0.00  0.00    -0.305 N 
ATOM     23  C   UNL     1       1.248  -8.260   1.394  0.00  0.00    +0.219 C 
ATOM     24  O   UNL     1       1.723  -7.274   1.915  0.00  0.00    -0.275 OA
ATOM     25  H   UNL     1      -0.380  -9.445   1.295  0.00  0.00    +0.149 HD
BRANCH  22  26
ATOM     26  C   UNL     1      -0.783  -7.895   2.689  0.00  0.00    +0.136 C 
ATOM     27  C   UNL     1      -0.431  -8.364   4.102  0.00  0.00    +0.036 C 
BRANCH  26  36
ATOM     28  C   UNL     1      -8.197  -7.803   2.042  0.00  0.00    +0.044 C 
ATOM     29  C   UNL     1      -6.754  -8.231   1.957  0.00  0.00    -0.048 A 
ATOM     30  C   UNL     1      -6.429  -9.443   1.363  0.00  0.00    +0.005 A 
ATOM     31  C   UNL     1      -5.128  -9.849   1.276  0.00  0.00    +0.030 A 
ATOM     32  C   UNL     1      -4.110  -9.040   1.788  0.00  0.00    +0.089 A 
ATOM     33  C   UNL     1      -4.439  -7.813   2.389  0.00  0.00    +0.067 A 
ATOM     34  C   UNL     1      -5.766  -7.414   2.464  0.00  0.00    +0.031 A 
ATOM     35  N   UNL     1      -3.242  -7.252   2.790  0.00  0.00    -0.340 N 
ATOM     36  C   UNL     1      -2.252  -8.116   2.438  0.00  0.00    +0.128 A 
ATOM     37  N   UNL     1      -2.759  -9.162   1.852  0.00  0.00    -0.231 NA
ATOM     38  H   UNL     1      -3.129  -6.400   3.239  0.00  0.00    +0.167 HD
ENDBRANCH  26  36
ENDBRANCH  22  26
ENDBRANCH   1  23
TORSDOF 4
