REMARK  Name = ZINC36597478
REMARK  14 active torsions:
REMARK  status: ('A' for Active; 'I' for Inactive)
REMARK    1  A    between atoms: C_1  and  C_2
REMARK    2  A    between atoms: C_5  and  C_7
REMARK    3  A    between atoms: C_7  and  N_8
REMARK    4  A    between atoms: N_8  and  C_9
REMARK    5  A    between atoms: C_9  and  C_11
REMARK    6  A    between atoms: C_9  and  C_21
REMARK    7  A    between atoms: C_14  and  C_17
REMARK    8  A    between atoms: N_23  and  C_24
REMARK    9  A    between atoms: C_24  and  C_25
REMARK   10  A    between atoms: C_24  and  C_26
REMARK   11  A    between atoms: C_24  and  C_27
REMARK   12  A    between atoms: C_28  and  C_30
REMARK   13  A    between atoms: C_31  and  O_37
REMARK   14  A    between atoms: C_35  and  O_36
REMARK                            x       y       z     vdW  Elec       q    Type
REMARK                         _______ _______ _______ _____ _____    ______ ____
ROOT
ATOM      1  N   UNL     1       1.949  -3.592  -1.402  0.00  0.00    -0.274 N 
ATOM      2  C   UNL     1       1.038  -4.466  -1.876  0.00  0.00    +0.255 C 
ATOM      3  O   UNL     1       1.173  -4.941  -2.987  0.00  0.00    -0.270 OA
ENDROOT
BRANCH   2   4
ATOM      4  C   UNL     1      -0.118  -4.845  -1.048  0.00  0.00    +0.119 A 
ATOM      5  C   UNL     1      -1.312  -4.113  -1.124  0.00  0.00    +0.133 A 
ATOM      6  C   UNL     1      -2.394  -4.479  -0.340  0.00  0.00    +0.046 A 
ATOM      7  C   UNL     1      -2.301  -5.561   0.514  0.00  0.00    +0.007 A 
ATOM      8  C   UNL     1      -1.129  -6.290   0.597  0.00  0.00    +0.046 A 
ATOM      9  C   UNL     1      -0.036  -5.945  -0.181  0.00  0.00    +0.133 A 
BRANCH   9  10
ATOM     10  O   UNL     1       1.111  -6.665  -0.102  0.00  0.00    -0.506 OA
ATOM     11  H   UNL     1       1.732  -6.344   0.566  0.00  0.00    +0.292 HD
ENDBRANCH   9  10
BRANCH   5  12
ATOM     12  O   UNL     1      -1.406  -3.050  -1.961  0.00  0.00    -0.506 OA
ATOM     13  H   UNL     1      -1.719  -3.274  -2.848  0.00  0.00    +0.292 HD
ENDBRANCH   5  12
ENDBRANCH   2   4
BRANCH   1  14
ATOM     14  C   UNL     1       1.860  -3.120  -0.018  0.00  0.00    +0.183 C 
BRANCH  14  19
ATOM     15  C   UNL     1       0.505   1.738  -0.076  0.00  0.00    +0.086 C 
ATOM     16  C   UNL     1       0.421   0.236   0.011  0.00  0.00    +0.102 A 
ATOM     17  C   UNL     1      -0.702  -0.480   0.200  0.00  0.00    +0.045 A 
ATOM     18  C   UNL     1      -0.322  -1.841   0.216  0.00  0.00    +0.046 A 
ATOM     19  C   UNL     1       1.010  -1.877   0.035  0.00  0.00    +0.122 A 
ATOM     20  O   UNL     1       1.454  -0.616  -0.094  0.00  0.00    -0.463 OA
ENDBRANCH  14  19
ENDBRANCH   1  14
BRANCH   1  21
ATOM     21  C   UNL     1       3.027  -3.114  -2.272  0.00  0.00    +0.193 C 
BRANCH  21  22
ATOM     22  C   UNL     1       3.913  -4.270  -2.655  0.00  0.00    -0.018 A 
ATOM     23  C   UNL     1       4.487  -5.056  -1.673  0.00  0.00    +0.006 A 
ATOM     24  C   UNL     1       5.301  -6.117  -2.024  0.00  0.00    +0.013 A 
ATOM     25  C   UNL     1       5.540  -6.393  -3.357  0.00  0.00    +0.055 A 
ATOM     26  C   UNL     1       4.965  -5.608  -4.339  0.00  0.00    +0.013 A 
ATOM     27  C   UNL     1       4.149  -4.549  -3.988  0.00  0.00    +0.006 A 
BRANCH  25  28
ATOM     28  C   UNL     1       6.428  -7.549  -3.740  0.00  0.00    +0.417 C 
ATOM     29  F   UNL     1       5.653  -8.705  -3.881  0.00  0.00    -0.166 F 
ATOM     30  F   UNL     1       7.067  -7.264  -4.951  0.00  0.00    -0.166 F 
ATOM     31  F   UNL     1       7.388  -7.750  -2.742  0.00  0.00    -0.166 F 
ENDBRANCH  25  28
ENDBRANCH  21  22
BRANCH  21  32
ATOM     32  C   UNL     1       2.435  -2.501  -3.515  0.00  0.00    +0.239 C 
ATOM     33  O   UNL     1       1.231  -2.467  -3.661  0.00  0.00    -0.273 OA
ATOM     34  N   UNL     1       3.243  -1.991  -4.465  0.00  0.00    -0.309 N 
ATOM     35  H   UNL     1       4.206  -2.018  -4.349  0.00  0.00    +0.149 HD
BRANCH  34  36
ATOM     36  C   UNL     1       2.668  -1.396  -5.674  0.00  0.00    +0.026 C 
ATOM     37  C   UNL     1       1.768  -0.222  -5.285  0.00  0.00    +0.031 C 
ATOM     38  C   UNL     1       3.794  -0.896  -6.582  0.00  0.00    +0.031 C 
ATOM     39  C   UNL     1       1.842  -2.448  -6.417  0.00  0.00    +0.031 C 
ENDBRANCH  34  36
ENDBRANCH  21  32
ENDBRANCH   1  21
TORSDOF 10
