REMARK  Name = ZINC08974444
REMARK  2 active torsions:
REMARK  status: ('A' for Active; 'I' for Inactive)
REMARK    1  A    between atoms: C_8  and  C_12
REMARK    2  A    between atoms: C_12  and  N_14
REMARK                            x       y       z     vdW  Elec       q    Type
REMARK                         _______ _______ _______ _____ _____    ______ ____
ROOT
ATOM      1  C   UNL     1       2.586  -4.234   0.117  0.00  0.00    +0.256 C 
ATOM      2  O   UNL     1       3.122  -4.670  -0.883  0.00  0.00    -0.272 OA
ENDROOT
BRANCH   1  10
ATOM      3  C   UNL     1      -0.017   1.376   0.010  0.00  0.00    +0.000 A 
ATOM      4  C   UNL     1       1.173   2.080   0.002  0.00  0.00    +0.000 A 
ATOM      5  C   UNL     1       2.374   1.400  -0.011  0.00  0.00    +0.005 A 
ATOM      6  C   UNL     1       2.395   0.013  -0.018  0.00  0.00    -0.030 A 
ATOM      7  C   UNL     1       1.208  -0.688  -0.014  0.00  0.00    -0.041 A 
ATOM      8  C   UNL     1       0.002  -0.004   0.002  0.00  0.00    +0.004 A 
ATOM      9  C   UNL     1       1.180  -2.195  -0.033  0.00  0.00    +0.063 C 
ATOM     10  C   UNL     1       2.548  -2.748   0.366  0.00  0.00    +0.147 C 
ATOM     11  N   UNL     1       3.577  -2.081  -0.447  0.00  0.00    -0.301 NA
ATOM     12  C   UNL     1       3.730  -0.684  -0.026  0.00  0.00    +0.117 C 
ATOM     13  H   UNL     1       4.456  -2.573  -0.393  0.00  0.00    +0.123 HD
ENDBRANCH   1  10
BRANCH   1  14
ATOM     14  N   UNL     1       2.033  -5.068   0.992  0.00  0.00    -0.155 NA
ATOM     15  C   UNL     1       2.066  -6.381   0.772  0.00  0.00    +0.164 A 
ATOM     16  N   UNL     1       1.552  -7.368   1.548  0.00  0.00    -0.335 N 
ATOM     17  H   UNL     1       1.094  -7.148   2.375  0.00  0.00    +0.168 HD
ATOM     18  C   UNL     1       1.682  -8.687   1.159  0.00  0.00    +0.055 A 
ATOM     19  C   UNL     1       1.232  -9.849   1.801  0.00  0.00    +0.027 A 
ATOM     20  C   UNL     1       1.460 -11.088   1.250  0.00  0.00    +0.002 A 
ATOM     21  C   UNL     1       2.138 -11.225   0.050  0.00  0.00    +0.001 A 
ATOM     22  C   UNL     1       2.592 -10.093  -0.605  0.00  0.00    +0.017 A 
ATOM     23  C   UNL     1       2.364  -8.854  -0.055  0.00  0.00    +0.039 A 
ATOM     24  S   UNL     1       2.748  -7.190  -0.534  0.00  0.00    -0.052 S 
ENDBRANCH   1  14
TORSDOF 2
