REMARK  Name = ZINC64558249
REMARK  11 active torsions:
REMARK  status: ('A' for Active; 'I' for Inactive)
REMARK    1  A    between atoms: C_1  and  C_2
REMARK    2  A    between atoms: C_5  and  S_8
REMARK    3  A    between atoms: S_8  and  C_11
REMARK    4  A    between atoms: N_15  and  C_28
REMARK    5  A    between atoms: C_16  and  C_18
REMARK    6  A    between atoms: C_21  and  C_24
REMARK    7  A    between atoms: C_24  and  O_26
REMARK    8  A    between atoms: O_26  and  C_27
REMARK    9  A    between atoms: C_31  and  C_34
REMARK   10  A    between atoms: C_34  and  C_35
REMARK   11  A    between atoms: C_34  and  C_36
REMARK                            x       y       z     vdW  Elec       q    Type
REMARK                         _______ _______ _______ _____ _____    ______ ____
ROOT
ATOM      1  C   UNL     1       1.752  -5.029  -0.035  0.00  0.00    +0.148 C 
ATOM      2  C   UNL     1       2.389  -5.699   0.926  0.00  0.00    +0.264 C 
ATOM      3  C   UNL     1       3.788  -5.921   0.533  0.00  0.00    +0.293 C 
ATOM      4  O   UNL     1       4.617  -6.504   1.204  0.00  0.00    -0.266 OA
ATOM      5  N   UNL     1       4.014  -5.384  -0.681  0.00  0.00    -0.252 N 
ATOM      6  C   UNL     1       2.754  -4.786  -1.140  0.00  0.00    +0.164 C 
ATOM      7  O   UNL     1       1.829  -6.113   2.094  0.00  0.00    -0.281 OA
ENDROOT
BRANCH   6   8
ATOM      8  C   UNL     1       2.935  -3.306  -1.360  0.00  0.00    -0.021 A 
ATOM      9  C   UNL     1       3.758  -2.580  -0.518  0.00  0.00    +0.006 A 
ATOM     10  C   UNL     1       3.928  -1.225  -0.714  0.00  0.00    +0.015 A 
ATOM     11  C   UNL     1       3.267  -0.587  -1.765  0.00  0.00    +0.059 A 
ATOM     12  C   UNL     1       2.437  -1.325  -2.611  0.00  0.00    +0.015 A 
ATOM     13  C   UNL     1       2.281  -2.680  -2.407  0.00  0.00    +0.006 A 
BRANCH  11  14
ATOM     14  C   UNL     1       3.444   0.864  -1.980  0.00  0.00    +0.339 C 
ATOM     15  O   UNL     1       4.166   1.504  -1.242  0.00  0.00    -0.245 OA
BRANCH  14  16
ATOM     16  O   UNL     1       2.804   1.477  -2.995  0.00  0.00    -0.464 OA
ATOM     17  C   UNL     1       3.021   2.882  -3.144  0.00  0.00    +0.280 C 
ENDBRANCH  14  16
ENDBRANCH  11  14
ENDBRANCH   6   8
BRANCH   5  18
ATOM     18  C   UNL     1       5.226  -5.398  -1.379  0.00  0.00    +0.038 A 
ATOM     19  C   UNL     1       5.317  -4.796  -2.627  0.00  0.00    +0.024 A 
ATOM     20  C   UNL     1       6.515  -4.811  -3.313  0.00  0.00    +0.006 A 
ATOM     21  C   UNL     1       7.624  -5.425  -2.759  0.00  0.00    -0.045 A 
ATOM     22  C   UNL     1       7.536  -6.025  -1.516  0.00  0.00    +0.006 A 
ATOM     23  C   UNL     1       6.342  -6.009  -0.822  0.00  0.00    +0.024 A 
BRANCH  21  24
ATOM     24  C   UNL     1       8.930  -5.440  -3.511  0.00  0.00    +0.013 C 
ATOM     25  C   UNL     1      10.004  -4.733  -2.682  0.00  0.00    +0.012 C 
ATOM     26  C   UNL     1       9.354  -6.888  -3.767  0.00  0.00    +0.012 C 
ENDBRANCH  21  24
ENDBRANCH   5  18
BRANCH   1  27
ATOM     27  S   UNL     1       0.063  -4.530  -0.023  0.00  0.00    +0.027 S 
ATOM     28  O   UNL     1      -0.476  -4.950   1.223  0.00  0.00    -0.164 OA
ATOM     29  O   UNL     1      -0.490  -4.937  -1.267  0.00  0.00    -0.164 OA
BRANCH  27  34
ATOM     30  C   UNL     1      -0.018   1.503   0.010  0.00  0.00    +0.044 C 
ATOM     31  C   UNL     1       0.002  -0.004   0.002  0.00  0.00    -0.050 A 
ATOM     32  C   UNL     1       0.006  -0.689  -1.199  0.00  0.00    +0.005 A 
ATOM     33  C   UNL     1       0.025  -2.071  -1.206  0.00  0.00    +0.027 A 
ATOM     34  C   UNL     1       0.040  -2.768  -0.013  0.00  0.00    +0.093 A 
ATOM     35  C   UNL     1       0.037  -2.084   1.188  0.00  0.00    +0.027 A 
ATOM     36  C   UNL     1       0.023  -0.702   1.195  0.00  0.00    +0.005 A 
ENDBRANCH  27  34
ENDBRANCH   1  27
TORSDOF 7
