REMARK  Name = ZINC37551626
REMARK  9 active torsions:
REMARK  status: ('A' for Active; 'I' for Inactive)
REMARK    1  A    between atoms: C_1  and  C_2
REMARK    2  A    between atoms: C_4  and  N_12
REMARK    3  A    between atoms: C_7  and  C_8
REMARK    4  A    between atoms: C_9  and  C_10
REMARK    5  A    between atoms: C_10  and  O_11
REMARK    6  A    between atoms: N_15  and  C_16
REMARK    7  A    between atoms: C_16  and  C_17
REMARK    8  A    between atoms: C_16  and  C_18
REMARK    9  A    between atoms: C_16  and  C_19
REMARK                            x       y       z     vdW  Elec       q    Type
REMARK                         _______ _______ _______ _____ _____    ______ ____
ROOT
ATOM      1  C   UNL     1      -0.412   1.477   0.016  0.00  0.00    +0.045 C 
ATOM      2  C   UNL     1      -0.194  -0.014   0.003  0.00  0.00    -0.033 A 
ATOM      3  C   UNL     1      -0.183  -0.700  -1.192  0.00  0.00    +0.028 A 
ATOM      4  C   UNL     1       0.018  -2.075  -1.205  0.00  0.00    +0.035 A 
ATOM      5  C   UNL     1       0.209  -2.763  -0.012  0.00  0.00    +0.024 A 
ATOM      6  C   UNL     1       0.201  -2.084   1.186  0.00  0.00    +0.019 A 
ATOM      7  C   UNL     1       0.005  -0.701   1.202  0.00  0.00    +0.028 A 
ENDROOT
BRANCH   4   8
ATOM      8  N   UNL     1       0.027  -2.767  -2.420  0.00  0.00    -0.269 N 
ATOM      9  C   UNL     1       0.507  -2.174  -3.530  0.00  0.00    +0.304 C 
ATOM     10  O   UNL     1       1.020  -1.074  -3.458  0.00  0.00    -0.252 OA
ATOM     11  N   UNL     1       0.418  -2.799  -4.721  0.00  0.00    -0.294 N 
ATOM     12  H   UNL     1      -0.312  -3.675  -2.463  0.00  0.00    +0.156 HD
ATOM     13  H   UNL     1       0.009  -3.676  -4.778  0.00  0.00    +0.151 HD
BRANCH  11  14
ATOM     14  C   UNL     1       0.940  -2.154  -5.928  0.00  0.00    +0.028 C 
ATOM     15  C   UNL     1       2.438  -1.891  -5.759  0.00  0.00    +0.031 C 
ATOM     16  C   UNL     1       0.716  -3.069  -7.133  0.00  0.00    +0.031 C 
ATOM     17  C   UNL     1       0.212  -0.827  -6.152  0.00  0.00    +0.031 C 
ENDBRANCH  11  14
ENDBRANCH   4   8
BRANCH   7  18
ATOM     18  C   UNL     1       0.001   0.009   2.446  0.00  0.00    -0.064 C 
ATOM     19  C   UNL     1      -0.002   0.591   3.465  0.00  0.00    -0.069 C 
BRANCH  19  20
ATOM     20  C   UNL     1      -0.006   1.321   4.743  0.00  0.00    +0.244 C 
BRANCH  20  21
ATOM     21  O   UNL     1       0.216   0.404   5.816  0.00  0.00    -0.383 OA
ATOM     22  H   UNL     1       0.226   0.816   6.691  0.00  0.00    +0.211 HD
ENDBRANCH  20  21
ENDBRANCH  19  20
ENDBRANCH   7  18
TORSDOF 5
