REMARK  Name = ZINC39666225
REMARK  8 active torsions:
REMARK  status: ('A' for Active; 'I' for Inactive)
REMARK    1  A    between atoms: C_1  and  C_2
REMARK    2  A    between atoms: C_5  and  O_8
REMARK    3  A    between atoms: O_8  and  C_9
REMARK    4  A    between atoms: C_9  and  C_11
REMARK    5  A    between atoms: C_9  and  C_12
REMARK    6  A    between atoms: C_12  and  N_13
REMARK    7  A    between atoms: C_14  and  C_16
REMARK    8  A    between atoms: C_27  and  C_29
REMARK                            x       y       z     vdW  Elec       q    Type
REMARK                         _______ _______ _______ _____ _____    ______ ____
ROOT
ATOM      1  C   UNL     1      -4.045  -6.709   0.431  0.00  0.00    +0.100 C 
ATOM      2  C   UNL     1      -4.663  -5.800   1.517  0.00  0.00    +0.121 C 
ATOM      3  N   UNL     1      -6.045  -6.306   1.688  0.00  0.00    -0.296 N 
ATOM      4  C   UNL     1      -5.912  -7.780   1.601  0.00  0.00    +0.115 C 
ATOM      5  C   UNL     1      -4.867  -8.008   0.490  0.00  0.00    -0.004 C 
ATOM      6  C   UNL     1      -5.563  -8.254  -0.846  0.00  0.00    -0.010 C 
ATOM      7  C   UNL     1      -6.327  -9.579  -0.781  0.00  0.00    -0.082 C 
ATOM      8  N   UNL     1      -5.392 -10.671  -0.485  0.00  0.00    +0.379 N 
ATOM      9  C   UNL     1      -4.797 -10.475   0.842  0.00  0.00    -0.082 C 
ATOM     10  C   UNL     1      -3.968  -9.188   0.847  0.00  0.00    -0.010 C 
ATOM     11  C   UNL     1      -7.170  -5.588   1.879  0.00  0.00    +0.248 C 
ATOM     12  O   UNL     1      -8.252  -6.146   1.898  0.00  0.00    -0.270 OA
ATOM     13  H   UNL     1      -5.887 -11.550  -0.503  0.00  0.00    -0.086 HD
ATOM     14  H   UNL     1      -4.662 -10.685  -1.181  0.00  0.00    -0.086 HD
ENDROOT
BRANCH  11  15
ATOM     15  C   UNL     1      -7.090  -4.134   2.065  0.00  0.00    +0.052 A 
ATOM     16  C   UNL     1      -5.964  -3.551   2.552  0.00  0.00    +0.059 A 
ATOM     17  S   UNL     1      -6.299  -1.908   2.603  0.00  0.00    -0.096 S 
ATOM     18  C   UNL     1      -7.957  -1.907   1.978  0.00  0.00    +0.020 A 
ATOM     19  C   UNL     1      -8.221  -3.266   1.726  0.00  0.00    +0.001 A 
ATOM     20  C   UNL     1      -9.488  -3.592   1.206  0.00  0.00    +0.010 A 
ATOM     21  C   UNL     1     -10.411  -2.607   0.959  0.00  0.00    +0.001 A 
ATOM     22  C   UNL     1     -10.124  -1.274   1.211  0.00  0.00    +0.001 A 
ATOM     23  C   UNL     1      -8.893  -0.925   1.731  0.00  0.00    +0.015 A 
ENDBRANCH  11  15
BRANCH   1  25
ATOM     24  N   UNL     1      -1.722  -7.200  -0.259  0.00  0.00    -0.312 N 
ATOM     25  C   UNL     1      -2.598  -6.990   0.743  0.00  0.00    +0.218 C 
ATOM     26  O   UNL     1      -2.222  -7.026   1.896  0.00  0.00    -0.275 OA
ATOM     27  H   UNL     1      -2.022  -7.171  -1.181  0.00  0.00    +0.149 HD
BRANCH  24  28
ATOM     28  C   UNL     1      -0.314  -7.473   0.044  0.00  0.00    +0.148 C 
BRANCH  28  29
ATOM     29  C   UNL     1       0.459  -7.673  -1.261  0.00  0.00    +0.187 C 
ATOM     30  C   UNL     1       1.928  -7.958  -0.945  0.00  0.00    +0.053 C 
BRANCH  29  31
ATOM     31  O   UNL     1      -0.096  -8.777  -1.979  0.00  0.00    -0.488 OA
BRANCH  31  36
ATOM     32  C   UNL     1       0.665  -8.838  -7.559  0.00  0.00    +0.044 C 
ATOM     33  C   UNL     1       0.461  -8.822  -6.066  0.00  0.00    -0.050 A 
ATOM     34  C   UNL     1       0.884  -7.734  -5.324  0.00  0.00    +0.007 A 
ATOM     35  C   UNL     1       0.699  -7.717  -3.955  0.00  0.00    +0.046 A 
ATOM     36  C   UNL     1       0.087  -8.791  -3.326  0.00  0.00    +0.121 A 
ATOM     37  C   UNL     1      -0.337  -9.880  -4.073  0.00  0.00    +0.046 A 
ATOM     38  C   UNL     1      -0.154  -9.891  -5.442  0.00  0.00    +0.007 A 
ENDBRANCH  31  36
ENDBRANCH  29  31
ENDBRANCH  28  29
ENDBRANCH  24  28
ENDBRANCH   1  25
TORSDOF 6
