REMARK  Name = ZINC01129483
REMARK  14 active torsions:
REMARK  status: ('A' for Active; 'I' for Inactive)
REMARK    1  A    between atoms: C_1  and  C_2
REMARK    2  A    between atoms: C_2  and  C_3
REMARK    3  A    between atoms: C_2  and  C_4
REMARK    4  A    between atoms: C_2  and  C_5
REMARK    5  A    between atoms: C_12  and  N_37
REMARK    6  A    between atoms: C_13  and  C_35
REMARK    7  A    between atoms: C_14  and  C_16
REMARK    8  A    between atoms: C_18  and  O_33
REMARK    9  A    between atoms: C_19  and  O_24
REMARK   10  A    between atoms: C_20  and  O_22
REMARK   11  A    between atoms: O_22  and  C_23
REMARK   12  A    between atoms: O_24  and  C_25
REMARK   13  A    between atoms: C_25  and  C_26
REMARK   14  A    between atoms: O_33  and  C_34
REMARK                            x       y       z     vdW  Elec       q    Type
REMARK                         _______ _______ _______ _____ _____    ______ ____
ROOT
ATOM      1  C   UNL     1       1.413  -0.949  -1.969  0.00  0.00    +0.076 A 
ATOM      2  C   UNL     1       1.042  -2.273  -2.164  0.00  0.00    +0.050 A 
ATOM      3  C   UNL     1       1.421  -2.637  -3.427  0.00  0.00    +0.222 A 
ATOM      4  N   UNL     1       2.009  -1.573  -3.997  0.00  0.00    -0.246 N 
ATOM      5  H   UNL     1       2.378  -1.536  -4.893  0.00  0.00    +0.192 HD
ATOM      6  N   UNL     1       1.988  -0.521  -3.067  0.00  0.00    -0.175 NA
ATOM      7  O   UNL     1       1.197  -3.876  -3.929  0.00  0.00    -0.423 OA
ATOM      8  C   UNL     1       0.344  -4.678  -3.259  0.00  0.00    +0.200 C 
ATOM      9  C   UNL     1      -0.091  -4.430  -2.004  0.00  0.00    +0.098 C 
ATOM     10  C   UNL     1       0.347  -3.219  -1.220  0.00  0.00    +0.102 C 
ENDROOT
BRANCH  10  11
ATOM     11  C   UNL     1       1.297  -3.636  -0.127  0.00  0.00    -0.027 A 
ATOM     12  C   UNL     1       2.626  -3.876  -0.424  0.00  0.00    +0.054 A 
ATOM     13  C   UNL     1       3.503  -4.261   0.579  0.00  0.00    +0.165 A 
ATOM     14  C   UNL     1       3.046  -4.404   1.883  0.00  0.00    +0.204 A 
ATOM     15  C   UNL     1       1.709  -4.162   2.177  0.00  0.00    +0.165 A 
ATOM     16  C   UNL     1       0.839  -3.772   1.170  0.00  0.00    +0.054 A 
BRANCH  15  17
ATOM     17  O   UNL     1       1.256  -4.301   3.452  0.00  0.00    -0.491 OA
ATOM     18  C   UNL     1      -0.129  -4.035   3.681  0.00  0.00    +0.277 C 
ENDBRANCH  15  17
BRANCH  13  19
ATOM     19  O   UNL     1       4.810  -4.497   0.285  0.00  0.00    -0.491 OA
ATOM     20  C   UNL     1       5.210  -4.330  -1.076  0.00  0.00    +0.277 C 
ENDBRANCH  13  19
BRANCH  14  21
ATOM     21  O   UNL     1       3.904  -4.782   2.869  0.00  0.00    -0.480 OA
BRANCH  21  22
ATOM     22  C   UNL     1       4.586  -3.740   3.570  0.00  0.00    +0.265 C 
BRANCH  22  23
ATOM     23  C   UNL     1       5.485  -4.344   4.617  0.00  0.00    -0.010 A 
ATOM     24  C   UNL     1       5.003  -4.577   5.892  0.00  0.00    +0.010 A 
ATOM     25  C   UNL     1       5.827  -5.132   6.853  0.00  0.00    +0.039 A 
ATOM     26  C   UNL     1       7.136  -5.454   6.539  0.00  0.00    +0.123 A 
ATOM     27  C   UNL     1       7.619  -5.220   5.262  0.00  0.00    +0.039 A 
ATOM     28  C   UNL     1       6.791  -4.671   4.301  0.00  0.00    +0.010 A 
ATOM     29  F   UNL     1       7.943  -5.996   7.477  0.00  0.00    -0.205 F 
ENDBRANCH  22  23
ENDBRANCH  21  22
ENDBRANCH  14  21
ENDBRANCH  10  11
BRANCH   1  31
ATOM     30  C   UNL     1       1.602   1.309  -0.962  0.00  0.00    +0.017 C 
ATOM     31  C   UNL     1       1.187  -0.143  -0.716  0.00  0.00    +0.007 C 
ATOM     32  C   UNL     1       2.024  -0.727   0.424  0.00  0.00    +0.017 C 
ATOM     33  C   UNL     1      -0.295  -0.193  -0.338  0.00  0.00    +0.017 C 
ENDBRANCH   1  31
BRANCH   8  34
ATOM     34  N   UNL     1      -0.108  -5.810  -3.889  0.00  0.00    -0.328 N 
ATOM     35  H   UNL     1       0.186  -6.014  -4.790  0.00  0.00    +0.145 HD
ATOM     36  H   UNL     1      -0.723  -6.406  -3.433  0.00  0.00    +0.145 HD
ENDBRANCH   8  34
BRANCH   9  37
ATOM     37  C   UNL     1      -1.002  -5.353  -1.396  0.00  0.00    +0.101 C 
ATOM     38  N   UNL     1      -1.724  -6.085  -0.913  0.00  0.00    -0.191 NA
ENDBRANCH   9  37
TORSDOF 9
