REMARK  Name = ZINC65571880
REMARK  10 active torsions:
REMARK  status: ('A' for Active; 'I' for Inactive)
REMARK    1  A    between atoms: C_1  and  C_2
REMARK    2  A    between atoms: C_4  and  N_11
REMARK    3  A    between atoms: C_7  and  N_8
REMARK    4  A    between atoms: N_8  and  C_9
REMARK    5  A    between atoms: N_8  and  C_10
REMARK    6  A    between atoms: C_12  and  C_14
REMARK    7  A    between atoms: N_16  and  C_17
REMARK    8  A    between atoms: N_20  and  C_22
REMARK    9  A    between atoms: C_22  and  C_23
REMARK   10  A    between atoms: C_22  and  C_24
REMARK                            x       y       z     vdW  Elec       q    Type
REMARK                         _______ _______ _______ _____ _____    ______ ____
ROOT
ATOM      1  C   UNL     1       0.264  -4.841  -3.728  0.00  0.00    +0.299 C 
ATOM      2  O   UNL     1       0.250  -4.226  -4.774  0.00  0.00    -0.265 OA
ATOM      3  N   UNL     1       0.384  -6.184  -3.738  0.00  0.00    -0.307 N 
ATOM      4  H   UNL     1       0.395  -6.676  -2.902  0.00  0.00    +0.149 HD
ENDROOT
BRANCH   3   5
ATOM      5  C   UNL     1       0.497  -6.899  -5.011  0.00  0.00    +0.055 C 
ATOM      6  C   UNL     1       1.981  -7.017  -5.430  0.00  0.00    +0.002 C 
ATOM      7  C   UNL     1       2.369  -8.433  -4.935  0.00  0.00    -0.076 C 
ATOM      8  N   UNL     1       1.144  -9.232  -5.197  0.00  0.00    +0.385 N 
ATOM      9  C   UNL     1       0.007  -8.351  -4.854  0.00  0.00    -0.056 C 
ATOM     10  H   UNL     1       1.101  -9.494  -6.170  0.00  0.00    -0.081 HD
BRANCH   8  11
ATOM     11  C   UNL     1       1.130 -10.431  -4.347  0.00  0.00    -0.041 C 
ATOM     12  C   UNL     1      -0.154 -11.223  -4.603  0.00  0.00    -0.008 C 
BRANCH  11  13
ATOM     13  C   UNL     1       2.324 -11.291  -4.671  0.00  0.00    -0.061 A 
ATOM     14  C   UNL     1       2.729 -11.445  -5.984  0.00  0.00    +0.002 A 
ATOM     15  C   UNL     1       3.824 -12.233  -6.282  0.00  0.00    +0.000 A 
ATOM     16  C   UNL     1       4.515 -12.868  -5.267  0.00  0.00    +0.000 A 
ATOM     17  C   UNL     1       4.111 -12.713  -3.954  0.00  0.00    +0.000 A 
ATOM     18  C   UNL     1       3.018 -11.921  -3.656  0.00  0.00    +0.002 A 
ENDBRANCH  11  13
ENDBRANCH   8  11
ENDBRANCH   3   5
BRANCH   1  20
ATOM     19  N   UNL     1       0.028  -2.769  -2.420  0.00  0.00    -0.278 N 
ATOM     20  C   UNL     1       0.148  -4.112  -2.430  0.00  0.00    +0.303 C 
ATOM     21  O   UNL     1       0.162  -4.728  -1.384  0.00  0.00    -0.265 OA
ATOM     22  H   UNL     1      -0.060  -2.284  -3.255  0.00  0.00    +0.155 HD
BRANCH  19  26
ATOM     23  C   UNL     1       1.625  -2.360   2.210  0.00  0.00    +0.046 C 
ATOM     24  C   UNL     1       0.797  -1.856   1.057  0.00  0.00    -0.028 A 
ATOM     25  C   UNL     1       0.794  -2.541  -0.142  0.00  0.00    +0.028 A 
ATOM     26  C   UNL     1       0.030  -2.076  -1.205  0.00  0.00    +0.034 A 
ATOM     27  C   UNL     1      -0.731  -0.922  -1.062  0.00  0.00    +0.025 A 
ATOM     28  C   UNL     1      -0.728  -0.238   0.136  0.00  0.00    +0.025 A 
ATOM     29  C   UNL     1       0.032  -0.706   1.202  0.00  0.00    +0.032 A 
BRANCH  29  30
ATOM     30  N   UNL     1       0.030  -0.016   2.418  0.00  0.00    -0.336 N 
ATOM     31  C   UNL     1      -0.950  -0.356   3.452  0.00  0.00    +0.129 C 
ATOM     32  C   UNL     1       1.009   1.047   2.658  0.00  0.00    +0.129 C 
ENDBRANCH  29  30
ENDBRANCH  19  26
ENDBRANCH   1  20
TORSDOF 6
