REMARK  Name = ZINC35955602
REMARK  6 active torsions:
REMARK  status: ('A' for Active; 'I' for Inactive)
REMARK    1  A    between atoms: C_1  and  C_2
REMARK    2  A    between atoms: C_7  and  C_8
REMARK    3  A    between atoms: N_10  and  C_11
REMARK    4  A    between atoms: C_17  and  N_19
REMARK    5  A    between atoms: C_20  and  C_22
REMARK    6  A    between atoms: C_29  and  C_31
REMARK                            x       y       z     vdW  Elec       q    Type
REMARK                         _______ _______ _______ _____ _____    ______ ____
ROOT
ATOM      1  N   UNL     1      -1.167  -1.335   5.928  0.00  0.00    -0.310 N 
ATOM      2  C   UNL     1      -1.561  -2.485   6.510  0.00  0.00    +0.218 C 
ATOM      3  O   UNL     1      -0.779  -3.124   7.181  0.00  0.00    -0.275 OA
ATOM      4  H   UNL     1      -1.792  -0.823   5.391  0.00  0.00    +0.149 HD
ENDROOT
BRANCH   2   5
ATOM      5  C   UNL     1      -2.974  -2.975   6.327  0.00  0.00    +0.092 C 
ATOM      6  C   UNL     1      -3.161  -4.290   7.087  0.00  0.00    +0.016 C 
ATOM      7  C   UNL     1      -4.586  -4.806   6.875  0.00  0.00    +0.020 C 
ATOM      8  C   UNL     1      -5.583  -3.783   7.428  0.00  0.00    +0.108 C 
ATOM      9  N   UNL     1      -5.315  -2.478   6.808  0.00  0.00    -0.297 N 
ATOM     10  C   UNL     1      -3.953  -1.931   6.873  0.00  0.00    +0.120 C 
ATOM     11  C   UNL     1      -6.300  -1.797   6.189  0.00  0.00    +0.249 C 
ATOM     12  O   UNL     1      -6.046  -0.765   5.599  0.00  0.00    -0.270 OA
BRANCH  11  13
ATOM     13  C   UNL     1      -7.686  -2.305   6.228  0.00  0.00    +0.072 A 
ATOM     14  C   UNL     1      -8.286  -2.614   7.450  0.00  0.00    +0.016 A 
ATOM     15  C   UNL     1      -9.581  -3.087   7.479  0.00  0.00    +0.001 A 
ATOM     16  C   UNL     1     -10.287  -3.256   6.301  0.00  0.00    +0.003 A 
ATOM     17  C   UNL     1      -9.702  -2.954   5.086  0.00  0.00    +0.039 A 
ATOM     18  C   UNL     1      -8.406  -2.472   5.041  0.00  0.00    +0.135 A 
ATOM     19  F   UNL     1      -7.836  -2.171   3.854  0.00  0.00    -0.205 F 
ENDBRANCH  11  13
ENDBRANCH   2   5
BRANCH   1  25
ATOM     20  C   UNL     1       0.592   0.040   4.928  0.00  0.00    +0.093 C 
ATOM     21  C   UNL     1       2.026   0.538   5.114  0.00  0.00    +0.024 C 
ATOM     22  C   UNL     1       2.125   1.335   6.417  0.00  0.00    +0.002 C 
ATOM     23  C   UNL     1       1.740   0.437   7.594  0.00  0.00    +0.002 C 
ATOM     24  C   UNL     1       0.306  -0.061   7.408  0.00  0.00    +0.024 C 
ATOM     25  C   UNL     1       0.207  -0.858   6.106  0.00  0.00    +0.093 C 
BRANCH  20  28
ATOM     26  C   UNL     1       0.289  -0.083   2.514  0.00  0.00    +0.245 C 
ATOM     27  O   UNL     1       0.179   1.128   2.496  0.00  0.00    -0.270 OA
ATOM     28  N   UNL     1       0.497  -0.723   3.681  0.00  0.00    -0.307 N 
ATOM     29  H   UNL     1       0.585  -1.689   3.696  0.00  0.00    +0.149 HD
BRANCH  26  36
ATOM     30  C   UNL     1       0.012   1.318  -0.003  0.00  0.00    +0.044 C 
ATOM     31  C   UNL     1       0.060  -0.188   0.035  0.00  0.00    -0.038 A 
ATOM     32  C   UNL     1      -0.023  -0.912  -1.136  0.00  0.00    +0.004 A 
ATOM     33  C   UNL     1       0.021  -2.294  -1.103  0.00  0.00    +0.000 A 
ATOM     34  C   UNL     1       0.147  -2.960   0.104  0.00  0.00    +0.001 A 
ATOM     35  C   UNL     1       0.231  -2.248   1.282  0.00  0.00    +0.013 A 
ATOM     36  C   UNL     1       0.193  -0.852   1.255  0.00  0.00    +0.040 A 
ENDBRANCH  26  36
ENDBRANCH  20  28
ENDBRANCH   1  25
TORSDOF 5
