REMARK  Name = ZINC09238284
REMARK  5 active torsions:
REMARK  status: ('A' for Active; 'I' for Inactive)
REMARK    1  A    between atoms: C_4  and  C_7
REMARK    2  A    between atoms: C_13  and  C_31
REMARK    3  A    between atoms: C_15  and  C_18
REMARK    4  A    between atoms: N_20  and  C_21
REMARK    5  A    between atoms: C_26  and  C_27
REMARK                            x       y       z     vdW  Elec       q    Type
REMARK                         _______ _______ _______ _____ _____    ______ ____
ROOT
ATOM      1  C   UNL     1       3.700   2.157  -0.002  0.00  0.00    +0.182 A 
ATOM      2  N   UNL     1       4.898   1.685   0.264  0.00  0.00    -0.127 NA
ATOM      3  N   UNL     1       5.774   2.623   0.162  0.00  0.00    -0.121 NA
ATOM      4  C   UNL     1       5.184   3.743  -0.162  0.00  0.00    +0.210 A 
ATOM      5  N   UNL     1       3.847   3.492  -0.287  0.00  0.00    -0.221 N 
ATOM      6  N   UNL     1       2.877   4.378  -0.630  0.00  0.00    -0.272 N 
ATOM      7  C   UNL     1       3.241   5.774  -0.385  0.00  0.00    +0.140 C 
ATOM      8  C   UNL     1       4.496   6.149  -1.183  0.00  0.00    +0.166 C 
ATOM      9  S   UNL     1       5.919   5.330  -0.402  0.00  0.00    -0.069 S 
ATOM     10  H   UNL     1       2.585   4.243  -1.586  0.00  0.00    +0.167 HD
ENDROOT
BRANCH   1  14
ATOM     11  C   UNL     1       0.060  -0.032   0.032  0.00  0.00    +0.000 A 
ATOM     12  C   UNL     1       0.032   1.351   0.035  0.00  0.00    +0.001 A 
ATOM     13  C   UNL     1       1.210   2.068   0.024  0.00  0.00    +0.011 A 
ATOM     14  C   UNL     1       2.433   1.395   0.010  0.00  0.00    +0.021 A 
ATOM     15  C   UNL     1       2.454  -0.001   0.007  0.00  0.00    +0.011 A 
ATOM     16  C   UNL     1       1.268  -0.706   0.018  0.00  0.00    +0.001 A 
ENDBRANCH   1  14
BRANCH   7  17
ATOM     17  C   UNL     1       2.099   6.664  -0.804  0.00  0.00    -0.024 A 
ATOM     18  C   UNL     1       1.405   6.395  -1.969  0.00  0.00    +0.005 A 
ATOM     19  C   UNL     1       0.355   7.208  -2.352  0.00  0.00    +0.000 A 
ATOM     20  C   UNL     1       0.005   8.296  -1.574  0.00  0.00    +0.000 A 
ATOM     21  C   UNL     1       0.702   8.569  -0.412  0.00  0.00    +0.000 A 
ATOM     22  C   UNL     1       1.749   7.753  -0.027  0.00  0.00    +0.005 A 
ENDBRANCH   7  17
BRANCH   8  23
ATOM     23  C   UNL     1       4.691   7.643  -1.159  0.00  0.00    +0.233 C 
ATOM     24  O   UNL     1       4.367   8.281  -0.178  0.00  0.00    -0.274 OA
ATOM     25  N   UNL     1       5.224   8.271  -2.225  0.00  0.00    -0.284 N 
ATOM     26  H   UNL     1       5.542   7.756  -2.982  0.00  0.00    +0.155 HD
BRANCH  25  27
ATOM     27  C   UNL     1       5.318   9.667  -2.240  0.00  0.00    +0.045 A 
ATOM     28  C   UNL     1       5.572  10.361  -1.064  0.00  0.00    +0.024 A 
ATOM     29  C   UNL     1       5.664  11.738  -1.082  0.00  0.00    +0.002 A 
ATOM     30  C   UNL     1       5.503  12.428  -2.270  0.00  0.00    +0.001 A 
ATOM     31  C   UNL     1       5.250  11.741  -3.443  0.00  0.00    +0.014 A 
ATOM     32  C   UNL     1       5.163  10.362  -3.432  0.00  0.00    +0.076 A 
BRANCH  32  33
ATOM     33  C   UNL     1       4.893   9.614  -4.712  0.00  0.00    +0.419 C 
ATOM     34  F   UNL     1       4.776  10.523  -5.769  0.00  0.00    -0.166 F 
ATOM     35  F   UNL     1       5.951   8.734  -4.969  0.00  0.00    -0.166 F 
ATOM     36  F   UNL     1       3.704   8.889  -4.587  0.00  0.00    -0.166 F 
ENDBRANCH  32  33
ENDBRANCH  25  27
ENDBRANCH   8  23
TORSDOF 5
