REMARK  Name = ZINC63477697
REMARK  9 active torsions:
REMARK  status: ('A' for Active; 'I' for Inactive)
REMARK    1  A    between atoms: C_1  and  C_2
REMARK    2  A    between atoms: N_10  and  N_11
REMARK    3  A    between atoms: C_12  and  C_14
REMARK    4  A    between atoms: C_17  and  S_19
REMARK    5  A    between atoms: S_19  and  N_22
REMARK    6  A    between atoms: N_22  and  C_23
REMARK    7  A    between atoms: C_23  and  C_24
REMARK    8  A    between atoms: C_23  and  C_25
REMARK    9  A    between atoms: C_23  and  C_26
REMARK                            x       y       z     vdW  Elec       q    Type
REMARK                         _______ _______ _______ _____ _____    ______ ____
ROOT
ATOM      1  N   UNL     1      -0.169  -0.343   2.468  0.00  0.00    -0.215 N 
ATOM      2  C   UNL     1      -0.806   0.800   2.791  0.00  0.00    +0.297 C 
ATOM      3  O   UNL     1      -1.341   1.465   1.924  0.00  0.00    -0.265 OA
ATOM      4  H   UNL     1       0.194  -0.910   3.166  0.00  0.00    +0.176 HD
ENDROOT
BRANCH   1  14
ATOM      5  C   UNL     1       2.309  -1.696   1.298  0.00  0.00    +0.088 C 
ATOM      6  C   UNL     1       1.052  -1.313   0.560  0.00  0.00    +0.125 A 
ATOM      7  N   UNL     1       0.842  -1.516  -0.708  0.00  0.00    -0.231 NA
ATOM      8  C   UNL     1      -0.389  -1.052  -1.046  0.00  0.00    +0.091 A 
ATOM      9  C   UNL     1      -1.109  -1.013  -2.243  0.00  0.00    +0.030 A 
ATOM     10  C   UNL     1      -2.360  -0.465  -2.268  0.00  0.00    +0.002 A 
ATOM     11  C   UNL     1      -2.927   0.055  -1.113  0.00  0.00    +0.002 A 
ATOM     12  C   UNL     1      -2.236   0.028   0.079  0.00  0.00    +0.030 A 
ATOM     13  C   UNL     1      -0.963  -0.525   0.123  0.00  0.00    +0.089 A 
ATOM     14  N   UNL     1      -0.029  -0.710   1.123  0.00  0.00    -0.243 N 
ENDBRANCH   1  14
BRANCH   2  15
ATOM     15  C   UNL     1      -0.854   1.242   4.189  0.00  0.00    +0.193 A 
ATOM     16  C   UNL     1      -1.468   2.370   4.652  0.00  0.00    +0.057 A 
ATOM     17  C   UNL     1      -1.266   2.398   6.041  0.00  0.00    +0.072 A 
ATOM     18  C   UNL     1      -0.547   1.299   6.360  0.00  0.00    +0.258 A 
ATOM     19  O   UNL     1      -0.306   0.602   5.242  0.00  0.00    -0.432 OA
BRANCH  18  20
ATOM     20  S   UNL     1      -0.020   0.852   7.981  0.00  0.00    +0.092 S 
ATOM     21  O   UNL     1       1.012  -0.112   7.822  0.00  0.00    -0.150 OA
ATOM     22  O   UNL     1       0.175   2.066   8.694  0.00  0.00    -0.150 OA
BRANCH  20  23
ATOM     23  N   UNL     1      -1.287   0.074   8.711  0.00  0.00    -0.182 NA
ATOM     24  H   UNL     1      -1.743   0.488   9.460  0.00  0.00    +0.149 HD
BRANCH  23  25
ATOM     25  C   UNL     1      -1.718  -1.239   8.225  0.00  0.00    +0.032 C 
ATOM     26  C   UNL     1      -0.620  -2.270   8.499  0.00  0.00    +0.029 C 
ATOM     27  C   UNL     1      -3.000  -1.655   8.948  0.00  0.00    +0.029 C 
ATOM     28  C   UNL     1      -1.982  -1.164   6.720  0.00  0.00    +0.029 C 
ENDBRANCH  23  25
ENDBRANCH  20  23
ENDBRANCH  18  20
ENDBRANCH   2  15
TORSDOF 5
