REMARK  Name = ZINC44830936
REMARK  5 active torsions:
REMARK  status: ('A' for Active; 'I' for Inactive)
REMARK    1  A    between atoms: C_1  and  C_2
REMARK    2  A    between atoms: C_20  and  O_41
REMARK    3  A    between atoms: C_24  and  C_40
REMARK    4  A    between atoms: C_28  and  C_33
REMARK    5  A    between atoms: C_33  and  C_34
REMARK                            x       y       z     vdW  Elec       q    Type
REMARK                         _______ _______ _______ _____ _____    ______ ____
ROOT
ATOM      1  C   UNL     1      -0.019   1.523   0.010  0.00  0.00    +0.008 C 
ATOM      2  C   UNL     1       0.002  -0.004   0.002  0.00  0.00    -0.010 C 
ATOM      3  C   UNL     1      -1.425  -0.554   0.020  0.00  0.00    +0.004 C 
ATOM      4  C   UNL     1      -2.098  -0.327  -1.334  0.00  0.00    +0.008 C 
ATOM      5  C   UNL     1      -3.596  -0.092  -1.131  0.00  0.00    +0.079 C 
ATOM      6  C   UNL     1      -3.814   0.780   0.082  0.00  0.00    +0.156 C 
ATOM      7  O   UNL     1      -3.218   1.830   0.201  0.00  0.00    -0.293 OA
ATOM      8  C   UNL     1      -4.771   0.345   1.111  0.00  0.00    +0.053 C 
ATOM      9  C   UNL     1      -4.787   0.854   2.337  0.00  0.00    +0.095 C 
ATOM     10  C   UNL     1      -3.878   1.838   2.897  0.00  0.00    +0.333 C 
ATOM     11  O   UNL     1      -4.306   2.929   3.179  0.00  0.00    -0.246 OA
ATOM     12  O   UNL     1      -2.571   1.631   3.149  0.00  0.00    -0.444 OA
ATOM     13  C   UNL     1      -2.269   1.201   4.484  0.00  0.00    +0.202 C 
ATOM     14  C   UNL     1      -0.853   0.686   4.528  0.00  0.00    +0.097 C 
ATOM     15  C   UNL     1      -0.504  -0.096   3.298  0.00  0.00    -0.020 C 
ATOM     16  C   UNL     1       0.388   0.325   2.440  0.00  0.00    -0.030 C 
ATOM     17  C   UNL     1       0.745  -0.513   1.238  0.00  0.00    +0.030 C 
ATOM     18  C   UNL     1       0.157   1.808   4.761  0.00  0.00    +0.151 C 
ATOM     19  C   UNL     1      -0.160   2.414   6.106  0.00  0.00    -0.045 C 
ATOM     20  C   UNL     1       0.805   2.668   6.960  0.00  0.00    +0.010 C 
ATOM     21  C   UNL     1      -1.595   2.726   6.474  0.00  0.00    +0.023 C 
ATOM     22  C   UNL     1      -2.580   2.406   5.375  0.00  0.00    +0.070 C 
ATOM     23  C   UNL     1      -3.974   2.081   5.861  0.00  0.00    +0.085 C 
ATOM     24  N   UNL     1      -4.216   0.652   5.649  0.00  0.00    -0.308 N 
ATOM     25  C   UNL     1      -3.289   0.148   4.831  0.00  0.00    +0.258 C 
ATOM     26  O   UNL     1      -3.263  -0.998   4.426  0.00  0.00    -0.271 OA
ATOM     27  C   UNL     1      -1.649   4.231   6.783  0.00  0.00    +0.012 C 
ATOM     28  H   UNL     1      -4.945   0.150   6.042  0.00  0.00    +0.149 HD
ENDROOT
BRANCH  18  29
ATOM     29  O   UNL     1       1.483   1.267   4.793  0.00  0.00    -0.387 OA
ATOM     30  H   UNL     1       2.174   1.928   4.938  0.00  0.00    +0.210 HD
ENDBRANCH  18  29
BRANCH  23  31
ATOM     31  C   UNL     1      -4.246   2.438   7.315  0.00  0.00    +0.057 C 
BRANCH  31  32
ATOM     32  C   UNL     1      -5.696   2.178   7.634  0.00  0.00    -0.046 A 
ATOM     33  C   UNL     1      -6.634   3.177   7.449  0.00  0.00    +0.004 A 
ATOM     34  C   UNL     1      -7.964   2.939   7.741  0.00  0.00    +0.000 A 
ATOM     35  C   UNL     1      -8.356   1.702   8.218  0.00  0.00    +0.000 A 
ATOM     36  C   UNL     1      -7.418   0.703   8.402  0.00  0.00    +0.000 A 
ATOM     37  C   UNL     1      -6.089   0.940   8.105  0.00  0.00    +0.004 A 
ENDBRANCH  31  32
ENDBRANCH  23  31
TORSDOF 3
