REMARK  Name = ZINC60034001
REMARK  10 active torsions:
REMARK  status: ('A' for Active; 'I' for Inactive)
REMARK    1  A    between atoms: C_1  and  C_2
REMARK    2  A    between atoms: C_2  and  C_3
REMARK    3  A    between atoms: C_2  and  C_4
REMARK    4  A    between atoms: C_2  and  N_5
REMARK    5  A    between atoms: N_5  and  S_6
REMARK    6  A    between atoms: S_6  and  C_9
REMARK    7  A    between atoms: C_14  and  N_15
REMARK    8  A    between atoms: C_16  and  C_18
REMARK    9  A    between atoms: C_21  and  N_24
REMARK   10  A    between atoms: C_25  and  C_27
REMARK                            x       y       z     vdW  Elec       q    Type
REMARK                         _______ _______ _______ _____ _____    ______ ____
ROOT
ATOM      1  N   UNL     1       1.657   0.897   1.849  0.00  0.00    -0.280 N 
ATOM      2  C   UNL     1       1.154   0.964   3.098  0.00  0.00    +0.248 C 
ATOM      3  O   UNL     1       1.513   0.165   3.942  0.00  0.00    -0.270 OA
ATOM      4  H   UNL     1       1.416   1.569   1.193  0.00  0.00    +0.155 HD
ENDROOT
BRANCH   1  10
ATOM      5  C   UNL     1       2.618  -0.558   0.179  0.00  0.00    +0.126 A 
ATOM      6  C   UNL     1       3.481  -1.581  -0.163  0.00  0.00    +0.030 A 
ATOM      7  C   UNL     1       4.249  -2.193   0.810  0.00  0.00    +0.002 A 
ATOM      8  C   UNL     1       4.156  -1.785   2.128  0.00  0.00    +0.002 A 
ATOM      9  C   UNL     1       3.295  -0.763   2.476  0.00  0.00    +0.025 A 
ATOM     10  C   UNL     1       2.526  -0.142   1.501  0.00  0.00    +0.060 A 
BRANCH   5  11
ATOM     11  S   UNL     1       1.639   0.221  -1.061  0.00  0.00    +0.061 S 
ATOM     12  O   UNL     1       0.300   0.213  -0.586  0.00  0.00    -0.153 OA
ATOM     13  O   UNL     1       2.011  -0.365  -2.301  0.00  0.00    -0.153 OA
BRANCH  11  14
ATOM     14  N   UNL     1       2.108   1.808  -1.129  0.00  0.00    -0.185 NA
ATOM     15  H   UNL     1       1.488   2.509  -0.872  0.00  0.00    +0.149 HD
BRANCH  14  17
ATOM     16  C   UNL     1       3.636   1.730  -3.037  0.00  0.00    +0.029 C 
ATOM     17  C   UNL     1       3.459   2.154  -1.577  0.00  0.00    +0.032 C 
ATOM     18  C   UNL     1       4.487   1.429  -0.707  0.00  0.00    +0.029 C 
ATOM     19  C   UNL     1       3.664   3.666  -1.457  0.00  0.00    +0.029 C 
ENDBRANCH  14  17
ENDBRANCH  11  14
ENDBRANCH   5  11
ENDBRANCH   1  10
BRANCH   2  20
ATOM     20  C   UNL     1       0.168   2.007   3.441  0.00  0.00    +0.037 A 
ATOM     21  C   UNL     1      -0.330   2.854   2.447  0.00  0.00    +0.015 A 
ATOM     22  C   UNL     1      -1.250   3.826   2.770  0.00  0.00    +0.024 A 
ATOM     23  C   UNL     1      -1.682   3.967   4.085  0.00  0.00    +0.034 A 
ATOM     24  C   UNL     1      -1.188   3.125   5.078  0.00  0.00    +0.024 A 
ATOM     25  C   UNL     1      -0.273   2.147   4.760  0.00  0.00    +0.015 A 
BRANCH  23  26
ATOM     26  N   UNL     1      -2.612   4.952   4.410  0.00  0.00    -0.281 N 
ATOM     27  C   UNL     1      -3.578   5.283   3.530  0.00  0.00    +0.255 C 
ATOM     28  O   UNL     1      -3.691   4.663   2.488  0.00  0.00    -0.269 OA
ATOM     29  H   UNL     1      -2.565   5.400   5.269  0.00  0.00    +0.155 HD
BRANCH  27  30
ATOM     30  C   UNL     1      -4.492   6.389   3.826  0.00  0.00    +0.074 A 
ATOM     31  C   UNL     1      -5.543   6.882   3.068  0.00  0.00    +0.021 A 
ATOM     32  C   UNL     1      -6.229   7.940   3.614  0.00  0.00    +0.008 A 
ATOM     33  C   UNL     1      -5.844   8.421   4.823  0.00  0.00    +0.046 A 
ATOM     34  S   UNL     1      -4.546   7.449   5.259  0.00  0.00    -0.092 S 
ENDBRANCH  27  30
ENDBRANCH  23  26
ENDBRANCH   2  20
TORSDOF 7
