REMARK  Name = ZINC33779184
REMARK  6 active torsions:
REMARK  status: ('A' for Active; 'I' for Inactive)
REMARK    1  A    between atoms: C_4  and  C_7
REMARK    2  A    between atoms: C_8  and  C_9
REMARK    3  A    between atoms: C_17  and  C_18
REMARK    4  A    between atoms: C_21  and  C_23
REMARK    5  A    between atoms: C_26  and  S_29
REMARK    6  A    between atoms: S_29  and  N_32
REMARK                            x       y       z     vdW  Elec       q    Type
REMARK                         _______ _______ _______ _____ _____    ______ ____
ROOT
ATOM      1  C   UNL     1       7.475  -3.076  -0.084  0.00  0.00    +0.176 A 
ATOM      2  N   UNL     1       6.812  -1.907  -0.072  0.00  0.00    -0.201 NA
ATOM      3  C   UNL     1       5.532  -2.139  -0.061  0.00  0.00    +0.200 A 
ATOM      4  N   UNL     1       5.306  -3.490  -0.066  0.00  0.00    -0.169 N 
ATOM      5  N   UNL     1       6.607  -4.062  -0.081  0.00  0.00    -0.142 NA
ATOM      6  C   UNL     1       4.039  -3.923  -0.050  0.00  0.00    +0.288 A 
ATOM      7  O   UNL     1       3.795  -5.116  -0.048  0.00  0.00    -0.265 OA
ATOM      8  C   UNL     1       2.984  -2.972  -0.042  0.00  0.00    +0.085 A 
ATOM      9  C   UNL     1       1.623  -3.177  -0.030  0.00  0.00    +0.067 C 
ATOM     10  S   UNL     1       3.899  -1.437  -0.043  0.00  0.00    -0.044 S 
ENDROOT
BRANCH   9  11
ATOM     11  C   UNL     1       0.744  -2.075  -0.016  0.00  0.00    +0.130 A 
ATOM     12  C   UNL     1      -0.639  -2.139  -0.003  0.00  0.00    +0.050 A 
ATOM     13  C   UNL     1      -1.105  -0.823   0.008  0.00  0.00    +0.050 A 
ATOM     14  C   UNL     1       0.002  -0.004   0.002  0.00  0.00    +0.136 A 
ATOM     15  O   UNL     1       1.105  -0.774  -0.018  0.00  0.00    -0.455 OA
BRANCH  14  16
ATOM     16  C   UNL     1      -0.018   1.471   0.010  0.00  0.00    +0.017 A 
ATOM     17  C   UNL     1      -1.235   2.157   0.020  0.00  0.00    +0.013 A 
ATOM     18  C   UNL     1      -1.246   3.536   0.032  0.00  0.00    +0.029 A 
ATOM     19  C   UNL     1      -0.056   4.241   0.024  0.00  0.00    +0.105 A 
ATOM     20  C   UNL     1       1.154   3.569   0.010  0.00  0.00    +0.029 A 
ATOM     21  C   UNL     1       1.181   2.190   0.003  0.00  0.00    +0.013 A 
BRANCH  19  22
ATOM     22  S   UNL     1      -0.079   6.003   0.034  0.00  0.00    +0.056 S 
ATOM     23  O   UNL     1      -1.325   6.389   0.598  0.00  0.00    -0.153 OA
ATOM     24  O   UNL     1       1.165   6.423   0.575  0.00  0.00    -0.153 OA
BRANCH  22  25
ATOM     25  N   UNL     1      -0.101   6.500  -1.546  0.00  0.00    -0.204 NA
ATOM     26  H   UNL     1      -0.116   7.599  -1.584  0.00  0.00    +0.144 HD
ATOM     27  H   UNL     1      -0.998   6.104  -2.043  0.00  0.00    +0.144 HD
ENDBRANCH  22  25
ENDBRANCH  19  22
ENDBRANCH  14  16
ENDBRANCH   9  11
BRANCH   1  29
ATOM     28  C   UNL     1       9.729  -2.140  -0.102  0.00  0.00    +0.011 C 
ATOM     29  C   UNL     1       8.941  -3.228  -0.099  0.00  0.00    +0.050 C 
BRANCH  28  33
ATOM     30  C   UNL     1      13.949  -2.577  -0.143  0.00  0.00    +0.000 A 
ATOM     31  C   UNL     1      13.388  -1.312  -0.132  0.00  0.00    +0.001 A 
ATOM     32  C   UNL     1      12.017  -1.163  -0.119  0.00  0.00    +0.008 A 
ATOM     33  C   UNL     1      11.194  -2.292  -0.116  0.00  0.00    -0.025 A 
ATOM     34  C   UNL     1      11.768  -3.566  -0.122  0.00  0.00    +0.008 A 
ATOM     35  C   UNL     1      13.141  -3.700  -0.140  0.00  0.00    +0.001 A 
ENDBRANCH  28  33
ENDBRANCH   1  29
TORSDOF 6
