REMARK  Name = ZINC59812819
REMARK  7 active torsions:
REMARK  status: ('A' for Active; 'I' for Inactive)
REMARK    1  A    between atoms: C_1  and  C_2
REMARK    2  A    between atoms: C_2  and  C_4
REMARK    3  A    between atoms: C_2  and  N_20
REMARK    4  A    between atoms: C_7  and  N_10
REMARK    5  A    between atoms: C_11  and  C_13
REMARK    6  A    between atoms: C_21  and  C_23
REMARK    7  A    between atoms: C_26  and  N_29
REMARK                            x       y       z     vdW  Elec       q    Type
REMARK                         _______ _______ _______ _____ _____    ______ ____
ROOT
ATOM      1  C   UNL     1       0.171   0.953  -0.341  0.00  0.00    +0.033 C 
ATOM      2  C   UNL     1      -0.263  -0.437   0.127  0.00  0.00    +0.100 C 
ENDROOT
BRANCH   2   3
ATOM      3  C   UNL     1       0.066  -1.452  -0.938  0.00  0.00    -0.027 A 
ATOM      4  C   UNL     1       1.356  -1.937  -1.052  0.00  0.00    +0.007 A 
ATOM      5  C   UNL     1       1.662  -2.867  -2.027  0.00  0.00    +0.023 A 
ATOM      6  C   UNL     1       0.672  -3.314  -2.892  0.00  0.00    +0.034 A 
ATOM      7  C   UNL     1      -0.623  -2.825  -2.774  0.00  0.00    +0.023 A 
ATOM      8  C   UNL     1      -0.923  -1.900  -1.794  0.00  0.00    +0.007 A 
BRANCH   6   9
ATOM      9  N   UNL     1       0.978  -4.255  -3.880  0.00  0.00    -0.282 N 
ATOM     10  C   UNL     1       1.938  -5.176  -3.660  0.00  0.00    +0.248 C 
ATOM     11  O   UNL     1       2.468  -5.252  -2.569  0.00  0.00    -0.270 OA
ATOM     12  H   UNL     1       0.499  -4.246  -4.724  0.00  0.00    +0.155 HD
BRANCH  10  13
ATOM     13  C   UNL     1       2.345  -6.092  -4.745  0.00  0.00    +0.037 A 
ATOM     14  C   UNL     1       1.741  -6.003  -6.001  0.00  0.00    +0.016 A 
ATOM     15  C   UNL     1       2.125  -6.860  -7.010  0.00  0.00    +0.039 A 
ATOM     16  C   UNL     1       3.109  -7.810  -6.779  0.00  0.00    +0.123 A 
ATOM     17  C   UNL     1       3.712  -7.902  -5.534  0.00  0.00    +0.039 A 
ATOM     18  C   UNL     1       3.339  -7.046  -4.519  0.00  0.00    +0.016 A 
ATOM     19  F   UNL     1       3.481  -8.648  -7.771  0.00  0.00    -0.205 F 
ENDBRANCH  10  13
ENDBRANCH   6   9
ENDBRANCH   2   3
BRANCH   2  20
ATOM     20  N   UNL     1       0.444  -0.779   1.363  0.00  0.00    -0.305 N 
ATOM     21  C   UNL     1      -0.041  -0.369   2.552  0.00  0.00    +0.245 C 
ATOM     22  O   UNL     1      -1.065   0.285   2.599  0.00  0.00    -0.270 OA
ATOM     23  H   UNL     1       1.260  -1.301   1.326  0.00  0.00    +0.150 HD
BRANCH  21  24
ATOM     24  C   UNL     1       0.672  -0.714   3.798  0.00  0.00    +0.037 A 
ATOM     25  C   UNL     1       1.852  -1.461   3.746  0.00  0.00    +0.015 A 
ATOM     26  C   UNL     1       2.514  -1.780   4.910  0.00  0.00    +0.024 A 
ATOM     27  C   UNL     1       2.010  -1.361   6.137  0.00  0.00    +0.036 A 
ATOM     28  C   UNL     1       0.835  -0.617   6.192  0.00  0.00    +0.024 A 
ATOM     29  C   UNL     1       0.171  -0.290   5.032  0.00  0.00    +0.015 A 
BRANCH  27  30
ATOM     30  N   UNL     1       2.682  -1.687   7.314  0.00  0.00    -0.271 N 
ATOM     31  C   UNL     1       2.364  -2.958   7.953  0.00  0.00    +0.113 C 
ATOM     32  C   UNL     1       3.479  -3.367   8.916  0.00  0.00    +0.020 C 
ATOM     33  C   UNL     1       3.784  -2.186   9.845  0.00  0.00    +0.011 C 
ATOM     34  C   UNL     1       4.406  -1.062   9.012  0.00  0.00    +0.096 C 
ATOM     35  C   UNL     1       3.580  -0.819   7.782  0.00  0.00    +0.220 C 
ATOM     36  O   UNL     1       3.735   0.224   7.184  0.00  0.00    -0.275 OA
ENDBRANCH  27  30
ENDBRANCH  21  24
ENDBRANCH   2  20
TORSDOF 6
