REMARK  Name = ZINC09459701
REMARK  7 active torsions:
REMARK  status: ('A' for Active; 'I' for Inactive)
REMARK    1  A    between atoms: C_1  and  C_2
REMARK    2  A    between atoms: C_7  and  N_8
REMARK    3  A    between atoms: C_9  and  C_11
REMARK    4  A    between atoms: C_11  and  S_12
REMARK    5  A    between atoms: S_12  and  C_13
REMARK    6  A    between atoms: C_16  and  C_19
REMARK    7  A    between atoms: N_17  and  N_18
REMARK                            x       y       z     vdW  Elec       q    Type
REMARK                         _______ _______ _______ _____ _____    ______ ____
ROOT
ATOM      1  C   UNL     1      -6.427   2.045  -0.501  0.00  0.00    +0.209 A 
ATOM      2  N   UNL     1      -6.371   3.345  -0.315  0.00  0.00    -0.121 NA
ATOM      3  N   UNL     1      -7.553   3.848  -0.351  0.00  0.00    -0.127 NA
ATOM      4  C   UNL     1      -8.437   2.900  -0.555  0.00  0.00    +0.182 A 
ATOM      5  N   UNL     1      -7.744   1.716  -0.657  0.00  0.00    -0.224 N 
ENDROOT
BRANCH   4   6
ATOM      6  C   UNL     1      -9.902   3.071  -0.656  0.00  0.00    +0.021 A 
ATOM      7  C   UNL     1     -10.445   4.337  -0.884  0.00  0.00    +0.014 A 
ATOM      8  C   UNL     1     -11.812   4.491  -0.981  0.00  0.00    +0.039 A 
ATOM      9  C   UNL     1     -12.647   3.393  -0.842  0.00  0.00    +0.123 A 
ATOM     10  C   UNL     1     -12.114   2.136  -0.610  0.00  0.00    +0.039 A 
ATOM     11  C   UNL     1     -10.748   1.970  -0.516  0.00  0.00    +0.014 A 
ATOM     12  F   UNL     1     -13.986   3.551  -0.933  0.00  0.00    -0.205 F 
ENDBRANCH   4   6
BRANCH   5  13
ATOM     13  N   UNL     1      -8.263   0.471  -0.871  0.00  0.00    -0.295 N 
ATOM     14  H   UNL     1      -8.564   0.051  -0.004  0.00  0.00    +0.163 HD
ATOM     15  H   UNL     1      -9.020   0.504  -1.538  0.00  0.00    +0.163 HD
ENDBRANCH   5  13
BRANCH   1  16
ATOM     16  S   UNL     1      -5.061   0.934  -0.536  0.00  0.00    -0.075 S 
BRANCH  16  17
ATOM     17  C   UNL     1      -3.702   2.098  -0.263  0.00  0.00    +0.173 C 
BRANCH  17  19
ATOM     18  N   UNL     1      -1.238   2.016  -0.065  0.00  0.00    -0.285 N 
ATOM     19  C   UNL     1      -2.394   1.350  -0.254  0.00  0.00    +0.227 C 
ATOM     20  O   UNL     1      -2.381   0.148  -0.415  0.00  0.00    -0.275 OA
ATOM     21  H   UNL     1      -1.252   2.965   0.136  0.00  0.00    +0.155 HD
BRANCH  18  28
ATOM     22  C   UNL     1       1.003   3.427  -1.106  0.00  0.00    +0.046 C 
ATOM     23  C   UNL     1       1.102   1.990  -0.665  0.00  0.00    -0.028 A 
ATOM     24  C   UNL     1       2.305   1.318  -0.763  0.00  0.00    +0.020 A 
ATOM     25  C   UNL     1       2.396  -0.002  -0.359  0.00  0.00    +0.018 A 
ATOM     26  C   UNL     1       1.283  -0.653   0.145  0.00  0.00    +0.017 A 
ATOM     27  C   UNL     1       0.078   0.014   0.245  0.00  0.00    +0.024 A 
ATOM     28  C   UNL     1      -0.016   1.339  -0.160  0.00  0.00    +0.036 A 
ATOM     29 BR   UNL     1       4.045  -0.919  -0.494  0.00  0.00    -0.050 Br
ENDBRANCH  18  28
ENDBRANCH  17  19
ENDBRANCH  16  17
ENDBRANCH   1  16
TORSDOF 6
