REMARK  Name = ZINC14368213
REMARK  10 active torsions:
REMARK  status: ('A' for Active; 'I' for Inactive)
REMARK    1  A    between atoms: C_1  and  C_2
REMARK    2  A    between atoms: C_6  and  O_9
REMARK    3  A    between atoms: C_7  and  C_8
REMARK    4  A    between atoms: O_9  and  C_10
REMARK    5  A    between atoms: C_10  and  C_12
REMARK    6  A    between atoms: C_10  and  C_13
REMARK    7  A    between atoms: N_15  and  N_16
REMARK    8  A    between atoms: C_17  and  C_19
REMARK    9  A    between atoms: C_25  and  C_27
REMARK   10  A    between atoms: C_30  and  C_33
REMARK                            x       y       z     vdW  Elec       q    Type
REMARK                         _______ _______ _______ _____ _____    ______ ____
ROOT
ATOM      1  N   UNL     1       0.224   1.238  -2.282  0.00  0.00    -0.234 N 
ATOM      2  C   UNL     1      -0.942   1.901  -2.150  0.00  0.00    +0.232 C 
ATOM      3  O   UNL     1      -1.083   2.989  -2.668  0.00  0.00    -0.274 OA
ATOM      4  H   UNL     1       0.337   0.368  -1.868  0.00  0.00    +0.173 HD
ENDROOT
BRANCH   2   5
ATOM      5  C   UNL     1      -2.071   1.291  -1.360  0.00  0.00    +0.079 C 
ATOM      6  C   UNL     1      -2.472  -0.044  -1.991  0.00  0.00    +0.032 C 
ATOM      7  C   UNL     1      -3.596  -0.677  -1.165  0.00  0.00    +0.109 C 
ATOM      8  N   UNL     1      -4.697   0.289  -1.045  0.00  0.00    -0.297 N 
ATOM      9  C   UNL     1      -4.403   1.634  -0.534  0.00  0.00    +0.109 C 
ATOM     10  C   UNL     1      -3.270   2.242  -1.367  0.00  0.00    +0.032 C 
ATOM     11  C   UNL     1      -5.952  -0.054  -1.397  0.00  0.00    +0.247 C 
ATOM     12  O   UNL     1      -6.189  -1.181  -1.785  0.00  0.00    -0.270 OA
BRANCH  11  13
ATOM     13  C   UNL     1      -7.042   0.942  -1.310  0.00  0.00    +0.037 A 
ATOM     14  C   UNL     1      -7.021   1.919  -0.313  0.00  0.00    +0.013 A 
ATOM     15  C   UNL     1      -8.038   2.848  -0.240  0.00  0.00    +0.013 A 
ATOM     16  C   UNL     1      -9.083   2.806  -1.147  0.00  0.00    +0.055 A 
ATOM     17  C   UNL     1      -9.112   1.838  -2.134  0.00  0.00    +0.013 A 
ATOM     18  C   UNL     1      -8.098   0.906  -2.221  0.00  0.00    +0.013 A 
BRANCH  16  19
ATOM     19  C   UNL     1     -10.193   3.821  -1.058  0.00  0.00    +0.417 C 
ATOM     20  F   UNL     1     -11.205   3.333  -0.224  0.00  0.00    -0.166 F 
ATOM     21  F   UNL     1      -9.692   5.016  -0.532  0.00  0.00    -0.166 F 
ATOM     22  F   UNL     1     -10.714   4.056  -2.335  0.00  0.00    -0.166 F 
ENDBRANCH  16  19
ENDBRANCH  11  13
ENDBRANCH   2   5
BRANCH   1  25
ATOM     23  C   UNL     1       2.435   1.137  -3.158  0.00  0.00    +0.270 C 
ATOM     24  O   UNL     1       2.576   0.050  -2.640  0.00  0.00    -0.270 OA
ATOM     25  N   UNL     1       1.271   1.803  -3.022  0.00  0.00    -0.231 N 
ATOM     26  H   UNL     1       1.159   2.673  -3.436  0.00  0.00    +0.173 HD
BRANCH  23  27
ATOM     27  C   UNL     1       3.562   1.744  -3.954  0.00  0.00    +0.257 C 
ATOM     28  C   UNL     1       4.053   3.014  -3.255  0.00  0.00    +0.062 C 
BRANCH  27  29
ATOM     29  O   UNL     1       4.636   0.807  -4.050  0.00  0.00    -0.480 OA
BRANCH  29  35
ATOM     30  C   UNL     1       8.185  -1.119  -6.792  0.00  0.00    +0.044 C 
ATOM     31  C   UNL     1       7.135  -0.067  -6.546  0.00  0.00    -0.044 A 
ATOM     32  C   UNL     1       6.943   0.947  -7.467  0.00  0.00    +0.004 A 
ATOM     33  C   UNL     1       5.981   1.914  -7.244  0.00  0.00    +0.004 A 
ATOM     34  C   UNL     1       5.202   1.865  -6.104  0.00  0.00    +0.046 A 
ATOM     35  C   UNL     1       5.396   0.853  -5.176  0.00  0.00    +0.125 A 
ATOM     36  C   UNL     1       6.363  -0.116  -5.401  0.00  0.00    -0.006 A 
ATOM     37  C   UNL     1       6.572  -1.221  -4.398  0.00  0.00    +0.048 C 
ENDBRANCH  29  35
ENDBRANCH  27  29
ENDBRANCH  23  27
ENDBRANCH   1  25
TORSDOF 7
