REMARK  Name = ZINC38743417
REMARK  7 active torsions:
REMARK  status: ('A' for Active; 'I' for Inactive)
REMARK    1  A    between atoms: C_1  and  O_2
REMARK    2  A    between atoms: O_2  and  C_3
REMARK    3  A    between atoms: C_6  and  C_9
REMARK    4  A    between atoms: C_11  and  C_15
REMARK    5  A    between atoms: C_23  and  C_25
REMARK    6  A    between atoms: C_25  and  O_26
REMARK    7  A    between atoms: O_26  and  C_27
REMARK                            x       y       z     vdW  Elec       q    Type
REMARK                         _______ _______ _______ _____ _____    ______ ____
ROOT
ATOM      1  C   UNL     1      -7.097  -4.886  -1.204  0.00  0.00    +0.206 C 
ATOM      2  N   UNL     1      -6.779  -4.098  -2.419  0.00  0.00    -0.231 NA
ATOM      3  N   UNL     1      -8.068  -3.713  -3.019  0.00  0.00    -0.224 NA
ATOM      4  C   UNL     1      -8.992  -3.755  -1.869  0.00  0.00    +0.240 C 
ATOM      5  N   UNL     1      -8.570  -5.032  -1.200  0.00  0.00    -0.206 N 
ATOM      6  N   UNL     1      -9.617  -5.881  -0.916  0.00  0.00    -0.175 NA
ATOM      7  C   UNL     1     -10.800  -5.740  -1.415  0.00  0.00    +0.132 C 
ATOM      8  S   UNL     1     -10.692  -4.202  -2.383  0.00  0.00    -0.064 S 
ATOM      9  H   UNL     1      -6.230  -3.284  -2.188  0.00  0.00    +0.143 HD
ATOM     10  H   UNL     1      -8.346  -4.372  -3.731  0.00  0.00    +0.144 HD
ENDROOT
BRANCH   1  13
ATOM     11  C   UNL     1      -4.963  -2.620   0.035  0.00  0.00    +0.091 C 
ATOM     12  C   UNL     1      -5.128  -3.957   0.039  0.00  0.00    +0.034 C 
ATOM     13  C   UNL     1      -6.635  -4.138   0.048  0.00  0.00    +0.190 C 
ATOM     14  N   UNL     1      -7.139  -2.755   0.047  0.00  0.00    -0.176 NA
ATOM     15  N   UNL     1      -6.170  -1.994   0.045  0.00  0.00    -0.154 NA
BRANCH  11  19
ATOM     16  C   UNL     1      -1.200  -0.637   0.010  0.00  0.00    +0.120 A 
ATOM     17  C   UNL     1      -2.374   0.104   0.019  0.00  0.00    +0.046 A 
ATOM     18  C   UNL     1      -3.595  -0.536   0.027  0.00  0.00    +0.013 A 
ATOM     19  C   UNL     1      -3.651  -1.928   0.026  0.00  0.00    +0.002 A 
ATOM     20  C   UNL     1      -2.471  -2.670   0.016  0.00  0.00    +0.013 A 
ATOM     21  C   UNL     1      -1.252  -2.025   0.003  0.00  0.00    +0.046 A 
BRANCH  16  23
ATOM     22  C   UNL     1      -0.017   1.425   0.010  0.00  0.00    +0.277 C 
ATOM     23  O   UNL     1       0.002  -0.004   0.002  0.00  0.00    -0.495 OA
ENDBRANCH  16  23
ENDBRANCH  11  19
ENDBRANCH   1  13
BRANCH   7  24
ATOM     24  C   UNL     1     -11.999  -6.636  -1.230  0.00  0.00    +0.293 C 
BRANCH  24  25
ATOM     25  O   UNL     1     -11.649  -7.730  -0.380  0.00  0.00    -0.485 OA
BRANCH  25  26
ATOM     26  C   UNL     1     -12.624  -8.638  -0.110  0.00  0.00    +0.121 A 
ATOM     27  C   UNL     1     -13.890  -8.481  -0.656  0.00  0.00    +0.047 A 
ATOM     28  C   UNL     1     -14.879  -9.404  -0.381  0.00  0.00    +0.019 A 
ATOM     29  C   UNL     1     -14.609 -10.485   0.439  0.00  0.00    +0.018 A 
ATOM     30  C   UNL     1     -13.348 -10.643   0.985  0.00  0.00    +0.019 A 
ATOM     31  C   UNL     1     -12.354  -9.726   0.707  0.00  0.00    +0.047 A 
ATOM     32 BR   UNL     1     -15.966 -11.748   0.815  0.00  0.00    -0.050 Br
ENDBRANCH  25  26
ENDBRANCH  24  25
ENDBRANCH   7  24
TORSDOF 6
