REMARK  Name = ZINC13544014
REMARK  6 active torsions:
REMARK  status: ('A' for Active; 'I' for Inactive)
REMARK    1  A    between atoms: C_4  and  N_7
REMARK    2  A    between atoms: C_8  and  C_13
REMARK    3  A    between atoms: C_13  and  N_14
REMARK    4  A    between atoms: C_15  and  C_17
REMARK    5  A    between atoms: C_20  and  S_23
REMARK    6  A    between atoms: S_23  and  N_26
REMARK                            x       y       z     vdW  Elec       q    Type
REMARK                         _______ _______ _______ _____ _____    ______ ____
ROOT
ATOM      1  N   UNL     1       3.818  -0.764  -3.346  0.00  0.00    -0.304 N 
ATOM      2  C   UNL     1       3.328  -0.844  -4.599  0.00  0.00    +0.244 C 
ATOM      3  O   UNL     1       2.566  -1.743  -4.898  0.00  0.00    -0.270 OA
ATOM      4  H   UNL     1       4.426  -0.047  -3.108  0.00  0.00    +0.149 HD
ENDROOT
BRANCH   2   5
ATOM      5  C   UNL     1       3.716   0.163  -5.610  0.00  0.00    +0.037 A 
ATOM      6  C   UNL     1       4.594   1.193  -5.272  0.00  0.00    +0.015 A 
ATOM      7  C   UNL     1       4.952   2.129  -6.220  0.00  0.00    +0.029 A 
ATOM      8  C   UNL     1       4.442   2.048  -7.504  0.00  0.00    +0.106 A 
ATOM      9  C   UNL     1       3.571   1.030  -7.845  0.00  0.00    +0.029 A 
ATOM     10  C   UNL     1       3.209   0.084  -6.908  0.00  0.00    +0.015 A 
BRANCH   8  11
ATOM     11  S   UNL     1       4.905   3.248  -8.708  0.00  0.00    +0.061 S 
ATOM     12  O   UNL     1       3.868   3.268  -9.680  0.00  0.00    -0.153 OA
ATOM     13  O   UNL     1       5.301   4.410  -7.993  0.00  0.00    -0.153 OA
BRANCH  11  14
ATOM     14  N   UNL     1       6.258   2.678  -9.473  0.00  0.00    -0.177 NA
ATOM     15  C   UNL     1       7.598   2.994  -8.959  0.00  0.00    +0.109 C 
ATOM     16  C   UNL     1       8.372   1.687  -8.761  0.00  0.00    +0.017 C 
ATOM     17  C   UNL     1       8.372   0.896 -10.072  0.00  0.00    +0.003 C 
ATOM     18  C   UNL     1       6.933   0.551 -10.461  0.00  0.00    +0.017 C 
ATOM     19  C   UNL     1       6.143   1.841 -10.675  0.00  0.00    +0.109 C 
ENDBRANCH  11  14
ENDBRANCH   8  11
ENDBRANCH   2   5
BRANCH   1  20
ATOM     20  C   UNL     1       3.434  -1.762  -2.345  0.00  0.00    +0.181 C 
BRANCH  20  22
ATOM     21  N   UNL     1       3.624  -0.653  -0.036  0.00  0.00    -0.272 N 
ATOM     22  C   UNL     1       4.115  -1.449  -1.037  0.00  0.00    +0.156 A 
ATOM     23  N   UNL     1       5.279  -1.886  -0.648  0.00  0.00    -0.131 NA
ATOM     24  N   UNL     1       5.558  -1.426   0.519  0.00  0.00    -0.121 NA
ATOM     25  C   UNL     1       4.580  -0.658   0.942  0.00  0.00    +0.207 A 
ATOM     26  S   UNL     1       4.512   0.200   2.479  0.00  0.00    -0.009 SA
BRANCH  21  30
ATOM     27  C   UNL     1      -0.017   1.379   0.010  0.00  0.00    +0.000 A 
ATOM     28  C   UNL     1       1.170   2.089   0.002  0.00  0.00    +0.002 A 
ATOM     29  C   UNL     1       2.377   1.419  -0.013  0.00  0.00    +0.026 A 
ATOM     30  C   UNL     1       2.399   0.031  -0.021  0.00  0.00    +0.050 A 
ATOM     31  C   UNL     1       1.207  -0.680  -0.013  0.00  0.00    +0.026 A 
ATOM     32  C   UNL     1       0.002  -0.004   0.002  0.00  0.00    +0.002 A 
ENDBRANCH  21  30
ENDBRANCH  20  22
ENDBRANCH   1  20
TORSDOF 6
