REMARK  Name = ZINC39637507
REMARK  8 active torsions:
REMARK  status: ('A' for Active; 'I' for Inactive)
REMARK    1  A    between atoms: C_1  and  C_2
REMARK    2  A    between atoms: C_2  and  O_3
REMARK    3  A    between atoms: O_3  and  C_4
REMARK    4  A    between atoms: C_8  and  C_10
REMARK    5  A    between atoms: C_14  and  C_23
REMARK    6  A    between atoms: N_25  and  C_26
REMARK    7  A    between atoms: C_31  and  C_36
REMARK    8  A    between atoms: C_33  and  C_35
REMARK                            x       y       z     vdW  Elec       q    Type
REMARK                         _______ _______ _______ _____ _____    ______ ____
ROOT
ATOM      1  C   UNL     1       2.257  -4.303   3.724  0.00  0.00    +0.247 C 
ATOM      2  O   UNL     1       2.827  -3.569   4.508  0.00  0.00    -0.270 OA
ATOM      3  N   UNL     1       2.273  -5.637   3.917  0.00  0.00    -0.296 N 
ATOM      4  C   UNL     1       1.753  -6.691   3.015  0.00  0.00    +0.121 C 
ATOM      5  C   UNL     1       2.792  -7.831   3.107  0.00  0.00    +0.100 C 
ATOM      6  C   UNL     1       3.485  -7.622   4.465  0.00  0.00    -0.004 C 
ATOM      7  C   UNL     1       2.821  -6.381   5.077  0.00  0.00    +0.115 C 
ATOM      8  C   UNL     1       4.976  -7.371   4.264  0.00  0.00    -0.010 C 
ATOM      9  C   UNL     1       5.652  -7.224   5.630  0.00  0.00    -0.082 C 
ATOM     10  N   UNL     1       5.442  -8.446   6.416  0.00  0.00    +0.379 N 
ATOM     11  C   UNL     1       4.011  -8.630   6.683  0.00  0.00    -0.082 C 
ATOM     12  C   UNL     1       3.265  -8.837   5.362  0.00  0.00    -0.010 C 
ATOM     13  H   UNL     1       5.792  -9.239   5.901  0.00  0.00    -0.086 HD
ATOM     14  H   UNL     1       5.939  -8.371   7.291  0.00  0.00    -0.086 HD
ENDROOT
BRANCH   1  19
ATOM     15  C   UNL     1      -0.158  -3.899   0.872  0.00  0.00    +0.121 A 
ATOM     16  C   UNL     1       0.219  -2.659   0.375  0.00  0.00    +0.046 A 
ATOM     17  C   UNL     1       1.254  -1.957   0.967  0.00  0.00    +0.004 A 
ATOM     18  C   UNL     1       1.919  -2.486   2.054  0.00  0.00    +0.013 A 
ATOM     19  C   UNL     1       1.546  -3.733   2.560  0.00  0.00    +0.040 A 
ATOM     20  C   UNL     1       0.498  -4.436   1.966  0.00  0.00    +0.058 A 
BRANCH  15  21
ATOM     21  O   UNL     1      -1.176  -4.584   0.286  0.00  0.00    -0.492 OA
BRANCH  21  23
ATOM     22  C   UNL     1      -2.921  -4.883  -1.359  0.00  0.00    +0.048 C 
ATOM     23  C   UNL     1      -1.808  -3.971  -0.839  0.00  0.00    +0.225 C 
ENDBRANCH  21  23
ENDBRANCH  15  21
ENDBRANCH   1  19
BRANCH   5  24
ATOM     24  C   UNL     1       2.106  -9.172   3.066  0.00  0.00    +0.218 C 
ATOM     25  O   UNL     1       0.952  -9.273   3.423  0.00  0.00    -0.275 OA
ATOM     26  N   UNL     1       2.775 -10.258   2.631  0.00  0.00    -0.312 N 
ATOM     27  H   UNL     1       3.698 -10.177   2.345  0.00  0.00    +0.149 HD
BRANCH  26  28
ATOM     28  C   UNL     1       2.107 -11.562   2.591  0.00  0.00    +0.076 C 
ATOM     29  C   UNL     1       1.331 -11.697   1.280  0.00  0.00    +0.022 C 
ATOM     30  C   UNL     1       0.634 -13.058   1.238  0.00  0.00    +0.002 C 
ATOM     31  C   UNL     1       1.681 -14.170   1.327  0.00  0.00    +0.003 C 
ATOM     32  C   UNL     1       2.458 -14.035   2.639  0.00  0.00    -0.009 C 
ATOM     33  C   UNL     1       3.155 -12.674   2.681  0.00  0.00    +0.009 C 
ATOM     34  C   UNL     1       3.931 -12.539   3.992  0.00  0.00    +0.009 C 
ATOM     35  C   UNL     1       1.490 -14.149   3.818  0.00  0.00    +0.008 C 
ENDBRANCH  26  28
ENDBRANCH   5  24
TORSDOF 5
