REMARK  Name = ZINC38507000
REMARK  14 active torsions:
REMARK  status: ('A' for Active; 'I' for Inactive)
REMARK    1  A    between atoms: C_1  and  C_2
REMARK    2  A    between atoms: C_2  and  O_3
REMARK    3  A    between atoms: O_3  and  C_4
REMARK    4  A    between atoms: C_4  and  C_6
REMARK    5  A    between atoms: C_10  and  N_11
REMARK    6  A    between atoms: C_12  and  C_14
REMARK    7  A    between atoms: C_16  and  C_22
REMARK    8  A    between atoms: N_18  and  C_19
REMARK    9  A    between atoms: C_19  and  C_20
REMARK   10  A    between atoms: C_19  and  C_21
REMARK   11  A    between atoms: C_23  and  C_29
REMARK   12  A    between atoms: C_23  and  C_30
REMARK   13  A    between atoms: C_25  and  C_27
REMARK   14  A    between atoms: C_25  and  C_28
REMARK                            x       y       z     vdW  Elec       q    Type
REMARK                         _______ _______ _______ _____ _____    ______ ____
ROOT
ATOM      1  C   UNL     1      -2.846  -2.412   0.017  0.00  0.00    +0.091 A 
ATOM      2  C   UNL     1      -3.564  -2.704  -1.204  0.00  0.00    -0.024 A 
ATOM      3  C   UNL     1      -4.798  -3.228  -1.020  0.00  0.00    -0.016 A 
ATOM      4  S   UNL     1      -4.975  -3.332   0.736  0.00  0.00    -0.079 S 
ATOM      5  C   UNL     1      -3.494  -2.700   1.212  0.00  0.00    +0.087 A 
ATOM      6  C   UNL     1      -5.767  -3.610  -2.089  0.00  0.00    -0.041 C 
ATOM      7  N   UNL     1      -5.179  -3.525  -3.425  0.00  0.00    +0.389 N 
ATOM      8  C   UNL     1      -3.725  -3.566  -3.501  0.00  0.00    -0.069 C 
ATOM      9  C   UNL     1      -3.071  -2.489  -2.627  0.00  0.00    +0.024 C 
ATOM     10  C   UNL     1      -3.188  -4.942  -3.102  0.00  0.00    -0.010 C 
ATOM     11  C   UNL     1      -3.310  -3.302  -4.961  0.00  0.00    -0.010 C 
ATOM     12  C   UNL     1      -6.288  -5.030  -1.825  0.00  0.00    -0.005 C 
ATOM     13  C   UNL     1      -6.968  -2.647  -2.017  0.00  0.00    -0.005 C 
ATOM     14  H   UNL     1      -5.557  -4.283  -3.996  0.00  0.00    -0.084 HD
ATOM     15  H   UNL     1      -5.502  -2.661  -3.866  0.00  0.00    -0.084 HD
ENDROOT
BRANCH   5  16
ATOM     16  N   UNL     1      -3.023  -2.509   2.501  0.00  0.00    -0.274 N 
ATOM     17  C   UNL     1      -3.791  -2.848   3.555  0.00  0.00    +0.267 C 
ATOM     18  O   UNL     1      -4.931  -3.233   3.379  0.00  0.00    -0.268 OA
ATOM     19  H   UNL     1      -2.142  -2.132   2.644  0.00  0.00    +0.156 HD
BRANCH  17  20
ATOM     20  C   UNL     1      -3.250  -2.753   4.920  0.00  0.00    +0.124 A 
ATOM     21  C   UNL     1      -2.018  -2.243   5.291  0.00  0.00    +0.057 A 
ATOM     22  C   UNL     1      -1.968  -2.370   6.681  0.00  0.00    +0.061 A 
ATOM     23  N   UNL     1      -3.092  -2.914   7.075  0.00  0.00    -0.176 NA
ATOM     24  N   UNL     1      -3.864  -3.145   6.075  0.00  0.00    -0.256 N 
ATOM     25  C   UNL     1      -0.825  -1.954   7.570  0.00  0.00    +0.067 C 
BRANCH  24  26
ATOM     26  C   UNL     1      -5.200  -3.741   6.160  0.00  0.00    +0.102 C 
ATOM     27  C   UNL     1      -5.115  -5.077   6.903  0.00  0.00    +0.032 C 
ATOM     28  C   UNL     1      -6.134  -2.795   6.917  0.00  0.00    +0.032 C 
ENDBRANCH  24  26
ENDBRANCH  17  20
ENDBRANCH   5  16
BRANCH   1  29
ATOM     29  C   UNL     1      -1.500  -1.836   0.006  0.00  0.00    +0.342 C 
ATOM     30  O   UNL     1      -0.526  -2.565  -0.007  0.00  0.00    -0.245 OA
BRANCH  29  31
ATOM     31  O   UNL     1      -1.339  -0.496   0.011  0.00  0.00    -0.461 OA
BRANCH  31  33
ATOM     32  C   UNL     1      -0.016   1.526   0.008  0.00  0.00    +0.048 C 
ATOM     33  C   UNL     1       0.002  -0.004   0.001  0.00  0.00    +0.229 C 
ENDBRANCH  31  33
ENDBRANCH  29  31
ENDBRANCH   1  29
TORSDOF 6
