REMARK  Name = ZINC59265090
REMARK  7 active torsions:
REMARK  status: ('A' for Active; 'I' for Inactive)
REMARK    1  A    between atoms: C_6  and  C_7
REMARK    2  A    between atoms: C_10  and  S_13
REMARK    3  A    between atoms: N_11  and  N_12
REMARK    4  A    between atoms: S_13  and  C_14
REMARK    5  A    between atoms: C_14  and  C_15
REMARK    6  A    between atoms: C_15  and  C_16
REMARK    7  A    between atoms: N_18  and  C_19
REMARK                            x       y       z     vdW  Elec       q    Type
REMARK                         _______ _______ _______ _____ _____    ______ ____
ROOT
ATOM      1  C   UNL     1      -1.266  -0.763   0.005  0.00  0.00    +0.182 A 
ATOM      2  N   UNL     1      -2.457  -0.291   0.295  0.00  0.00    -0.127 NA
ATOM      3  N   UNL     1      -3.333  -1.226   0.204  0.00  0.00    -0.121 NA
ATOM      4  C   UNL     1      -2.757  -2.353  -0.149  0.00  0.00    +0.209 A 
ATOM      5  N   UNL     1      -1.423  -2.097  -0.294  0.00  0.00    -0.224 N 
ENDROOT
BRANCH   1  11
ATOM      6  C   UNL     1      -0.017   1.392   0.012  0.00  0.00    +0.013 A 
ATOM      7  C   UNL     1       1.169   2.095   0.003  0.00  0.00    +0.016 A 
ATOM      8  C   UNL     1       2.378   1.419  -0.022  0.00  0.00    +0.018 A 
ATOM      9  C   UNL     1       2.403   0.035  -0.038  0.00  0.00    +0.016 A 
ATOM     10  C   UNL     1       1.223  -0.679  -0.029  0.00  0.00    +0.013 A 
ATOM     11  C   UNL     1       0.002  -0.004  -0.004  0.00  0.00    +0.021 A 
ATOM     12 BR   UNL     1       4.000   2.391  -0.035  0.00  0.00    -0.050 Br
ENDBRANCH   1  11
BRANCH   5  13
ATOM     13  N   UNL     1      -0.447  -2.982  -0.657  0.00  0.00    -0.295 N 
ATOM     14  H   UNL     1      -0.051  -3.435   0.153  0.00  0.00    +0.163 HD
ATOM     15  H   UNL     1      -0.801  -3.660  -1.315  0.00  0.00    +0.163 HD
ENDBRANCH   5  13
BRANCH   4  16
ATOM     16  S   UNL     1      -3.556  -3.904  -0.397  0.00  0.00    -0.084 S 
BRANCH  16  17
ATOM     17  C   UNL     1      -5.303  -3.556  -0.054  0.00  0.00    +0.086 C 
BRANCH  17  18
ATOM     18  C   UNL     1      -6.122  -4.836  -0.234  0.00  0.00    +0.107 C 
BRANCH  18  19
ATOM     19  C   UNL     1      -7.574  -4.547   0.051  0.00  0.00    +0.218 C 
ATOM     20  O   UNL     1      -7.919  -3.428   0.367  0.00  0.00    -0.275 OA
ATOM     21  N   UNL     1      -8.489  -5.532  -0.046  0.00  0.00    -0.285 N 
ATOM     22  H   UNL     1      -8.224  -6.410  -0.363  0.00  0.00    +0.155 HD
BRANCH  21  23
ATOM     23  C   UNL     1      -9.819  -5.289   0.312  0.00  0.00    +0.033 A 
ATOM     24  C   UNL     1     -10.571  -6.288   0.917  0.00  0.00    +0.024 A 
ATOM     25  C   UNL     1     -11.884  -6.046   1.270  0.00  0.00    +0.017 A 
ATOM     26  C   UNL     1     -12.451  -4.808   1.020  0.00  0.00    +0.018 A 
ATOM     27  C   UNL     1     -11.705  -3.811   0.418  0.00  0.00    +0.017 A 
ATOM     28  C   UNL     1     -10.390  -4.047   0.068  0.00  0.00    +0.024 A 
ATOM     29 BR   UNL     1     -14.249  -4.480   1.504  0.00  0.00    -0.050 Br
ENDBRANCH  21  23
ENDBRANCH  18  19
ENDBRANCH  17  18
ENDBRANCH  16  17
ENDBRANCH   4  16
TORSDOF 7
