REMARK  Name = ZINC01003180
REMARK  10 active torsions:
REMARK  status: ('A' for Active; 'I' for Inactive)
REMARK    1  A    between atoms: C_1  and  C_2
REMARK    2  A    between atoms: C_2  and  C_32
REMARK    3  A    between atoms: C_6  and  C_14
REMARK    4  A    between atoms: C_8  and  C_12
REMARK    5  A    between atoms: C_9  and  N_11
REMARK    6  A    between atoms: C_17  and  C_19
REMARK    7  A    between atoms: C_19  and  O_20
REMARK    8  A    between atoms: O_20  and  C_21
REMARK    9  A    between atoms: C_24  and  O_27
REMARK   10  A    between atoms: O_27  and  C_28
REMARK                            x       y       z     vdW  Elec       q    Type
REMARK                         _______ _______ _______ _____ _____    ______ ____
ROOT
ATOM      1  C   UNL     1      -3.479   4.649  -2.685  0.00  0.00    +0.012 C 
ATOM      2  C   UNL     1      -4.184   3.465  -3.350  0.00  0.00    -0.021 C 
ATOM      3  C   UNL     1      -5.203   2.863  -2.381  0.00  0.00    +0.081 C 
ATOM      4  C   UNL     1      -4.495   2.363  -1.143  0.00  0.00    +0.115 C 
ATOM      5  C   UNL     1      -3.235   1.898  -1.215  0.00  0.00    +0.049 C 
ATOM      6  C   UNL     1      -2.533   1.387   0.021  0.00  0.00    +0.137 C 
ATOM      7  C   UNL     1      -3.225   1.896   1.254  0.00  0.00    +0.101 C 
ATOM      8  C   UNL     1      -4.493   2.369   1.183  0.00  0.00    +0.198 C 
ATOM      9  O   UNL     1      -5.167   2.392   0.023  0.00  0.00    -0.445 OA
ATOM     10  C   UNL     1      -2.531   1.874  -2.434  0.00  0.00    +0.164 C 
ATOM     11  O   UNL     1      -1.400   1.431  -2.462  0.00  0.00    -0.292 OA
ATOM     12  C   UNL     1      -3.155   2.386  -3.704  0.00  0.00    +0.086 C 
ATOM     13  C   UNL     1      -4.893   3.937  -4.621  0.00  0.00    +0.012 C 
ENDROOT
BRANCH   6  14
ATOM     14  C   UNL     1      -1.103   1.863   0.017  0.00  0.00    +0.118 A 
ATOM     15  C   UNL     1      -0.013   1.076   0.008  0.00  0.00    +0.046 A 
ATOM     16  C   UNL     1       1.111   1.934   0.002  0.00  0.00    +0.048 A 
ATOM     17  C   UNL     1       0.640   3.193   0.012  0.00  0.00    +0.142 A 
ATOM     18  O   UNL     1      -0.702   3.144   0.024  0.00  0.00    -0.460 OA
BRANCH  17  19
ATOM     19  C   UNL     1       1.476   4.447   0.010  0.00  0.00    +0.303 C 
BRANCH  19  20
ATOM     20  O   UNL     1       1.727   4.850  -1.338  0.00  0.00    -0.484 OA
BRANCH  20  21
ATOM     21  C   UNL     1       2.473   5.973  -1.518  0.00  0.00    +0.121 A 
ATOM     22  C   UNL     1       2.948   6.673  -0.419  0.00  0.00    +0.049 A 
ATOM     23  C   UNL     1       3.709   7.811  -0.602  0.00  0.00    +0.049 A 
ATOM     24  C   UNL     1       3.992   8.258  -1.884  0.00  0.00    +0.120 A 
ATOM     25  C   UNL     1       3.513   7.560  -2.983  0.00  0.00    +0.049 A 
ATOM     26  C   UNL     1       2.755   6.420  -2.800  0.00  0.00    +0.049 A 
BRANCH  24  27
ATOM     27  O   UNL     1       4.739   9.380  -2.064  0.00  0.00    -0.495 OA
ATOM     28  C   UNL     1       5.199  10.049  -0.888  0.00  0.00    +0.277 C 
ENDBRANCH  24  27
ENDBRANCH  20  21
ENDBRANCH  19  20
ENDBRANCH  17  19
ENDBRANCH   6  14
BRANCH   8  29
ATOM     29  N   UNL     1      -5.101   2.834   2.323  0.00  0.00    -0.328 N 
ATOM     30  H   UNL     1      -4.624   2.822   3.167  0.00  0.00    +0.145 HD
ATOM     31  H   UNL     1      -6.008   3.175   2.284  0.00  0.00    +0.145 HD
ENDBRANCH   8  29
BRANCH   7  32
ATOM     32  C   UNL     1      -2.540   1.881   2.512  0.00  0.00    +0.101 C 
ATOM     33  N   UNL     1      -1.997   1.869   3.510  0.00  0.00    -0.191 NA
ENDBRANCH   7  32
TORSDOF 7
