REMARK  Name = ZINC63152673
REMARK  11 active torsions:
REMARK  status: ('A' for Active; 'I' for Inactive)
REMARK    1  A    between atoms: C_1  and  O_2
REMARK    2  A    between atoms: O_2  and  C_3
REMARK    3  A    between atoms: C_3  and  C_5
REMARK    4  A    between atoms: C_9  and  N_11
REMARK    5  A    between atoms: C_12  and  C_14
REMARK    6  A    between atoms: C_14  and  C_16
REMARK    7  A    between atoms: C_14  and  N_26
REMARK    8  A    between atoms: C_16  and  C_17
REMARK    9  A    between atoms: C_27  and  O_29
REMARK   10  A    between atoms: O_29  and  C_30
REMARK   11  A    between atoms: C_30  and  C_31
REMARK                            x       y       z     vdW  Elec       q    Type
REMARK                         _______ _______ _______ _____ _____    ______ ____
ROOT
ATOM      1  C   UNL     1      -6.227  -4.809   0.228  0.00  0.00    +0.166 C 
ENDROOT
BRANCH   1   3
ATOM      2  N   UNL     1      -3.764  -4.803   0.002  0.00  0.00    -0.282 N 
ATOM      3  C   UNL     1      -4.905  -4.095   0.112  0.00  0.00    +0.238 C 
ATOM      4  O   UNL     1      -4.869  -2.882   0.119  0.00  0.00    -0.273 OA
ATOM      5  H   UNL     1      -3.798  -5.770  -0.069  0.00  0.00    +0.155 HD
BRANCH   2  10
ATOM      6  C   UNL     1      -1.180  -2.248  -0.627  0.00  0.00    +0.061 A 
ATOM      7  C   UNL     1      -0.069  -2.849  -0.030  0.00  0.00    +0.018 A 
ATOM      8  C   UNL     1      -0.193  -4.085   0.568  0.00  0.00    +0.041 A 
ATOM      9  C   UNL     1      -1.416  -4.734   0.580  0.00  0.00    +0.145 A 
ATOM     10  C   UNL     1      -2.529  -4.143  -0.012  0.00  0.00    +0.070 A 
ATOM     11  C   UNL     1      -2.415  -2.899  -0.610  0.00  0.00    +0.041 A 
ATOM     12  F   UNL     1      -1.530  -5.946   1.167  0.00  0.00    -0.204 F 
BRANCH   6  13
ATOM     13  C   UNL     1      -1.050  -0.924  -1.267  0.00  0.00    +0.339 C 
ATOM     14  O   UNL     1      -2.018  -0.400  -1.781  0.00  0.00    -0.245 OA
BRANCH  13  16
ATOM     15  C   UNL     1       0.196   0.981  -1.919  0.00  0.00    +0.280 C 
ATOM     16  O   UNL     1       0.142  -0.297  -1.282  0.00  0.00    -0.464 OA
ENDBRANCH  13  16
ENDBRANCH   6  13
ENDBRANCH   2  10
ENDBRANCH   1   3
BRANCH   1  17
ATOM     17  N   UNL     1      -7.307  -3.824   0.336  0.00  0.00    -0.269 N 
ATOM     18  C   UNL     1      -8.466  -4.159   0.935  0.00  0.00    +0.401 C 
ATOM     19  O   UNL     1      -8.617  -5.277   1.387  0.00  0.00    -0.226 OA
ATOM     20  H   UNL     1      -7.187  -2.932  -0.025  0.00  0.00    +0.153 HD
BRANCH  18  21
ATOM     21  O   UNL     1      -9.459  -3.254   1.034  0.00  0.00    -0.446 OA
BRANCH  21  22
ATOM     22  C   UNL     1     -10.660  -3.677   1.682  0.00  0.00    +0.269 C 
BRANCH  22  23
ATOM     23  C   UNL     1     -11.649  -2.539   1.698  0.00  0.00    -0.010 A 
ATOM     24  C   UNL     1     -11.660  -1.648   2.755  0.00  0.00    +0.007 A 
ATOM     25  C   UNL     1     -12.567  -0.605   2.770  0.00  0.00    +0.000 A 
ATOM     26  C   UNL     1     -13.462  -0.453   1.728  0.00  0.00    +0.000 A 
ATOM     27  C   UNL     1     -13.450  -1.343   0.670  0.00  0.00    +0.000 A 
ATOM     28  C   UNL     1     -12.541  -2.384   0.653  0.00  0.00    +0.007 A 
ENDBRANCH  22  23
ENDBRANCH  21  22
ENDBRANCH  18  21
ENDBRANCH   1  17
BRANCH   1  29
ATOM     29  C   UNL     1      -6.449  -5.676  -1.013  0.00  0.00    +0.065 C 
BRANCH  29  30
ATOM     30  C   UNL     1      -7.710  -6.484  -0.842  0.00  0.00    -0.039 C 
ATOM     31  C   UNL     1      -8.945  -6.167  -1.292  0.00  0.00    -0.001 A 
ATOM     32  C   UNL     1      -9.466  -5.020  -2.046  0.00  0.00    +0.010 A 
ATOM     33  C   UNL     1     -10.781  -4.982  -2.358  0.00  0.00    +0.001 A 
ATOM     34  C   UNL     1     -11.658  -6.008  -1.980  0.00  0.00    +0.002 A 
ATOM     35  C   UNL     1     -11.254  -7.094  -1.288  0.00  0.00    +0.026 A 
ATOM     36  C   UNL     1      -9.892  -7.238  -0.906  0.00  0.00    +0.043 A 
ATOM     37  N   UNL     1      -9.266  -8.180  -0.243  0.00  0.00    -0.380 N 
ATOM     38  C   UNL     1      -7.848  -7.815  -0.139  0.00  0.00    +0.144 C 
ATOM     39  H   UNL     1      -9.671  -8.985   0.115  0.00  0.00    +0.160 HD
ENDBRANCH  29  30
ENDBRANCH   1  29
TORSDOF 10
