REMARK  Name = ZINC20008221
REMARK  7 active torsions:
REMARK  status: ('A' for Active; 'I' for Inactive)
REMARK    1  A    between atoms: C_1  and  C_2
REMARK    2  A    between atoms: C_5  and  O_9
REMARK    3  A    between atoms: O_9  and  C_10
REMARK    4  A    between atoms: C_10  and  C_11
REMARK    5  A    between atoms: N_13  and  C_14
REMARK    6  A    between atoms: C_19  and  C_20
REMARK    7  A    between atoms: N_22  and  C_23
REMARK                            x       y       z     vdW  Elec       q    Type
REMARK                         _______ _______ _______ _____ _____    ______ ____
ROOT
ATOM      1  C   UNL     1       7.149  -3.062   4.080  0.00  0.00    +0.046 A 
ATOM      2  C   UNL     1       8.405  -3.129   4.667  0.00  0.00    +0.024 A 
ATOM      3  C   UNL     1       9.194  -1.999   4.744  0.00  0.00    +0.002 A 
ATOM      4  C   UNL     1       8.740  -0.791   4.237  0.00  0.00    +0.001 A 
ATOM      5  C   UNL     1       7.498  -0.707   3.647  0.00  0.00    +0.015 A 
ATOM      6  C   UNL     1       6.686  -1.841   3.567  0.00  0.00    +0.058 A 
ENDROOT
BRANCH   1   9
ATOM      7  C   UNL     1       6.491  -5.186   4.911  0.00  0.00    +0.255 C 
ATOM      8  O   UNL     1       7.241  -5.039   5.853  0.00  0.00    -0.272 OA
ATOM      9  N   UNL     1       6.352  -4.202   4.001  0.00  0.00    -0.282 N 
ATOM     10  H   UNL     1       5.608  -4.298   3.196  0.00  0.00    +0.155 HD
BRANCH   7  11
ATOM     11  C   UNL     1       5.716  -6.470   4.757  0.00  0.00    +0.324 C 
BRANCH  11  12
ATOM     12  O   UNL     1       6.033  -7.349   5.838  0.00  0.00    -0.482 OA
BRANCH  12  17
ATOM     13  C   UNL     1       3.470 -12.366   5.886  0.00  0.00    +0.044 C 
ATOM     14  C   UNL     1       4.156 -11.024   5.873  0.00  0.00    -0.049 A 
ATOM     15  C   UNL     1       3.894 -10.124   4.856  0.00  0.00    +0.007 A 
ATOM     16  C   UNL     1       4.521  -8.893   4.842  0.00  0.00    +0.047 A 
ATOM     17  C   UNL     1       5.414  -8.559   5.850  0.00  0.00    +0.135 A 
ATOM     18  C   UNL     1       5.679  -9.466   6.867  0.00  0.00    +0.060 A 
ATOM     19  C   UNL     1       5.046 -10.694   6.879  0.00  0.00    +0.022 A 
ATOM     20 BR   UNL     1       6.902  -9.018   8.239  0.00  0.00    -0.047 Br
ENDBRANCH  12  17
ENDBRANCH  11  12
ENDBRANCH   7  11
ENDBRANCH   1   9
BRANCH   6  21
ATOM     21  C   UNL     1       5.353  -1.757   2.941  0.00  0.00    +0.250 C 
ATOM     22  O   UNL     1       4.607  -2.717   2.968  0.00  0.00    -0.270 OA
ATOM     23  N   UNL     1       4.963  -0.616   2.339  0.00  0.00    -0.281 N 
ATOM     24  H   UNL     1       5.668   0.222   2.239  0.00  0.00    +0.155 HD
BRANCH  23  25
ATOM     25  C   UNL     1       3.659  -0.498   1.841  0.00  0.00    +0.037 A 
ATOM     26  C   UNL     1       3.417   0.257   0.701  0.00  0.00    +0.027 A 
ATOM     27  C   UNL     1       2.131   0.374   0.208  0.00  0.00    +0.051 A 
ATOM     28  C   UNL     1       1.081  -0.262   0.850  0.00  0.00    +0.166 A 
ATOM     29  C   UNL     1       1.320  -1.020   1.993  0.00  0.00    +0.168 A 
ATOM     30  C   UNL     1       2.609  -1.137   2.487  0.00  0.00    +0.072 A 
ATOM     31  O   UNL     1       0.135  -1.537   2.431  0.00  0.00    -0.453 OA
ATOM     32  C   UNL     1      -0.768  -1.425   1.315  0.00  0.00    +0.466 C 
ATOM     33  O   UNL     1      -0.256  -0.304   0.571  0.00  0.00    -0.453 OA
ENDBRANCH  23  25
ENDBRANCH   6  21
TORSDOF 6
