REMARK  Name = ZINC08455891
REMARK  8 active torsions:
REMARK  status: ('A' for Active; 'I' for Inactive)
REMARK    1  A    between atoms: C_1  and  C_2
REMARK    2  A    between atoms: C_2  and  O_3
REMARK    3  A    between atoms: O_3  and  C_4
REMARK    4  A    between atoms: C_4  and  C_6
REMARK    5  A    between atoms: C_7  and  C_24
REMARK    6  A    between atoms: C_10  and  N_11
REMARK    7  A    between atoms: C_12  and  C_14
REMARK    8  A    between atoms: C_20  and  C_22
REMARK                            x       y       z     vdW  Elec       q    Type
REMARK                         _______ _______ _______ _____ _____    ______ ____
ROOT
ATOM      1  C   UNL     1      -2.306   5.915   1.175  0.00  0.00    +0.095 A 
ATOM      2  C   UNL     1      -1.396   5.997   0.047  0.00  0.00    +0.006 A 
ATOM      3  C   UNL     1      -1.780   6.786  -0.991  0.00  0.00    +0.056 A 
ATOM      4  S   UNL     1      -3.363   7.410  -0.466  0.00  0.00    -0.080 S 
ATOM      5  C   UNL     1      -3.483   6.645   1.082  0.00  0.00    +0.086 A 
ENDROOT
BRANCH   2   6
ATOM      6  C   UNL     1      -0.111   5.263   0.031  0.00  0.00    -0.009 A 
ATOM      7  C   UNL     1       1.089   5.954   0.023  0.00  0.00    +0.009 A 
ATOM      8  C   UNL     1       2.300   5.271   0.008  0.00  0.00    +0.001 A 
ATOM      9  C   UNL     1       2.341   3.909   0.000  0.00  0.00    +0.008 A 
ATOM     10  C   UNL     1       1.147   3.168   0.008  0.00  0.00    -0.017 A 
ATOM     11  C   UNL     1      -0.096   3.847   0.024  0.00  0.00    -0.010 A 
ATOM     12  C   UNL     1      -1.286   3.107   0.030  0.00  0.00    +0.009 A 
ATOM     13  C   UNL     1      -1.234   1.746   0.017  0.00  0.00    +0.001 A 
ATOM     14  C   UNL     1      -0.013   1.076   0.008  0.00  0.00    +0.001 A 
ATOM     15  C   UNL     1       1.163   1.763   0.000  0.00  0.00    +0.008 A 
ENDBRANCH   2   6
BRANCH   5  16
ATOM     16  N   UNL     1      -4.509   6.739   2.008  0.00  0.00    -0.279 N 
ATOM     17  C   UNL     1      -5.587   7.505   1.744  0.00  0.00    +0.221 C 
ATOM     18  O   UNL     1      -5.658   8.110   0.696  0.00  0.00    -0.275 OA
ATOM     19  H   UNL     1      -4.452   6.255   2.846  0.00  0.00    +0.155 HD
BRANCH  17  20
ATOM     20  C   UNL     1      -6.703   7.607   2.752  0.00  0.00    +0.089 C 
ATOM     21  C   UNL     1      -7.289   6.217   3.006  0.00  0.00    +0.013 C 
ATOM     22  C   UNL     1      -8.423   6.321   4.029  0.00  0.00    +0.001 C 
ATOM     23  C   UNL     1      -9.515   7.245   3.487  0.00  0.00    +0.001 C 
ATOM     24  C   UNL     1      -8.929   8.635   3.232  0.00  0.00    +0.015 C 
ATOM     25  C   UNL     1      -7.796   8.531   2.210  0.00  0.00    +0.114 C 
BRANCH  25  26
ATOM     26  C   UNL     1      -7.218   9.900   1.959  0.00  0.00    +0.360 C 
ATOM     27  O   UNL     1      -6.051  10.115   2.190  0.00  0.00    -0.246 OA
ATOM     28  O   UNL     1      -7.999  10.880   1.479  0.00  0.00    -0.246 OA
ENDBRANCH  25  26
ENDBRANCH  17  20
ENDBRANCH   5  16
BRANCH   1  29
ATOM     29  C   UNL     1      -1.998   5.103   2.352  0.00  0.00    +0.342 C 
ATOM     30  O   UNL     1      -1.392   5.592   3.286  0.00  0.00    -0.245 OA
BRANCH  29  31
ATOM     31  O   UNL     1      -2.385   3.812   2.401  0.00  0.00    -0.461 OA
BRANCH  31  33
ATOM     32  C   UNL     1      -2.562   1.632   3.472  0.00  0.00    +0.048 C 
ATOM     33  C   UNL     1      -2.045   3.067   3.599  0.00  0.00    +0.229 C 
ENDBRANCH  31  33
ENDBRANCH  29  31
ENDBRANCH   1  29
TORSDOF 7
