REMARK  Name = ZINC12641843
REMARK  7 active torsions:
REMARK  status: ('A' for Active; 'I' for Inactive)
REMARK    1  A    between atoms: C_5  and  C_7
REMARK    2  A    between atoms: C_7  and  C_9
REMARK    3  A    between atoms: C_7  and  N_17
REMARK    4  A    between atoms: N_11  and  C_12
REMARK    5  A    between atoms: N_17  and  C_18
REMARK    6  A    between atoms: C_24  and  C_26
REMARK    7  A    between atoms: N_28  and  C_29
REMARK                            x       y       z     vdW  Elec       q    Type
REMARK                         _______ _______ _______ _____ _____    ______ ____
ROOT
ATOM      1  N   UNL     1       3.495   3.085  -0.408  0.00  0.00    -0.275 N 
ATOM      2  C   UNL     1       4.079   3.435  -1.572  0.00  0.00    +0.303 C 
ATOM      3  O   UNL     1       3.758   4.467  -2.125  0.00  0.00    -0.265 OA
ENDROOT
BRANCH   1   4
ATOM      4  C   UNL     1       3.962   1.902   0.318  0.00  0.00    +0.078 C 
ATOM      5  C   UNL     1       3.019   1.618   1.489  0.00  0.00    +0.022 C 
ATOM      6  C   UNL     1       3.506   0.382   2.248  0.00  0.00    +0.002 C 
ATOM      7  C   UNL     1       4.919   0.634   2.780  0.00  0.00    +0.000 C 
ATOM      8  C   UNL     1       5.861   0.918   1.609  0.00  0.00    +0.002 C 
ATOM      9  C   UNL     1       5.374   2.154   0.850  0.00  0.00    +0.022 C 
ENDBRANCH   1   4
BRANCH   2  10
ATOM     10  C   UNL     1       5.119   2.553  -2.180  0.00  0.00    +0.303 C 
ATOM     11  O   UNL     1       5.377   1.481  -1.674  0.00  0.00    -0.265 OA
ATOM     12  N   UNL     1       5.772   2.949  -3.291  0.00  0.00    -0.275 N 
ATOM     13  H   UNL     1       5.621   3.836  -3.653  0.00  0.00    +0.155 HD
BRANCH  12  14
ATOM     14  C   UNL     1       6.668   2.080  -3.922  0.00  0.00    +0.069 A 
ATOM     15  C   UNL     1       6.430   0.712  -3.918  0.00  0.00    +0.026 A 
ATOM     16  C   UNL     1       7.314  -0.143  -4.548  0.00  0.00    +0.002 A 
ATOM     17  C   UNL     1       8.440   0.360  -5.172  0.00  0.00    +0.003 A 
ATOM     18  C   UNL     1       8.685   1.721  -5.174  0.00  0.00    +0.040 A 
ATOM     19  C   UNL     1       7.802   2.584  -4.551  0.00  0.00    +0.144 A 
ATOM     20  F   UNL     1       8.040   3.913  -4.552  0.00  0.00    -0.204 F 
ENDBRANCH  12  14
ENDBRANCH   2  10
BRANCH   1  21
ATOM     21  C   UNL     1       2.394   3.888   0.130  0.00  0.00    +0.196 C 
BRANCH  21  26
ATOM     22  C   UNL     1      -0.624   2.200   1.644  0.00  0.00    +0.001 A 
ATOM     23  C   UNL     1      -1.069   1.427   0.587  0.00  0.00    +0.003 A 
ATOM     24  C   UNL     1      -0.399   1.457  -0.621  0.00  0.00    +0.039 A 
ATOM     25  C   UNL     1       0.724   2.252  -0.770  0.00  0.00    +0.129 A 
ATOM     26  C   UNL     1       1.172   3.022   0.290  0.00  0.00    +0.017 A 
ATOM     27  C   UNL     1       0.497   2.995   1.496  0.00  0.00    +0.009 A 
ATOM     28  F   UNL     1       1.384   2.278  -1.949  0.00  0.00    -0.205 F 
ENDBRANCH  21  26
BRANCH  21  29
ATOM     29  C   UNL     1       2.791   4.450   1.470  0.00  0.00    +0.238 C 
ATOM     30  O   UNL     1       3.880   4.192   1.938  0.00  0.00    -0.273 OA
ATOM     31  N   UNL     1       1.936   5.240   2.150  0.00  0.00    -0.311 N 
ATOM     32  H   UNL     1       1.066   5.447   1.776  0.00  0.00    +0.149 HD
BRANCH  31  33
ATOM     33  C   UNL     1       2.322   5.787   3.453  0.00  0.00    +0.073 C 
ATOM     34  C   UNL     1       1.952   4.793   4.573  0.00  0.00    +0.022 C 
ATOM     35  C   UNL     1       1.488   5.695   5.744  0.00  0.00    +0.002 C 
ATOM     36  C   UNL     1       0.718   6.826   5.018  0.00  0.00    +0.002 C 
ATOM     37  C   UNL     1       1.537   7.080   3.736  0.00  0.00    +0.022 C 
ENDBRANCH  31  33
ENDBRANCH  21  29
ENDBRANCH   1  21
TORSDOF 7
