REMARK  Name = ZINC64735021
REMARK  8 active torsions:
REMARK  status: ('A' for Active; 'I' for Inactive)
REMARK    1  A    between atoms: C_1  and  C_2
REMARK    2  A    between atoms: C_2  and  C_4
REMARK    3  A    between atoms: C_7  and  N_10
REMARK    4  A    between atoms: C_11  and  C_13
REMARK    5  A    between atoms: C_13  and  C_15
REMARK    6  A    between atoms: C_13  and  N_25
REMARK    7  A    between atoms: C_15  and  C_16
REMARK    8  A    between atoms: C_26  and  C_28
REMARK                            x       y       z     vdW  Elec       q    Type
REMARK                         _______ _______ _______ _____ _____    ______ ____
ROOT
ATOM      1  C   UNL     1       0.222  -4.872  -6.208  0.00  0.00    +0.163 C 
ENDROOT
BRANCH   1   3
ATOM      2  N   UNL     1      -0.005  -2.792  -4.888  0.00  0.00    -0.284 N 
ATOM      3  C   UNL     1       0.110  -4.135  -4.898  0.00  0.00    +0.238 C 
ATOM      4  O   UNL     1       0.123  -4.750  -3.853  0.00  0.00    -0.273 OA
ATOM      5  H   UNL     1      -0.082  -2.305  -5.723  0.00  0.00    +0.155 HD
BRANCH   2   9
ATOM      6  C   UNL     1      -0.026  -0.734  -1.272  0.00  0.00    +0.017 A 
ATOM      7  C   UNL     1       0.577  -0.165  -2.401  0.00  0.00    +0.013 A 
ATOM      8  C   UNL     1       0.582  -0.847  -3.590  0.00  0.00    +0.024 A 
ATOM      9  C   UNL     1      -0.012  -2.103  -3.677  0.00  0.00    +0.033 A 
ATOM     10  C   UNL     1      -0.614  -2.672  -2.558  0.00  0.00    +0.024 A 
ATOM     11  C   UNL     1      -0.618  -2.000  -1.363  0.00  0.00    +0.013 A 
BRANCH   6  13
ATOM     12  C   UNL     1       0.604   1.355   0.099  0.00  0.00    +0.091 C 
ATOM     13  C   UNL     1      -0.034  -0.007   0.004  0.00  0.00    +0.160 C 
ATOM     14  O   UNL     1      -0.552  -0.504   0.981  0.00  0.00    -0.292 OA
ENDBRANCH   6  13
ENDBRANCH   2   9
ENDBRANCH   1   3
BRANCH   1  15
ATOM     15  N   UNL     1      -0.141  -6.277  -6.010  0.00  0.00    -0.299 N 
ATOM     16  C   UNL     1       0.561  -7.039  -5.147  0.00  0.00    +0.251 C 
ATOM     17  O   UNL     1       1.495  -6.559  -4.533  0.00  0.00    -0.270 OA
ATOM     18  H   UNL     1      -0.885  -6.660  -6.500  0.00  0.00    +0.150 HD
BRANCH  16  19
ATOM     19  C   UNL     1       0.199  -8.445  -4.949  0.00  0.00    +0.074 A 
ATOM     20  C   UNL     1       0.780  -9.388  -4.116  0.00  0.00    +0.021 A 
ATOM     21  C   UNL     1       0.215 -10.641  -4.146  0.00  0.00    +0.008 A 
ATOM     22  C   UNL     1      -0.843 -10.867  -4.964  0.00  0.00    +0.046 A 
ATOM     23  S   UNL     1      -1.109  -9.387  -5.712  0.00  0.00    -0.092 S 
ENDBRANCH  16  19
ENDBRANCH   1  15
BRANCH   1  24
ATOM     24  C   UNL     1       1.660  -4.783  -6.722  0.00  0.00    +0.065 C 
BRANCH  24  25
ATOM     25  C   UNL     1       1.745  -5.413  -8.088  0.00  0.00    -0.039 C 
ATOM     26  C   UNL     1       1.668  -4.780  -9.281  0.00  0.00    -0.001 A 
ATOM     27  C   UNL     1       1.488  -3.371  -9.650  0.00  0.00    +0.010 A 
ATOM     28  C   UNL     1       1.449  -3.035 -10.960  0.00  0.00    +0.001 A 
ATOM     29  C   UNL     1       1.575  -3.997 -11.971  0.00  0.00    +0.002 A 
ATOM     30  C   UNL     1       1.743  -5.311 -11.711  0.00  0.00    +0.026 A 
ATOM     31  C   UNL     1       1.799  -5.776 -10.369  0.00  0.00    +0.043 A 
ATOM     32  N   UNL     1       1.952  -6.978  -9.867  0.00  0.00    -0.380 N 
ATOM     33  C   UNL     1       1.940  -6.879  -8.403  0.00  0.00    +0.144 C 
ATOM     34  H   UNL     1       2.058  -7.795 -10.378  0.00  0.00    +0.160 HD
ENDBRANCH  24  25
ENDBRANCH   1  24
TORSDOF 7
