REMARK  Name = ZINC64921775
REMARK  6 active torsions:
REMARK  status: ('A' for Active; 'I' for Inactive)
REMARK    1  A    between atoms: C_1  and  C_2
REMARK    2  A    between atoms: C_2  and  C_3
REMARK    3  A    between atoms: C_10  and  S_15
REMARK    4  A    between atoms: S_15  and  N_18
REMARK    5  A    between atoms: C_21  and  C_24
REMARK    6  A    between atoms: N_26  and  C_27
REMARK                            x       y       z     vdW  Elec       q    Type
REMARK                         _______ _______ _______ _____ _____    ______ ____
ROOT
ATOM      1  N   UNL     1      -2.101  -3.814  -6.646  0.00  0.00    -0.177 NA
ATOM      2  C   UNL     1      -2.527  -5.149  -6.204  0.00  0.00    +0.110 C 
ATOM      3  C   UNL     1      -2.785  -6.019  -7.438  0.00  0.00    +0.030 C 
ATOM      4  C   UNL     1      -3.785  -5.311  -8.356  0.00  0.00    +0.077 C 
ATOM      5  C   UNL     1      -3.198  -3.976  -8.819  0.00  0.00    +0.030 C 
ATOM      6  C   UNL     1      -2.948  -3.081  -7.596  0.00  0.00    +0.110 C 
ENDROOT
BRANCH   4   7
ATOM      7  C   UNL     1      -4.067  -6.179  -9.555  0.00  0.00    +0.216 C 
ATOM      8  O   UNL     1      -3.522  -7.257  -9.665  0.00  0.00    -0.276 OA
ATOM      9  N   UNL     1      -4.925  -5.757 -10.505  0.00  0.00    -0.312 N 
ATOM     10  H   UNL     1      -5.361  -4.895 -10.418  0.00  0.00    +0.149 HD
BRANCH   9  11
ATOM     11  C   UNL     1      -5.199  -6.601 -11.671  0.00  0.00    +0.073 C 
ATOM     12  C   UNL     1      -4.129  -6.360 -12.738  0.00  0.00    +0.022 C 
ATOM     13  C   UNL     1      -4.169  -7.493 -13.765  0.00  0.00    +0.002 C 
ATOM     14  C   UNL     1      -4.301  -8.834 -13.041  0.00  0.00    +0.000 C 
ATOM     15  C   UNL     1      -5.667  -9.450 -13.352  0.00  0.00    +0.000 C 
ATOM     16  C   UNL     1      -6.747  -8.725 -12.545  0.00  0.00    +0.000 C 
ATOM     17  C   UNL     1      -7.035  -7.365 -13.184  0.00  0.00    +0.002 C 
ATOM     18  C   UNL     1      -6.575  -6.251 -12.242  0.00  0.00    +0.022 C 
ENDBRANCH   9  11
ENDBRANCH   4   7
BRANCH   1  19
ATOM     19  S   UNL     1      -0.695  -3.147  -6.079  0.00  0.00    +0.061 S 
ATOM     20  O   UNL     1      -0.283  -2.188  -7.043  0.00  0.00    -0.153 OA
ATOM     21  O   UNL     1       0.134  -4.228  -5.676  0.00  0.00    -0.153 OA
BRANCH  19  28
ATOM     22  C   UNL     1      -1.433  -0.534   0.013  0.00  0.00    +0.259 C 
ATOM     23  C   UNL     1      -1.413  -2.037   0.131  0.00  0.00    +0.258 C 
ATOM     24  O   UNL     1      -1.479  -2.563   1.221  0.00  0.00    -0.271 OA
ATOM     25  N   UNL     1      -1.320  -2.794  -0.983  0.00  0.00    -0.279 N 
ATOM     26  C   UNL     1      -1.372  -2.173  -2.238  0.00  0.00    +0.078 A 
ATOM     27  C   UNL     1      -1.054  -2.880  -3.387  0.00  0.00    +0.055 A 
ATOM     28  C   UNL     1      -1.098  -2.249  -4.617  0.00  0.00    +0.107 A 
ATOM     29  C   UNL     1      -1.456  -0.916  -4.703  0.00  0.00    +0.032 A 
ATOM     30  C   UNL     1      -1.778  -0.207  -3.560  0.00  0.00    +0.049 A 
ATOM     31  C   UNL     1      -1.744  -0.834  -2.326  0.00  0.00    +0.143 A 
ATOM     32  O   UNL     1      -2.089  -0.156  -1.200  0.00  0.00    -0.478 OA
ATOM     33  H   UNL     1      -1.218  -3.756  -0.915  0.00  0.00    +0.155 HD
BRANCH  22  35
ATOM     34  C   UNL     1      -0.019   1.526   0.010  0.00  0.00    +0.008 C 
ATOM     35  C   UNL     1       0.002  -0.004   0.002  0.00  0.00    +0.051 C 
ENDBRANCH  22  35
ENDBRANCH  19  28
ENDBRANCH   1  19
TORSDOF 5
