REMARK  Name = ZINC39690580
REMARK  7 active torsions:
REMARK  status: ('A' for Active; 'I' for Inactive)
REMARK    1  A    between atoms: C_1  and  C_2
REMARK    2  A    between atoms: C_2  and  C_4
REMARK    3  A    between atoms: C_2  and  O_28
REMARK    4  A    between atoms: C_8  and  C_17
REMARK    5  A    between atoms: N_19  and  C_20
REMARK    6  A    between atoms: C_20  and  C_21
REMARK    7  A    between atoms: O_28  and  C_29
REMARK                            x       y       z     vdW  Elec       q    Type
REMARK                         _______ _______ _______ _____ _____    ______ ____
ROOT
ATOM      1  C   UNL     1       0.742  -0.405   1.123  0.00  0.00    +0.256 C 
ATOM      2  O   UNL     1       1.860  -0.818   0.904  0.00  0.00    -0.272 OA
ATOM      3  N   UNL     1       0.369  -0.105   2.384  0.00  0.00    -0.297 N 
ATOM      4  C   UNL     1      -0.945   0.401   2.846  0.00  0.00    +0.121 C 
ATOM      5  C   UNL     1      -1.200  -0.337   4.180  0.00  0.00    +0.100 C 
ATOM      6  C   UNL     1       0.198  -0.733   4.683  0.00  0.00    -0.004 C 
ATOM      7  C   UNL     1       1.179  -0.214   3.621  0.00  0.00    +0.115 C 
ATOM      8  C   UNL     1       0.309  -2.250   4.798  0.00  0.00    -0.010 C 
ATOM      9  C   UNL     1       1.688  -2.616   5.355  0.00  0.00    -0.082 C 
ATOM     10  N   UNL     1       1.868  -1.990   6.670  0.00  0.00    +0.379 N 
ATOM     11  C   UNL     1       1.853  -0.529   6.537  0.00  0.00    -0.082 C 
ATOM     12  C   UNL     1       0.481  -0.075   6.030  0.00  0.00    -0.010 C 
ATOM     13  H   UNL     1       1.120  -2.279   7.284  0.00  0.00    -0.086 HD
ATOM     14  H   UNL     1       2.751  -2.282   7.062  0.00  0.00    -0.086 HD
ENDROOT
BRANCH   5  15
ATOM     15  C   UNL     1      -1.875   0.580   5.166  0.00  0.00    +0.218 C 
ATOM     16  O   UNL     1      -1.649   1.772   5.140  0.00  0.00    -0.275 OA
ATOM     17  N   UNL     1      -2.731   0.077   6.078  0.00  0.00    -0.311 N 
ATOM     18  H   UNL     1      -2.912  -0.876   6.099  0.00  0.00    +0.149 HD
BRANCH  17  19
ATOM     19  C   UNL     1      -3.387   0.969   7.037  0.00  0.00    +0.140 C 
BRANCH  19  20
ATOM     20  C   UNL     1      -4.287   0.163   7.939  0.00  0.00    -0.016 A 
ATOM     21  C   UNL     1      -5.647   0.115   7.695  0.00  0.00    +0.006 A 
ATOM     22  C   UNL     1      -6.471  -0.625   8.521  0.00  0.00    +0.000 A 
ATOM     23  C   UNL     1      -5.937  -1.317   9.592  0.00  0.00    +0.001 A 
ATOM     24  C   UNL     1      -4.577  -1.270   9.836  0.00  0.00    +0.015 A 
ATOM     25  C   UNL     1      -3.751  -0.534   9.006  0.00  0.00    +0.023 A 
ATOM     26 BR   UNL     1      -1.889  -0.475   9.335  0.00  0.00    -0.050 Br
ENDBRANCH  19  20
ENDBRANCH  17  19
ENDBRANCH   5  15
BRANCH   1  28
ATOM     27  C   UNL     1      -0.563   1.260  -0.172  0.00  0.00    +0.062 C 
ATOM     28  C   UNL     1      -0.232  -0.226  -0.013  0.00  0.00    +0.256 C 
BRANCH  28  29
ATOM     29  O   UNL     1       0.351  -0.716  -1.222  0.00  0.00    -0.480 OA
BRANCH  29  30
ATOM     30  C   UNL     1      -0.502  -1.120  -2.199  0.00  0.00    +0.122 A 
ATOM     31  C   UNL     1      -0.007  -1.712  -3.352  0.00  0.00    +0.045 A 
ATOM     32  C   UNL     1      -0.877  -2.123  -4.344  0.00  0.00    +0.004 A 
ATOM     33  C   UNL     1      -2.239  -1.944  -4.188  0.00  0.00    +0.000 A 
ATOM     34  C   UNL     1      -2.735  -1.354  -3.040  0.00  0.00    +0.004 A 
ATOM     35  C   UNL     1      -1.869  -0.947  -2.043  0.00  0.00    +0.045 A 
ENDBRANCH  29  30
ENDBRANCH  28  29
ENDBRANCH   1  28
TORSDOF 6
