REMARK  Name = ZINC65993698
REMARK  5 active torsions:
REMARK  status: ('A' for Active; 'I' for Inactive)
REMARK    1  A    between atoms: C_1  and  C_2
REMARK    2  A    between atoms: C_2  and  C_3
REMARK    3  A    between atoms: C_2  and  N_15
REMARK    4  A    between atoms: C_6  and  N_9
REMARK    5  A    between atoms: N_18  and  C_19
REMARK                            x       y       z     vdW  Elec       q    Type
REMARK                         _______ _______ _______ _____ _____    ______ ____
ROOT
ATOM      1  N   UNL     1       0.379  -0.420   0.810  0.00  0.00    -0.293 N 
ATOM      2  C   UNL     1      -0.127  -0.548   2.053  0.00  0.00    +0.304 C 
ATOM      3  O   UNL     1      -1.276  -0.221   2.278  0.00  0.00    -0.252 OA
ATOM      4  N   UNL     1       0.641  -1.039   3.045  0.00  0.00    -0.268 N 
ATOM      5  H   UNL     1       1.296  -0.681   0.630  0.00  0.00    +0.151 HD
ATOM      6  H   UNL     1       1.580  -1.225   2.885  0.00  0.00    +0.156 HD
ENDROOT
BRANCH   4   7
ATOM      7  C   UNL     1       0.085  -1.281   4.308  0.00  0.00    +0.053 A 
ATOM      8  C   UNL     1      -1.232  -1.724   4.425  0.00  0.00    +0.028 A 
ATOM      9  C   UNL     1      -1.740  -1.951   5.691  0.00  0.00    +0.050 A 
ATOM     10  C   UNL     1      -0.927  -1.730   6.797  0.00  0.00    +0.154 A 
ATOM     11  N   UNL     1       0.318  -1.309   6.648  0.00  0.00    -0.234 NA
ATOM     12  C   UNL     1       0.838  -1.088   5.457  0.00  0.00    +0.136 A 
ATOM     13  N   UNL     1      -1.432  -1.956   8.082  0.00  0.00    -0.222 N 
ATOM     14  C   UNL     1      -0.759  -1.779   9.248  0.00  0.00    +0.116 A 
ATOM     15  C   UNL     1      -1.598  -2.105  10.259  0.00  0.00    +0.041 A 
ATOM     16  C   UNL     1      -2.819  -2.493   9.697  0.00  0.00    +0.135 A 
ATOM     17  N   UNL     1      -2.723  -2.399   8.396  0.00  0.00    -0.173 NA
ENDBRANCH   4   7
BRANCH   1  19
ATOM     18  C   UNL     1      -0.402   1.643  -0.247  0.00  0.00    +0.033 C 
ATOM     19  C   UNL     1      -0.456   0.114  -0.269  0.00  0.00    +0.102 C 
BRANCH  19  20
ATOM     20  C   UNL     1       0.055  -0.388  -1.595  0.00  0.00    -0.027 A 
ATOM     21  C   UNL     1       1.416  -0.472  -1.823  0.00  0.00    +0.007 A 
ATOM     22  C   UNL     1       1.887  -0.932  -3.037  0.00  0.00    +0.024 A 
ATOM     23  C   UNL     1       0.993  -1.310  -4.029  0.00  0.00    +0.036 A 
ATOM     24  C   UNL     1      -0.374  -1.225  -3.797  0.00  0.00    +0.024 A 
ATOM     25  C   UNL     1      -0.839  -0.769  -2.579  0.00  0.00    +0.007 A 
BRANCH  23  26
ATOM     26  N   UNL     1       1.467  -1.776  -5.260  0.00  0.00    -0.271 N 
ATOM     27  C   UNL     1       0.613  -2.302  -6.332  0.00  0.00    +0.114 C 
ATOM     28  C   UNL     1       1.486  -2.274  -7.606  0.00  0.00    +0.029 C 
ATOM     29  C   UNL     1       2.912  -2.356  -7.013  0.00  0.00    +0.098 C 
ATOM     30  C   UNL     1       2.763  -1.795  -5.616  0.00  0.00    +0.220 C 
ATOM     31  O   UNL     1       3.681  -1.419  -4.917  0.00  0.00    -0.275 OA
ENDBRANCH  23  26
ENDBRANCH  19  20
ENDBRANCH   1  19
TORSDOF 4
