REMARK  Name = ZINC05595813
REMARK  6 active torsions:
REMARK  status: ('A' for Active; 'I' for Inactive)
REMARK    1  A    between atoms: C_1  and  C_2
REMARK    2  A    between atoms: C_5  and  C_8
REMARK    3  A    between atoms: C_10  and  C_14
REMARK    4  A    between atoms: N_16  and  N_17
REMARK    5  A    between atoms: C_18  and  C_19
REMARK    6  A    between atoms: C_18  and  C_20
REMARK                            x       y       z     vdW  Elec       q    Type
REMARK                         _______ _______ _______ _____ _____    ______ ____
ROOT
ATOM      1  C   UNL     1       3.029   1.691   1.759  0.00  0.00    +0.281 C 
ATOM      2  O   UNL     1       3.461   0.573   1.969  0.00  0.00    -0.267 OA
ATOM      3  N   UNL     1       3.742   2.560   1.015  0.00  0.00    -0.201 N 
ATOM      4  H   UNL     1       3.398   3.451   0.847  0.00  0.00    +0.178 HD
ENDROOT
BRANCH   1   7
ATOM      5  C   UNL     1      -0.222   2.143   3.368  0.00  0.00    +0.093 A 
ATOM      6  C   UNL     1       0.886   1.321   3.093  0.00  0.00    +0.062 A 
ATOM      7  C   UNL     1       1.729   2.094   2.316  0.00  0.00    +0.122 A 
ATOM      8  N   UNL     1       1.115   3.306   2.168  0.00  0.00    -0.272 N 
ATOM      9  H   UNL     1       1.486   4.078   1.652  0.00  0.00    +0.189 HD
ATOM     10  N   UNL     1      -0.008   3.306   2.790  0.00  0.00    -0.173 NA
BRANCH   5  15
ATOM     11  C   UNL     1      -4.848   0.687   6.475  0.00  0.00    +0.044 C 
ATOM     12  C   UNL     1      -3.638   1.068   5.662  0.00  0.00    -0.050 A 
ATOM     13  C   UNL     1      -3.550   2.332   5.108  0.00  0.00    +0.004 A 
ATOM     14  C   UNL     1      -2.444   2.686   4.362  0.00  0.00    +0.010 A 
ATOM     15  C   UNL     1      -1.415   1.768   4.169  0.00  0.00    +0.002 A 
ATOM     16  C   UNL     1      -1.511   0.494   4.725  0.00  0.00    +0.010 A 
ATOM     17  C   UNL     1      -2.619   0.152   5.473  0.00  0.00    +0.004 A 
ENDBRANCH   5  15
ENDBRANCH   1   7
BRANCH   3  18
ATOM     18  N   UNL     1       4.981   2.176   0.484  0.00  0.00    -0.184 NA
ATOM     19  C   UNL     1       5.720   3.046  -0.134  0.00  0.00    +0.063 C 
ATOM     20  C   UNL     1       6.960   2.598  -0.864  0.00  0.00    +0.068 C 
BRANCH  19  21
ATOM     21  C   UNL     1       5.345   4.472  -0.123  0.00  0.00    -0.002 A 
ATOM     22  C   UNL     1       5.561   5.263  -1.254  0.00  0.00    +0.011 A 
ATOM     23  C   UNL     1       5.202   6.594  -1.240  0.00  0.00    +0.016 A 
ATOM     24  C   UNL     1       4.641   7.151  -0.103  0.00  0.00    +0.018 A 
ATOM     25  C   UNL     1       4.430   6.374   1.024  0.00  0.00    +0.016 A 
ATOM     26  C   UNL     1       4.778   5.040   1.020  0.00  0.00    +0.011 A 
ATOM     27 BR   UNL     1       4.160   8.979  -0.089  0.00  0.00    -0.050 Br
ENDBRANCH  19  21
ENDBRANCH   3  18
TORSDOF 4
