REMARK  Name = ZINC27520998
REMARK  9 active torsions:
REMARK  status: ('A' for Active; 'I' for Inactive)
REMARK    1  A    between atoms: C_1  and  C_2
REMARK    2  A    between atoms: C_5  and  C_8
REMARK    3  A    between atoms: N_10  and  C_11
REMARK    4  A    between atoms: C_11  and  C_20
REMARK    5  A    between atoms: C_12  and  C_13
REMARK    6  A    between atoms: N_22  and  C_23
REMARK    7  A    between atoms: C_26  and  C_29
REMARK    8  A    between atoms: C_29  and  O_31
REMARK    9  A    between atoms: O_31  and  C_32
REMARK                            x       y       z     vdW  Elec       q    Type
REMARK                         _______ _______ _______ _____ _____    ______ ____
ROOT
ATOM      1  C   UNL     1       0.077  -0.190  -0.395  0.00  0.00    +0.097 C 
ATOM      2  C   UNL     1      -0.022   1.133  -0.128  0.00  0.00    +0.036 C 
ENDROOT
BRANCH   2   3
ATOM      3  C   UNL     1      -1.331   1.800  -0.194  0.00  0.00    -0.023 A 
ATOM      4  C   UNL     1      -2.382   1.217  -0.909  0.00  0.00    +0.009 A 
ATOM      5  C   UNL     1      -3.608   1.846  -0.961  0.00  0.00    +0.016 A 
ATOM      6  C   UNL     1      -3.797   3.058  -0.318  0.00  0.00    +0.018 A 
ATOM      7  C   UNL     1      -2.759   3.644   0.388  0.00  0.00    +0.016 A 
ATOM      8  C   UNL     1      -1.529   3.024   0.454  0.00  0.00    +0.009 A 
ATOM      9 BR   UNL     1      -5.479   3.916  -0.402  0.00  0.00    -0.050 Br
ENDBRANCH   2   3
BRANCH   1  12
ATOM     10  C   UNL     1      -1.241  -1.649  -1.732  0.00  0.00    +0.248 C 
ATOM     11  O   UNL     1      -0.425  -1.548  -2.628  0.00  0.00    -0.270 OA
ATOM     12  N   UNL     1      -1.078  -0.952  -0.590  0.00  0.00    -0.277 N 
ATOM     13  H   UNL     1      -1.855  -0.983   0.188  0.00  0.00    +0.155 HD
BRANCH  10  18
ATOM     14  C   UNL     1      -5.796  -5.107  -2.369  0.00  0.00    +0.044 C 
ATOM     15  C   UNL     1      -4.603  -4.202  -2.202  0.00  0.00    -0.050 A 
ATOM     16  C   UNL     1      -3.621  -4.170  -3.176  0.00  0.00    +0.004 A 
ATOM     17  C   UNL     1      -2.526  -3.343  -3.030  0.00  0.00    +0.013 A 
ATOM     18  C   UNL     1      -2.411  -2.538  -1.896  0.00  0.00    +0.037 A 
ATOM     19  C   UNL     1      -3.403  -2.578  -0.914  0.00  0.00    +0.013 A 
ATOM     20  C   UNL     1      -4.495  -3.406  -1.076  0.00  0.00    +0.004 A 
ENDBRANCH  10  18
ENDBRANCH   1  12
BRANCH   1  21
ATOM     21  C   UNL     1       1.400  -0.826  -0.478  0.00  0.00    +0.262 C 
ATOM     22  O   UNL     1       1.489  -2.015  -0.718  0.00  0.00    -0.268 OA
ATOM     23  N   UNL     1       2.514  -0.091  -0.290  0.00  0.00    -0.280 N 
ATOM     24  H   UNL     1       2.432   0.967   0.002  0.00  0.00    +0.155 HD
BRANCH  23  25
ATOM     25  C   UNL     1       3.768  -0.670  -0.465  0.00  0.00    +0.034 A 
ATOM     26  C   UNL     1       4.806   0.074  -1.017  0.00  0.00    +0.024 A 
ATOM     27  C   UNL     1       6.048  -0.494  -1.186  0.00  0.00    +0.017 A 
ATOM     28  C   UNL     1       6.263  -1.824  -0.813  0.00  0.00    +0.059 A 
ATOM     29  C   UNL     1       5.217  -2.571  -0.264  0.00  0.00    +0.017 A 
ATOM     30  C   UNL     1       3.979  -1.995  -0.092  0.00  0.00    +0.024 A 
BRANCH  28  31
ATOM     31  C   UNL     1       7.591  -2.438  -0.998  0.00  0.00    +0.339 C 
ATOM     32  O   UNL     1       7.777  -3.594  -0.673  0.00  0.00    -0.245 OA
BRANCH  31  33
ATOM     33  O   UNL     1       8.599  -1.716  -1.528  0.00  0.00    -0.464 OA
ATOM     34  C   UNL     1       9.879  -2.385  -1.681  0.00  0.00    +0.280 C 
ENDBRANCH  31  33
ENDBRANCH  28  31
ENDBRANCH  23  25
ENDBRANCH   1  21
TORSDOF 7
