REMARK  Name = ZINC65481675
REMARK  6 active torsions:
REMARK  status: ('A' for Active; 'I' for Inactive)
REMARK    1  A    between atoms: C_1  and  C_2
REMARK    2  A    between atoms: C_4  and  O_23
REMARK    3  A    between atoms: C_7  and  N_8
REMARK    4  A    between atoms: C_14  and  C_17
REMARK    5  A    between atoms: N_19  and  C_20
REMARK    6  A    between atoms: O_23  and  C_24
REMARK                            x       y       z     vdW  Elec       q    Type
REMARK                         _______ _______ _______ _____ _____    ______ ____
ROOT
ATOM      1  N   UNL     1      -0.324   0.011   2.394  0.00  0.00    -0.269 N 
ATOM      2  C   UNL     1      -0.180  -0.661   3.553  0.00  0.00    +0.306 C 
ATOM      3  O   UNL     1       0.101  -1.844   3.539  0.00  0.00    -0.252 OA
ATOM      4  N   UNL     1      -0.348  -0.022   4.728  0.00  0.00    -0.285 N 
ATOM      5  C   UNL     1      -0.585   1.427   4.764  0.00  0.00    +0.110 C 
ATOM      6  C   UNL     1       0.444   2.072   5.699  0.00  0.00    +0.032 C 
ATOM      7  C   UNL     1       0.382   1.390   7.067  0.00  0.00    +0.078 C 
ATOM      8  C   UNL     1       0.729  -0.093   6.917  0.00  0.00    +0.032 C 
ATOM      9  C   UNL     1      -0.303  -0.763   5.996  0.00  0.00    +0.110 C 
ATOM     10  H   UNL     1      -0.484   0.968   2.405  0.00  0.00    +0.156 HD
ENDROOT
BRANCH   1  17
ATOM     11  C   UNL     1       0.148   1.528   0.035  0.00  0.00    +0.046 C 
ATOM     12  C   UNL     1      -0.014   0.030  -0.002  0.00  0.00    -0.026 A 
ATOM     13  C   UNL     1       0.070  -0.644  -1.204  0.00  0.00    +0.051 A 
ATOM     14  C   UNL     1      -0.079  -2.023  -1.238  0.00  0.00    +0.132 A 
ATOM     15  C   UNL     1      -0.314  -2.725  -0.065  0.00  0.00    +0.048 A 
ATOM     16  C   UNL     1      -0.399  -2.052   1.137  0.00  0.00    +0.027 A 
ATOM     17  C   UNL     1      -0.244  -0.672   1.173  0.00  0.00    +0.038 A 
BRANCH  14  18
ATOM     18  O   UNL     1       0.004  -2.686  -2.422  0.00  0.00    -0.424 OA
BRANCH  18  19
ATOM     19  C   UNL     1       1.204  -2.721  -3.049  0.00  0.00    +0.323 A 
ATOM     20  N   UNL     1       2.264  -2.212  -2.443  0.00  0.00    -0.203 NA
ATOM     21  C   UNL     1       3.451  -2.230  -3.026  0.00  0.00    +0.118 A 
ATOM     22  C   UNL     1       3.576  -2.791  -4.287  0.00  0.00    +0.040 A 
ATOM     23  C   UNL     1       2.445  -3.316  -4.893  0.00  0.00    +0.118 A 
ATOM     24  N   UNL     1       1.289  -3.270  -4.251  0.00  0.00    -0.203 NA
ENDBRANCH  18  19
ENDBRANCH  14  18
ENDBRANCH   1  17
BRANCH   7  25
ATOM     25  C   UNL     1       1.369   2.044   7.999  0.00  0.00    +0.216 C 
ATOM     26  O   UNL     1       2.055   2.964   7.608  0.00  0.00    -0.276 OA
ATOM     27  N   UNL     1       1.490   1.606   9.268  0.00  0.00    -0.312 N 
ATOM     28  H   UNL     1       0.942   0.870   9.582  0.00  0.00    +0.149 HD
BRANCH  27  29
ATOM     29  C   UNL     1       2.450   2.241  10.174  0.00  0.00    +0.073 C 
ATOM     30  C   UNL     1       3.302   1.327  11.056  0.00  0.00    +0.024 C 
ATOM     31  C   UNL     1       2.171   2.150  11.676  0.00  0.00    +0.024 C 
ENDBRANCH  27  29
ENDBRANCH   7  25
TORSDOF 5
