REMARK  Name = ZINC46659270
REMARK  8 active torsions:
REMARK  status: ('A' for Active; 'I' for Inactive)
REMARK    1  A    between atoms: C_1  and  C_2
REMARK    2  A    between atoms: C_2  and  C_3
REMARK    3  A    between atoms: C_2  and  C_4
REMARK    4  A    between atoms: C_2  and  C_5
REMARK    5  A    between atoms: C_8  and  C_11
REMARK    6  A    between atoms: N_13  and  C_14
REMARK    7  A    between atoms: C_14  and  C_15
REMARK    8  A    between atoms: N_17  and  C_18
REMARK                            x       y       z     vdW  Elec       q    Type
REMARK                         _______ _______ _______ _____ _____    ______ ____
ROOT
ATOM      1  C   UNL     1       6.082  -1.475  -6.167  0.00  0.00    +0.234 C 
ATOM      2  O   UNL     1       6.476  -0.773  -5.260  0.00  0.00    -0.274 OA
ATOM      3  N   UNL     1       6.908  -1.787  -7.186  0.00  0.00    -0.284 N 
ATOM      4  H   UNL     1       6.615  -2.402  -7.876  0.00  0.00    +0.155 HD
ENDROOT
BRANCH   3   5
ATOM      5  C   UNL     1       8.188  -1.224  -7.246  0.00  0.00    +0.034 A 
ATOM      6  C   UNL     1       8.899  -0.990  -6.070  0.00  0.00    +0.025 A 
ATOM      7  C   UNL     1      10.149  -0.442  -6.103  0.00  0.00    +0.030 A 
ATOM      8  C   UNL     1      10.732  -0.109  -7.328  0.00  0.00    +0.078 A 
ATOM      9  C   UNL     1      10.015  -0.344  -8.523  0.00  0.00    +0.067 A 
ATOM     10  C   UNL     1       8.743  -0.908  -8.475  0.00  0.00    +0.038 A 
ATOM     11  C   UNL     1      10.660   0.021  -9.791  0.00  0.00    +0.262 A 
ATOM     12  O   UNL     1      10.096  -0.154 -10.855  0.00  0.00    -0.267 OA
ATOM     13  N   UNL     1      11.905   0.561  -9.739  0.00  0.00    -0.296 N 
ATOM     14  C   UNL     1      12.527   0.750  -8.543  0.00  0.00    +0.113 A 
ATOM     15  N   UNL     1      11.969   0.433  -7.405  0.00  0.00    -0.234 NA
ATOM     16  C   UNL     1      13.902   1.355  -8.777  0.00  0.00    +0.076 C 
ATOM     17  C   UNL     1      14.183   1.102 -10.274  0.00  0.00    +0.029 C 
ATOM     18  C   UNL     1      12.756   1.010 -10.853  0.00  0.00    +0.127 C 
ENDBRANCH   3   5
BRANCH   1  19
ATOM     19  C   UNL     1       4.669  -1.999  -6.155  0.00  0.00    +0.200 C 
BRANCH  19  22
ATOM     20  C   UNL     1       2.698  -1.867  -4.729  0.00  0.00    +0.244 C 
ATOM     21  O   UNL     1       2.111  -2.575  -5.524  0.00  0.00    -0.270 OA
ATOM     22  N   UNL     1       3.981  -1.522  -4.953  0.00  0.00    -0.303 N 
ATOM     23  H   UNL     1       4.450  -0.958  -4.318  0.00  0.00    +0.150 HD
BRANCH  20  27
ATOM     24  C   UNL     1       0.705  -0.486  -1.242  0.00  0.00    -0.042 A 
ATOM     25  C   UNL     1       0.034  -1.290  -2.146  0.00  0.00    +0.005 A 
ATOM     26  C   UNL     1       0.675  -1.742  -3.280  0.00  0.00    +0.013 A 
ATOM     27  C   UNL     1       2.004  -1.386  -3.515  0.00  0.00    +0.037 A 
ATOM     28  C   UNL     1       2.675  -0.575  -2.599  0.00  0.00    +0.013 A 
ATOM     29  C   UNL     1       2.020  -0.125  -1.472  0.00  0.00    +0.005 A 
BRANCH  24  31
ATOM     30  C   UNL     1      -0.032   1.534  -0.006  0.00  0.00    +0.015 C 
ATOM     31  C   UNL     1      -0.003   0.004  -0.005  0.00  0.00    -0.013 C 
ATOM     32  C   UNL     1       0.741  -0.490   1.238  0.00  0.00    +0.015 C 
ATOM     33  C   UNL     1      -1.435  -0.533   0.011  0.00  0.00    +0.015 C 
ENDBRANCH  24  31
ENDBRANCH  20  27
ENDBRANCH  19  22
ENDBRANCH   1  19
TORSDOF 5
