REMARK  Name = ZINC36861250
REMARK  5 active torsions:
REMARK  status: ('A' for Active; 'I' for Inactive)
REMARK    1  A    between atoms: C_1  and  C_2
REMARK    2  A    between atoms: C_2  and  N_3
REMARK    3  A    between atoms: C_5  and  N_18
REMARK    4  A    between atoms: C_7  and  C_8
REMARK    5  A    between atoms: N_10  and  C_11
REMARK                            x       y       z     vdW  Elec       q    Type
REMARK                         _______ _______ _______ _____ _____    ______ ____
ROOT
ATOM      1  C   UNL     1      -1.945   0.025  -2.425  0.00  0.00    +0.265 C 
ATOM      2  O   UNL     1      -0.882   0.559  -2.682  0.00  0.00    -0.268 OA
ATOM      3  N   UNL     1      -2.813  -0.259  -3.416  0.00  0.00    -0.279 N 
ATOM      4  H   UNL     1      -3.675  -0.653  -3.208  0.00  0.00    +0.155 HD
ENDROOT
BRANCH   3   5
ATOM      5  C   UNL     1      -2.472   0.014  -4.745  0.00  0.00    +0.048 A 
ATOM      6  C   UNL     1      -1.186   0.433  -5.061  0.00  0.00    +0.024 A 
ATOM      7  C   UNL     1      -0.852   0.702  -6.374  0.00  0.00    +0.002 A 
ATOM      8  C   UNL     1      -1.796   0.554  -7.373  0.00  0.00    +0.001 A 
ATOM      9  C   UNL     1      -3.077   0.137  -7.063  0.00  0.00    +0.017 A 
ATOM     10  C   UNL     1      -3.417  -0.138  -5.752  0.00  0.00    +0.039 A 
ATOM     11 BR   UNL     1      -5.167  -0.716  -5.329  0.00  0.00    -0.048 Br
ENDBRANCH   3   5
BRANCH   1  16
ATOM     12  N   UNL     1      -1.531  -0.006   0.075  0.00  0.00    -0.342 N 
ATOM     13  C   UNL     1      -2.175  -0.478   1.176  0.00  0.00    +0.109 A 
ATOM     14  C   UNL     1      -3.325  -1.086   0.783  0.00  0.00    +0.043 A 
ATOM     15  C   UNL     1      -3.403  -0.991  -0.614  0.00  0.00    +0.055 A 
ATOM     16  C   UNL     1      -2.280  -0.311  -1.038  0.00  0.00    +0.106 A 
BRANCH  14  17
ATOM     17  N   UNL     1      -4.269  -1.701   1.626  0.00  0.00    -0.357 N 
ATOM     18  H   UNL     1      -4.125  -1.716   2.586  0.00  0.00    +0.142 HD
ATOM     19  H   UNL     1      -5.063  -2.111   1.249  0.00  0.00    +0.142 HD
ENDBRANCH  14  17
BRANCH  12  21
ATOM     20  C   UNL     1      -0.514   2.213  -0.071  0.00  0.00    +0.027 C 
ATOM     21  C   UNL     1      -0.254   0.712   0.075  0.00  0.00    +0.118 C 
ENDBRANCH  12  21
ENDBRANCH   1  16
TORSDOF 4
