REMARK  Name = ZINC06146150
REMARK  9 active torsions:
REMARK  status: ('A' for Active; 'I' for Inactive)
REMARK    1  A    between atoms: C_1  and  C_2
REMARK    2  A    between atoms: C_2  and  O_3
REMARK    3  A    between atoms: O_3  and  C_4
REMARK    4  A    between atoms: C_4  and  C_6
REMARK    5  A    between atoms: C_10  and  N_11
REMARK    6  A    between atoms: C_12  and  C_14
REMARK    7  A    between atoms: C_19  and  N_20
REMARK    8  A    between atoms: N_20  and  S_21
REMARK    9  A    between atoms: S_21  and  C_24
REMARK                            x       y       z     vdW  Elec       q    Type
REMARK                         _______ _______ _______ _____ _____    ______ ____
ROOT
ATOM      1  N   UNL     1      -0.161   1.272  -0.283  0.00  0.00    -0.275 N 
ATOM      2  C   UNL     1       1.047   1.864  -0.194  0.00  0.00    +0.250 C 
ATOM      3  O   UNL     1       1.125   3.068  -0.042  0.00  0.00    -0.270 OA
ATOM      4  H   UNL     1      -0.231   0.182  -0.416  0.00  0.00    +0.156 HD
ENDROOT
BRANCH   1   9
ATOM      5  C   UNL     1      -2.635   1.615  -0.286  0.00  0.00    +0.091 A 
ATOM      6  C   UNL     1      -3.670   2.629  -0.171  0.00  0.00    -0.021 A 
ATOM      7  C   UNL     1      -3.222   3.892  -0.005  0.00  0.00    -0.004 A 
ATOM      8  S   UNL     1      -1.457   3.749   0.007  0.00  0.00    -0.077 S 
ATOM      9  C   UNL     1      -1.313   2.036  -0.205  0.00  0.00    +0.087 A 
ATOM     10  C   UNL     1      -4.049   5.133   0.136  0.00  0.00    +0.043 C 
ATOM     11  C   UNL     1      -5.483   4.811  -0.309  0.00  0.00    +0.005 C 
ATOM     12  C   UNL     1      -5.928   3.510   0.363  0.00  0.00    +0.005 C 
ATOM     13  C   UNL     1      -5.162   2.328  -0.233  0.00  0.00    +0.037 C 
BRANCH   5  14
ATOM     14  C   UNL     1      -2.972   0.203  -0.476  0.00  0.00    +0.342 C 
ATOM     15  O   UNL     1      -3.133  -0.519   0.490  0.00  0.00    -0.245 OA
BRANCH  14  16
ATOM     16  O   UNL     1      -3.105  -0.297  -1.722  0.00  0.00    -0.461 OA
BRANCH  16  18
ATOM     17  C   UNL     1      -3.548  -2.087  -3.312  0.00  0.00    +0.048 C 
ATOM     18  C   UNL     1      -3.441  -1.705  -1.835  0.00  0.00    +0.229 C 
ENDBRANCH  16  18
ENDBRANCH  14  16
ENDBRANCH   5  14
ENDBRANCH   1   9
BRANCH   2  19
ATOM     19  C   UNL     1       2.274   1.051  -0.282  0.00  0.00    +0.059 A 
ATOM     20  C   UNL     1       2.190  -0.333  -0.458  0.00  0.00    +0.015 A 
ATOM     21  C   UNL     1       3.340  -1.086  -0.539  0.00  0.00    +0.001 A 
ATOM     22  C   UNL     1       4.583  -0.479  -0.448  0.00  0.00    +0.002 A 
ATOM     23  C   UNL     1       4.683   0.886  -0.275  0.00  0.00    +0.025 A 
ATOM     24  C   UNL     1       3.534   1.664  -0.197  0.00  0.00    +0.060 A 
BRANCH  24  25
ATOM     25  N   UNL     1       3.632   3.039  -0.028  0.00  0.00    -0.216 N 
ATOM     26  H   UNL     1       2.892   3.572   0.587  0.00  0.00    +0.174 HD
BRANCH  25  27
ATOM     27  S   UNL     1       4.863   3.876  -0.754  0.00  0.00    +0.072 S 
ATOM     28  O   UNL     1       4.617   5.254  -0.507  0.00  0.00    -0.150 OA
ATOM     29  O   UNL     1       6.072   3.237  -0.367  0.00  0.00    -0.150 OA
BRANCH  27  30
ATOM     30  C   UNL     1       4.701   3.638  -2.492  0.00  0.00    +0.109 A 
ATOM     31  C   UNL     1       5.342   2.579  -3.107  0.00  0.00    +0.031 A 
ATOM     32  C   UNL     1       5.212   2.388  -4.470  0.00  0.00    +0.040 A 
ATOM     33  C   UNL     1       4.448   3.266  -5.221  0.00  0.00    +0.124 A 
ATOM     34  C   UNL     1       3.811   4.330  -4.605  0.00  0.00    +0.040 A 
ATOM     35  C   UNL     1       3.938   4.515  -3.241  0.00  0.00    +0.031 A 
ATOM     36  F   UNL     1       4.324   3.084  -6.554  0.00  0.00    -0.205 F 
ENDBRANCH  27  30
ENDBRANCH  25  27
ENDBRANCH  24  25
ENDBRANCH   2  19
TORSDOF 8
