REMARK  Name = ZINC02103053
REMARK  10 active torsions:
REMARK  status: ('A' for Active; 'I' for Inactive)
REMARK    1  A    between atoms: C_1  and  C_2
REMARK    2  A    between atoms: C_2  and  C_3
REMARK    3  A    between atoms: C_3  and  C_5
REMARK    4  A    between atoms: C_3  and  C_6
REMARK    5  A    between atoms: C_6  and  C_8
REMARK    6  A    between atoms: C_6  and  N_48
REMARK    7  A    between atoms: C_8  and  O_10
REMARK    8  A    between atoms: O_10  and  C_11
REMARK    9  A    between atoms: C_19  and  O_22
REMARK   10  A    between atoms: O_22  and  C_23
REMARK                            x       y       z     vdW  Elec       q    Type
REMARK                         _______ _______ _______ _____ _____    ______ ____
ROOT
ATOM      1  C   UNL     1      -8.066   4.636   0.080  0.00  0.00    +0.135 A 
ATOM      2  C   UNL     1      -8.308   3.264   0.124  0.00  0.00    +0.047 A 
ATOM      3  C   UNL     1      -7.269   2.378   0.125  0.00  0.00    +0.019 A 
ATOM      4  C   UNL     1      -5.956   2.852   0.083  0.00  0.00    +0.068 A 
ATOM      5  C   UNL     1      -5.702   4.234   0.038  0.00  0.00    +0.142 A 
ATOM      6  C   UNL     1      -6.770   5.121   0.037  0.00  0.00    +0.093 A 
ATOM      7  O   UNL     1      -4.431   4.680  -0.004  0.00  0.00    -0.459 OA
ATOM      8  C   UNL     1      -3.378   3.851   0.002  0.00  0.00    +0.245 A 
ATOM      9  C   UNL     1      -3.507   2.510   0.037  0.00  0.00    +0.210 A 
ATOM     10  C   UNL     1      -4.807   1.930   0.083  0.00  0.00    +0.234 A 
ATOM     11  O   UNL     1      -4.963   0.721   0.120  0.00  0.00    -0.283 OA
ENDROOT
BRANCH   1  12
ATOM     12  O   UNL     1      -9.110   5.504   0.079  0.00  0.00    -0.427 OA
BRANCH  12  13
ATOM     13  C   UNL     1      -9.745   5.696   1.247  0.00  0.00    +0.298 C 
ATOM     14  O   UNL     1      -9.438   5.042   2.216  0.00  0.00    -0.252 OA
BRANCH  13  15
ATOM     15  C   UNL     1     -10.839   6.727   1.349  0.00  0.00    +0.039 C 
BRANCH  15  18
ATOM     16  H   UNL     1     -11.301   6.285   3.306  0.00  0.00    -0.089 HD
ATOM     17  H   UNL     1     -10.215   7.534   3.138  0.00  0.00    -0.089 HD
ATOM     18  N   UNL     1     -11.058   7.107   2.756  0.00  0.00    +0.387 N 
ATOM     19  H   UNL     1     -11.828   7.784   2.807  0.00  0.00    -0.089 HD
ENDBRANCH  15  18
BRANCH  15  20
ATOM     20  C   UNL     1     -12.138   6.150   0.783  0.00  0.00    -0.018 C 
ATOM     21  C   UNL     1     -12.600   4.981   1.655  0.00  0.00    +0.006 C 
BRANCH  20  23
ATOM     22  C   UNL     1     -14.476   6.696   0.091  0.00  0.00    +0.004 C 
ATOM     23  C   UNL     1     -13.216   7.235   0.771  0.00  0.00    -0.001 C 
ENDBRANCH  20  23
ENDBRANCH  15  20
ENDBRANCH  13  15
ENDBRANCH  12  13
ENDBRANCH   1  12
BRANCH   9  24
ATOM     24  O   UNL     1      -2.402   1.715   0.035  0.00  0.00    -0.448 OA
BRANCH  24  25
ATOM     25  C   UNL     1      -1.958   1.244  -1.160  0.00  0.00    +0.147 A 
ATOM     26  C   UNL     1      -2.685   1.486  -2.317  0.00  0.00    +0.049 A 
ATOM     27  C   UNL     1      -2.234   1.001  -3.529  0.00  0.00    +0.023 A 
ATOM     28  C   UNL     1      -1.056   0.279  -3.592  0.00  0.00    +0.043 A 
ATOM     29  C   UNL     1      -0.326   0.040  -2.442  0.00  0.00    +0.043 A 
ATOM     30  C   UNL     1      -0.773   0.523  -1.226  0.00  0.00    +0.085 A 
ATOM     31 CL   UNL     1       0.143   0.223   0.218  0.00  0.00    -0.080 Cl
ATOM     32 CL   UNL     1      -0.493  -0.329  -5.118  0.00  0.00    -0.083 Cl
ENDBRANCH  24  25
ENDBRANCH   9  24
TORSDOF 8
