REMARK  Name = ZINC51336632
REMARK  11 active torsions:
REMARK  status: ('A' for Active; 'I' for Inactive)
REMARK    1  A    between atoms: C_1  and  C_2
REMARK    2  A    between atoms: N_6  and  O_7
REMARK    3  A    between atoms: O_7  and  C_8
REMARK    4  A    between atoms: C_8  and  C_9
REMARK    5  A    between atoms: N_11  and  CA_12
REMARK    6  A    between atoms: CA_12  and  CB_14
REMARK    7  A    between atoms: CA_12  and  C_21
REMARK    8  A    between atoms: CB_14  and  CG_15
REMARK    9  A    between atoms: C_34  and  C_42
REMARK   10  A    between atoms: C_39  and  C_40
REMARK   11  A    between atoms: C_39  and  O_41
REMARK                            x       y       z     vdW  Elec       q    Type
REMARK                         _______ _______ _______ _____ _____    ______ ____
ROOT
ATOM      1  C   UNK A   0      -0.019   1.529   0.010  0.00  0.00    +0.016 C 
ATOM      2  C   UNK A   0       0.002  -0.004   0.002  0.00  0.00    -0.007 C 
ATOM      3  C   UNK A   0      -1.444  -0.469  -0.056  0.00  0.00    +0.017 C 
ATOM      4  C   UNK A   0      -2.131  -0.391   1.305  0.00  0.00    +0.059 C 
ATOM      5  C   UNK A   0      -1.324  -1.210   2.291  0.00  0.00    +0.080 C 
ATOM      6  N   UNK A   0      -1.896  -2.025   3.123  0.00  0.00    -0.089 NA
ATOM      7  C   UNK A   0       0.138  -1.043   2.262  0.00  0.00    +0.026 C 
ATOM      8  C   UNK A   0       0.732  -0.464   1.226  0.00  0.00    -0.062 C 
ATOM      9  C   UNK A   0       2.232  -0.247   1.309  0.00  0.00    +0.031 C 
ATOM     10  C   UNK A   0       2.879  -0.778   0.025  0.00  0.00    +0.008 C 
ATOM     11  C   UNK A   0       2.229  -0.112  -1.184  0.00  0.00    -0.003 C 
ATOM     12  C   UNK A   0       0.745  -0.462  -1.253  0.00  0.00    +0.002 C 
ATOM     13  C   UNK A   0       0.635  -1.982  -1.419  0.00  0.00    +0.005 C 
ATOM     14  C   UNK A   0       1.203  -2.347  -2.787  0.00  0.00    +0.010 C 
ATOM     15  C   UNK A   0       2.617  -1.884  -3.014  0.00  0.00    -0.000 C 
ATOM     16  C   UNK A   0       2.940  -0.487  -2.478  0.00  0.00    +0.001 C 
ATOM     17  C   UNK A   0       4.466  -0.526  -2.200  0.00  0.00    +0.007 C 
ATOM     18  C   UNK A   0       4.751  -1.984  -1.790  0.00  0.00    +0.035 C 
ATOM     19  C   UNK A   0       3.712  -2.840  -2.546  0.00  0.00    +0.069 C 
ATOM     20  C   UNK A   0       3.195  -3.957  -1.645  0.00  0.00    +0.042 C 
ATOM     21  C   UNK A   0       2.775  -1.792  -4.558  0.00  0.00    +0.014 C 
ENDROOT
BRANCH  19  22
ATOM     22  O   UNK A   0       4.348  -3.426  -3.696  0.00  0.00    -0.388 OA
ATOM     23  H   UNK A   0       5.057  -4.047  -3.481  0.00  0.00    +0.210 HD
ENDBRANCH  19  22
BRANCH   6  24
ATOM     24  O   UNK A   0      -3.306  -2.163   3.122  0.00  0.00    -0.384 OA
BRANCH  24  25
ATOM     25  C   UNK A   0      -3.799  -3.093   4.089  0.00  0.00    +0.358 C 
BRANCH  25  26
ATOM     26  C   UNK A   0      -5.302  -3.160   3.999  0.00  0.00    +0.254 C 
ATOM     27  O   UNK A   0      -5.892  -2.479   3.188  0.00  0.00    -0.272 OA
ATOM     28  N   PHE A   1      -5.990  -3.977   4.821  0.00  0.00    -0.299 N 
ATOM     29  H   PHE A   1      -5.518  -4.522   5.470  0.00  0.00    +0.150 HD
BRANCH  28  30
ATOM     30  CA  PHE A   1      -7.451  -4.043   4.735  0.00  0.00    +0.191 C 
BRANCH  30  31
ATOM     31  C   PHE A   1      -7.847  -5.025   3.663  0.00  0.00    +0.376 C 
ATOM     32  O   PHE A   1      -7.005  -5.747   3.157  0.00  0.00    -0.244 OA
ATOM     33  OXT PHE A   1      -9.009  -5.097   3.301  0.00  0.00    -0.244 OA
ENDBRANCH  30  31
BRANCH  30  34
ATOM     34  CB  PHE A   1      -8.022  -4.498   6.079  0.00  0.00    +0.069 C 
BRANCH  34  35
ATOM     35  CG  PHE A   1      -7.731  -3.455   7.127  0.00  0.00    -0.045 A 
ATOM     36  CD2 PHE A   1      -6.560  -3.518   7.859  0.00  0.00    +0.004 A 
ATOM     37  CE2 PHE A   1      -6.293  -2.561   8.820  0.00  0.00    +0.000 A 
ATOM     38  CZ  PHE A   1      -7.197  -1.541   9.050  0.00  0.00    +0.000 A 
ATOM     39  CE1 PHE A   1      -8.367  -1.477   8.317  0.00  0.00    +0.000 A 
ATOM     40  CD1 PHE A   1      -8.632  -2.431   7.353  0.00  0.00    +0.004 A 
ENDBRANCH  34  35
ENDBRANCH  30  34
ENDBRANCH  28  30
ENDBRANCH  25  26
ENDBRANCH  24  25
ENDBRANCH   6  24
TORSDOF 8
