REMARK  Name = ZINC64435840
REMARK  5 active torsions:
REMARK  status: ('A' for Active; 'I' for Inactive)
REMARK    1  A    between atoms: C_1  and  C_2
REMARK    2  A    between atoms: C_2  and  C_4
REMARK    3  A    between atoms: C_2  and  N_17
REMARK    4  A    between atoms: N_6  and  C_7
REMARK    5  A    between atoms: N_23  and  C_26
REMARK                            x       y       z     vdW  Elec       q    Type
REMARK                         _______ _______ _______ _____ _____    ______ ____
ROOT
ATOM      1  N   UNL     1      -1.249  -0.633  -0.182  0.00  0.00    -0.288 N 
ATOM      2  C   UNL     1      -1.894  -0.743  -1.361  0.00  0.00    +0.303 C 
ATOM      3  O   UNL     1      -1.334  -0.425  -2.392  0.00  0.00    -0.253 OA
ATOM      4  N   UNL     1      -3.159  -1.205  -1.396  0.00  0.00    -0.283 N 
ATOM      5  C   UNL     1      -3.813  -1.690  -0.172  0.00  0.00    +0.128 C 
ATOM      6  C   UNL     1      -5.125  -0.920   0.022  0.00  0.00    +0.124 C 
ATOM      7  N   UNL     1      -5.876  -0.947  -1.241  0.00  0.00    -0.327 N 
ATOM      8  C   UNL     1      -5.223  -0.461  -2.464  0.00  0.00    +0.124 C 
ATOM      9  C   UNL     1      -3.913  -1.227  -2.657  0.00  0.00    +0.128 C 
ATOM     10  H   UNL     1      -1.668  -0.954   0.632  0.00  0.00    +0.151 HD
ENDROOT
BRANCH   7  11
ATOM     11  C   UNL     1      -7.189  -1.426  -1.277  0.00  0.00    +0.030 A 
ATOM     12  C   UNL     1      -7.845  -1.566  -2.493  0.00  0.00    +0.026 A 
ATOM     13  C   UNL     1      -9.142  -2.040  -2.527  0.00  0.00    +0.040 A 
ATOM     14  C   UNL     1      -9.788  -2.376  -1.349  0.00  0.00    +0.124 A 
ATOM     15  C   UNL     1      -9.136  -2.237  -0.136  0.00  0.00    +0.040 A 
ATOM     16  C   UNL     1      -7.837  -1.768  -0.098  0.00  0.00    +0.026 A 
ATOM     17  F   UNL     1     -11.057  -2.839  -1.384  0.00  0.00    -0.205 F 
ENDBRANCH   7  11
BRANCH   1  19
ATOM     18  C   UNL     1      -0.047   1.492  -0.033  0.00  0.00    +0.038 C 
ATOM     19  C   UNL     1       0.085  -0.029  -0.131  0.00  0.00    +0.158 C 
BRANCH  19  20
ATOM     20  C   UNL     1       0.825  -0.548   1.076  0.00  0.00    +0.237 C 
ATOM     21  O   UNL     1       0.290  -1.344   1.819  0.00  0.00    -0.273 OA
ATOM     22  N   UNL     1       2.080  -0.128   1.328  0.00  0.00    -0.284 N 
ATOM     23  H   UNL     1       2.532   0.455   0.698  0.00  0.00    +0.155 HD
BRANCH  22  24
ATOM     24  C   UNL     1       2.731  -0.532   2.500  0.00  0.00    +0.032 C 
ATOM     25  C   UNL     1       3.926  -1.138   2.395  0.00  0.00    +0.027 C 
ATOM     26  C   UNL     1       4.657  -1.526   3.646  0.00  0.00    +0.160 C 
ATOM     27  C   UNL     1       3.623  -1.766   4.729  0.00  0.00    -0.018 C 
ATOM     28  C   UNL     1       3.945  -2.950   5.277  0.00  0.00    +0.025 C 
ATOM     29  C   UNL     1       4.985  -3.546   4.529  0.00  0.00    +0.106 C 
ATOM     30  N   UNL     1       5.399  -2.776   3.561  0.00  0.00    -0.279 NA
ATOM     31  C   UNL     1       2.510  -0.920   4.911  0.00  0.00    +0.008 C 
ATOM     32  C   UNL     1       2.083  -0.270   3.787  0.00  0.00    +0.023 C 
ENDBRANCH  22  24
ENDBRANCH  19  20
ENDBRANCH   1  19
TORSDOF 4
