REMARK  Name = ZINC00940659
REMARK  4 active torsions:
REMARK  status: ('A' for Active; 'I' for Inactive)
REMARK    1  A    between atoms: C_1  and  C_2
REMARK    2  A    between atoms: C_3  and  C_26
REMARK    3  A    between atoms: C_4  and  C_19
REMARK    4  A    between atoms: C_10  and  C_12
REMARK                            x       y       z     vdW  Elec       q    Type
REMARK                         _______ _______ _______ _____ _____    ______ ____
ROOT
ATOM      1  C   UNL     1       0.637   1.237   0.151  0.00  0.00    +0.066 C 
ATOM      2  C   UNL     1       0.387  -0.246   0.058  0.00  0.00    +0.052 C 
ATOM      3  C   UNL     1      -0.884  -0.690  -0.180  0.00  0.00    +0.061 C 
ATOM      4  C   UNL     1      -1.089  -2.192  -0.267  0.00  0.00    +0.164 C 
ATOM      5  N   UNL     1       0.110  -3.018  -0.084  0.00  0.00    -0.207 N 
ATOM      6  C   UNL     1       1.315  -2.400   0.148  0.00  0.00    +0.237 C 
ATOM      7  N   UNL     1       1.405  -1.080   0.203  0.00  0.00    -0.218 NA
ATOM      8  N   UNL     1       2.242  -3.362   0.279  0.00  0.00    -0.196 NA
ATOM      9  C   UNL     1       1.690  -4.551   0.142  0.00  0.00    +0.146 C 
ATOM     10  N   UNL     1       0.349  -4.395  -0.088  0.00  0.00    -0.244 N 
ATOM     11  H   UNL     1      -0.304  -5.099  -0.226  0.00  0.00    +0.172 HD
ENDROOT
BRANCH   9  12
ATOM     12  C   UNL     1       2.401  -5.841   0.223  0.00  0.00    +0.016 A 
ATOM     13  C   UNL     1       1.703  -7.040   0.054  0.00  0.00    +0.013 A 
ATOM     14  C   UNL     1       2.373  -8.242   0.131  0.00  0.00    +0.021 A 
ATOM     15  C   UNL     1       3.737  -8.263   0.376  0.00  0.00    +0.041 A 
ATOM     16  C   UNL     1       4.435  -7.079   0.545  0.00  0.00    +0.021 A 
ATOM     17  C   UNL     1       3.777  -5.870   0.464  0.00  0.00    +0.013 A 
ATOM     18 CL   UNL     1       4.574  -9.781   0.472  0.00  0.00    -0.084 Cl
ENDBRANCH   9  12
BRANCH   4  19
ATOM     19  C   UNL     1      -1.672  -2.509  -1.620  0.00  0.00    -0.021 A 
ATOM     20  C   UNL     1      -0.888  -2.397  -2.753  0.00  0.00    +0.007 A 
ATOM     21  C   UNL     1      -1.422  -2.688  -3.994  0.00  0.00    +0.015 A 
ATOM     22  C   UNL     1      -2.740  -3.092  -4.103  0.00  0.00    +0.018 A 
ATOM     23  C   UNL     1      -3.524  -3.204  -2.968  0.00  0.00    +0.015 A 
ATOM     24  C   UNL     1      -2.988  -2.918  -1.727  0.00  0.00    +0.007 A 
ATOM     25 BR   UNL     1      -3.471  -3.490  -5.801  0.00  0.00    -0.050 Br
ENDBRANCH   4  19
BRANCH   3  26
ATOM     26  C   UNL     1      -1.956   0.207  -0.338  0.00  0.00    +0.241 C 
ATOM     27  O   UNL     1      -1.746   1.407  -0.379  0.00  0.00    -0.271 OA
ATOM     28  N   UNL     1      -3.216  -0.260  -0.445  0.00  0.00    -0.325 N 
ATOM     29  H   UNL     1      -3.392  -1.208  -0.336  0.00  0.00    +0.145 HD
ATOM     30  H   UNL     1      -3.946   0.351  -0.630  0.00  0.00    +0.145 HD
ENDBRANCH   3  26
TORSDOF 3
