REMARK  Name = ZINC39667559
REMARK  7 active torsions:
REMARK  status: ('A' for Active; 'I' for Inactive)
REMARK    1  A    between atoms: C_1  and  C_2
REMARK    2  A    between atoms: C_6  and  C_9
REMARK    3  A    between atoms: C_7  and  C_8
REMARK    4  A    between atoms: C_9  and  N_10
REMARK    5  A    between atoms: C_11  and  C_13
REMARK    6  A    between atoms: C_24  and  C_26
REMARK    7  A    between atoms: C_30  and  C_32
REMARK                            x       y       z     vdW  Elec       q    Type
REMARK                         _______ _______ _______ _____ _____    ______ ____
ROOT
ATOM      1  C   UNL     1      -3.607  -3.470   4.815  0.00  0.00    +0.100 C 
ATOM      2  C   UNL     1      -4.261  -4.266   3.664  0.00  0.00    +0.121 C 
ATOM      3  N   UNL     1      -4.219  -5.677   4.114  0.00  0.00    -0.296 N 
ATOM      4  C   UNL     1      -4.527  -5.612   5.563  0.00  0.00    +0.115 C 
ATOM      5  C   UNL     1      -3.787  -4.355   6.060  0.00  0.00    -0.004 C 
ATOM      6  C   UNL     1      -4.624  -3.628   7.109  0.00  0.00    -0.010 C 
ATOM      7  C   UNL     1      -4.740  -4.504   8.359  0.00  0.00    -0.082 C 
ATOM      8  N   UNL     1      -3.399  -4.789   8.886  0.00  0.00    +0.379 N 
ATOM      9  C   UNL     1      -2.632  -5.569   7.907  0.00  0.00    -0.082 C 
ATOM     10  C   UNL     1      -2.427  -4.738   6.637  0.00  0.00    -0.010 C 
ATOM     11  C   UNL     1      -3.960  -6.773   3.373  0.00  0.00    +0.247 C 
ATOM     12  O   UNL     1      -3.600  -6.654   2.218  0.00  0.00    -0.270 OA
ATOM     13  H   UNL     1      -2.921  -3.920   9.071  0.00  0.00    -0.086 HD
ATOM     14  H   UNL     1      -3.481  -5.314   9.743  0.00  0.00    -0.086 HD
ENDROOT
BRANCH  11  15
ATOM     15  C   UNL     1      -4.113  -8.118   3.965  0.00  0.00    +0.037 A 
ATOM     16  C   UNL     1      -4.914  -8.301   5.094  0.00  0.00    +0.014 A 
ATOM     17  C   UNL     1      -5.052  -9.558   5.642  0.00  0.00    +0.016 A 
ATOM     18  C   UNL     1      -4.399 -10.640   5.075  0.00  0.00    +0.021 A 
ATOM     19  C   UNL     1      -3.603 -10.466   3.955  0.00  0.00    -0.036 A 
ATOM     20  C   UNL     1      -3.462  -9.213   3.395  0.00  0.00    +0.017 A 
ATOM     21  C   UNL     1      -2.896 -11.648   3.344  0.00  0.00    +0.045 C 
ATOM     22 BR   UNL     1      -4.594 -12.361   5.833  0.00  0.00    -0.050 Br
ENDBRANCH  11  15
BRANCH   1  24
ATOM     23  N   UNL     1      -1.494  -2.216   5.107  0.00  0.00    -0.311 N 
ATOM     24  C   UNL     1      -2.143  -3.250   4.535  0.00  0.00    +0.218 C 
ATOM     25  O   UNL     1      -1.547  -4.003   3.794  0.00  0.00    -0.275 OA
ATOM     26  H   UNL     1      -1.970  -1.613   5.700  0.00  0.00    +0.149 HD
BRANCH  23  27
ATOM     27  C   UNL     1      -0.071  -2.003   4.835  0.00  0.00    +0.139 C 
BRANCH  27  33
ATOM     28  C   UNL     1       1.490   0.111   9.094  0.00  0.00    +0.044 C 
ATOM     29  C   UNL     1       1.155   0.221   7.628  0.00  0.00    -0.047 A 
ATOM     30  C   UNL     1       1.288   1.433   6.978  0.00  0.00    +0.003 A 
ATOM     31  C   UNL     1       0.981   1.534   5.634  0.00  0.00    +0.001 A 
ATOM     32  C   UNL     1       0.541   0.422   4.940  0.00  0.00    +0.005 A 
ATOM     33  C   UNL     1       0.409  -0.790   5.590  0.00  0.00    -0.027 A 
ATOM     34  C   UNL     1       0.720  -0.892   6.934  0.00  0.00    -0.043 A 
ATOM     35  C   UNL     1       0.581  -2.215   7.641  0.00  0.00    +0.044 C 
ENDBRANCH  27  33
ENDBRANCH  23  27
ENDBRANCH   1  24
TORSDOF 4
