REMARK  Name = ZINC09155051
REMARK  8 active torsions:
REMARK  status: ('A' for Active; 'I' for Inactive)
REMARK    1  A    between atoms: C_1  and  N_2
REMARK    2  A    between atoms: N_2  and  C_3
REMARK    3  A    between atoms: C_8  and  C_9
REMARK    4  A    between atoms: N_11  and  C_12
REMARK    5  A    between atoms: C_12  and  C_13
REMARK    6  A    between atoms: C_18  and  C_20
REMARK    7  A    between atoms: C_20  and  N_59
REMARK    8  A    between atoms: C_28  and  C_30
REMARK                            x       y       z     vdW  Elec       q    Type
REMARK                         _______ _______ _______ _____ _____    ______ ____
ROOT
ATOM      1  C   UNL     1       2.009   3.179  -5.069  0.00  0.00    +0.138 C 
ATOM      2  N   UNL     1       3.111   3.972  -4.520  0.00  0.00    -0.275 N 
ATOM      3  C   UNL     1       3.239   4.114  -3.186  0.00  0.00    +0.203 C 
ATOM      4  O   UNL     1       4.151   4.770  -2.730  0.00  0.00    -0.277 OA
ENDROOT
BRANCH   2   5
ATOM      5  C   UNL     1       4.027   4.579  -5.376  0.00  0.00    +0.048 A 
ATOM      6  C   UNL     1       5.173   3.900  -5.766  0.00  0.00    +0.024 A 
ATOM      7  C   UNL     1       6.079   4.504  -6.614  0.00  0.00    +0.002 A 
ATOM      8  C   UNL     1       5.853   5.788  -7.083  0.00  0.00    +0.001 A 
ATOM      9  C   UNL     1       4.721   6.477  -6.707  0.00  0.00    +0.015 A 
ATOM     10  C   UNL     1       3.792   5.877  -5.853  0.00  0.00    +0.058 A 
BRANCH  10  11
ATOM     11  C   UNL     1       2.575   6.607  -5.450  0.00  0.00    +0.246 C 
ATOM     12  O   UNL     1       1.771   6.083  -4.704  0.00  0.00    -0.270 OA
ATOM     13  N   UNL     1       2.353   7.854  -5.911  0.00  0.00    -0.304 N 
ATOM     14  H   UNL     1       2.995   8.272  -6.507  0.00  0.00    +0.149 HD
BRANCH  13  15
ATOM     15  C   UNL     1       1.144   8.578  -5.512  0.00  0.00    +0.179 C 
BRANCH  15  16
ATOM     16  C   UNL     1       1.137   9.939  -6.159  0.00  0.00    +0.122 A 
ATOM     17  C   UNL     1       0.603  10.238  -7.357  0.00  0.00    +0.046 A 
ATOM     18  C   UNL     1       0.820  11.619  -7.569  0.00  0.00    +0.041 A 
ATOM     19  C   UNL     1       1.474  12.081  -6.489  0.00  0.00    +0.195 A 
ATOM     20  O   UNL     1       1.659  11.061  -5.635  0.00  0.00    -0.466 OA
ENDBRANCH  15  16
ENDBRANCH  13  15
ENDBRANCH  10  11
ENDBRANCH   2   5
BRANCH   3  21
ATOM     21  C   UNL     1       2.248   3.457  -2.259  0.00  0.00    +0.020 C 
BRANCH  21  30
ATOM     22  C   UNL     1       3.881   3.416  -0.471  0.00  0.00    -0.072 C 
ATOM     23  C   UNL     1       3.982   3.473   1.062  0.00  0.00    +0.024 C 
ATOM     24  C   UNL     1       3.424   4.786   1.506  0.00  0.00    -0.010 A 
ATOM     25  C   UNL     1       2.681   5.649   0.758  0.00  0.00    -0.046 A 
ATOM     26  C   UNL     1       2.270   6.822   1.386  0.00  0.00    +0.010 A 
ATOM     27  C   UNL     1       2.612   7.055   2.675  0.00  0.00    +0.045 A 
ATOM     28  S   UNL     1       3.556   5.592   3.077  0.00  0.00    -0.101 S 
ATOM     29  C   UNL     1       2.345   5.295  -0.688  0.00  0.00    +0.002 C 
ATOM     30  N   UNL     1       2.511   3.832  -0.857  0.00  0.00    +0.393 N 
ATOM     31  H   UNL     1       1.836   3.351  -0.251  0.00  0.00    -0.080 HD
BRANCH  29  32
ATOM     32  C   UNL     1       0.912   5.658  -0.978  0.00  0.00    -0.019 A 
ATOM     33  C   UNL     1       0.419   6.748  -1.614  0.00  0.00    +0.010 A 
ATOM     34  C   UNL     1      -0.949   6.873  -1.768  0.00  0.00    +0.008 A 
ATOM     35  C   UNL     1      -1.757   5.901  -1.278  0.00  0.00    +0.045 A 
ATOM     36  S   UNL     1      -0.578   4.762  -0.572  0.00  0.00    -0.103 S 
ENDBRANCH  29  32
ENDBRANCH  21  30
ENDBRANCH   3  21
TORSDOF 7
