REMARK  Name = ZINC34988619
REMARK  5 active torsions:
REMARK  status: ('A' for Active; 'I' for Inactive)
REMARK    1  A    between atoms: C_1  and  C_2
REMARK    2  A    between atoms: C_9  and  N_22
REMARK    3  A    between atoms: C_10  and  C_11
REMARK    4  A    between atoms: N_13  and  C_14
REMARK    5  A    between atoms: C_23  and  C_25
REMARK                            x       y       z     vdW  Elec       q    Type
REMARK                         _______ _______ _______ _____ _____    ______ ____
ROOT
ATOM      1  C   UNL     1      -0.019   1.526   0.010  0.00  0.00    +0.008 C 
ATOM      2  C   UNL     1       0.002  -0.004   0.002  0.00  0.00    -0.009 C 
ATOM      3  C   UNL     1       0.724  -0.500  -1.254  0.00  0.00    +0.008 C 
ATOM      4  C   UNL     1       0.537  -2.012  -1.399  0.00  0.00    +0.037 C 
ATOM      5  C   UNL     1       0.935  -2.680  -0.091  0.00  0.00    -0.023 A 
ATOM      6  C   UNL     1       1.019  -1.977   1.059  0.00  0.00    -0.004 A 
ATOM      7  S   UNL     1       1.508  -3.164   2.276  0.00  0.00    -0.077 S 
ATOM      8  C   UNL     1       1.599  -4.539   1.315  0.00  0.00    +0.085 A 
ATOM      9  C   UNL     1       1.254  -4.090   0.050  0.00  0.00    +0.069 A 
ATOM     10  C   UNL     1       0.750  -0.515   1.242  0.00  0.00    +0.046 C 
ENDROOT
BRANCH   9  11
ATOM     11  C   UNL     1       1.213  -5.001  -1.098  0.00  0.00    +0.247 C 
ATOM     12  O   UNL     1       2.209  -5.170  -1.777  0.00  0.00    -0.270 OA
ATOM     13  N   UNL     1       0.072  -5.651  -1.402  0.00  0.00    -0.307 N 
ATOM     14  H   UNL     1      -0.722  -5.516  -0.861  0.00  0.00    +0.149 HD
BRANCH  13  15
ATOM     15  C   UNL     1       0.030  -6.561  -2.549  0.00  0.00    +0.096 C 
ATOM     16  C   UNL     1       0.522  -7.952  -2.115  0.00  0.00    +0.046 C 
ATOM     17  C   UNL     1       0.176  -8.963  -3.246  0.00  0.00    +0.168 C 
ATOM     18  S   UNL     1      -1.507  -8.379  -3.717  0.00  0.00    -0.029 S 
ATOM     19  O   UNL     1      -2.474  -9.102  -2.968  0.00  0.00    -0.174 OA
ATOM     20  O   UNL     1      -1.604  -8.343  -5.134  0.00  0.00    -0.174 OA
ATOM     21  C   UNL     1      -1.421  -6.657  -3.077  0.00  0.00    +0.188 C 
ENDBRANCH  13  15
ENDBRANCH   9  11
BRANCH   8  22
ATOM     22  N   UNL     1       1.941  -5.825   1.699  0.00  0.00    -0.275 N 
ATOM     23  C   UNL     1       2.251  -6.084   2.985  0.00  0.00    +0.257 C 
ATOM     24  O   UNL     1       2.231  -5.189   3.809  0.00  0.00    -0.269 OA
ATOM     25  H   UNL     1       1.958  -6.539   1.043  0.00  0.00    +0.156 HD
BRANCH  23  26
ATOM     26  C   UNL     1       2.614  -7.447   3.392  0.00  0.00    +0.094 A 
ATOM     27  C   UNL     1       2.948  -7.902   4.631  0.00  0.00    +0.068 A 
ATOM     28  C   UNL     1       3.267  -9.260   4.816  0.00  0.00    +0.008 A 
ATOM     29  C   UNL     1       3.637  -9.919   6.017  0.00  0.00    +0.010 A 
ATOM     30  C   UNL     1       3.915 -11.248   6.022  0.00  0.00    +0.001 A 
ATOM     31  C   UNL     1       3.849 -12.011   4.863  0.00  0.00    +0.001 A 
ATOM     32  C   UNL     1       3.493 -11.410   3.673  0.00  0.00    +0.016 A 
ATOM     33  C   UNL     1       3.208 -10.061   3.652  0.00  0.00    +0.021 A 
ATOM     34  S   UNL     1       2.716  -8.918   2.386  0.00  0.00    -0.082 S 
ATOM     35 CL   UNL     1       2.983  -6.808   5.979  0.00  0.00    -0.082 Cl
ENDBRANCH  23  26
ENDBRANCH   8  22
TORSDOF 4
