REMARK  Name = ZINC19848268
REMARK  12 active torsions:
REMARK  status: ('A' for Active; 'I' for Inactive)
REMARK    1  A    between atoms: C_1  and  C_2
REMARK    2  A    between atoms: C_3  and  C_32
REMARK    3  A    between atoms: C_4  and  C_20
REMARK    4  A    between atoms: C_10  and  C_15
REMARK    5  A    between atoms: C_22  and  N_29
REMARK    6  A    between atoms: C_24  and  O_26
REMARK    7  A    between atoms: O_26  and  C_27
REMARK    8  A    between atoms: C_32  and  O_34
REMARK    9  A    between atoms: O_34  and  C_35
REMARK   10  A    between atoms: C_35  and  C_36
REMARK   11  A    between atoms: C_36  and  C_37
REMARK   12  A    between atoms: C_36  and  C_38
REMARK                            x       y       z     vdW  Elec       q    Type
REMARK                         _______ _______ _______ _____ _____    ______ ____
ROOT
ATOM      1  C   UNL     1       7.204   1.507  -2.661  0.00  0.00    +0.061 C 
ATOM      2  C   UNL     1       6.356   2.559  -1.993  0.00  0.00    +0.016 C 
ATOM      3  C   UNL     1       5.913   2.362  -0.739  0.00  0.00    +0.065 C 
ATOM      4  C   UNL     1       5.059   3.382  -0.045  0.00  0.00    +0.092 C 
ATOM      5  C   UNL     1       5.157   4.723  -0.729  0.00  0.00    +0.024 C 
ATOM      6  C   UNL     1       5.636   4.824  -1.986  0.00  0.00    +0.016 C 
ATOM      7  N   UNL     1       6.042   3.707  -2.666  0.00  0.00    -0.321 N 
ATOM      8  C   UNL     1       5.742   6.162  -2.674  0.00  0.00    +0.060 C 
ATOM      9  C   UNL     1       4.639   7.092  -2.162  0.00  0.00    +0.039 C 
ATOM     10  C   UNL     1       4.788   7.231  -0.643  0.00  0.00    +0.088 C 
ATOM     11  C   UNL     1       4.736   5.863  -0.019  0.00  0.00    +0.162 C 
ATOM     12  O   UNL     1       4.323   5.740   1.117  0.00  0.00    -0.292 OA
ATOM     13  H   UNL     1       6.114   3.738  -3.763  0.00  0.00    +0.152 HD
ENDROOT
BRANCH   4  14
ATOM     14  C   UNL     1       3.624   2.922  -0.063  0.00  0.00    -0.029 A 
ATOM     15  C   UNL     1       2.979   2.721  -1.270  0.00  0.00    +0.041 A 
ATOM     16  C   UNL     1       1.663   2.300  -1.291  0.00  0.00    +0.177 A 
ATOM     17  C   UNL     1       0.987   2.076  -0.102  0.00  0.00    +0.250 A 
ATOM     18  C   UNL     1       1.635   2.283   1.112  0.00  0.00    +0.169 A 
ATOM     19  C   UNL     1       2.956   2.701   1.127  0.00  0.00    +0.054 A 
ATOM     20  O   UNL     1      -0.308   1.661  -0.122  0.00  0.00    -0.282 OA
BRANCH  16  21
ATOM     21  N   UNL     1       0.975   2.086  -2.584  0.00  0.00    +0.060 N 
ATOM     22  O   UNL     1       1.569   2.282  -3.630  0.00  0.00    -0.126 OA
ATOM     23  O   UNL     1      -0.185   1.714  -2.603  0.00  0.00    -0.126 OA
ENDBRANCH  16  21
BRANCH  18  24
ATOM     24  O   UNL     1       0.974   2.071   2.282  0.00  0.00    -0.491 OA
ATOM     25  C   UNL     1       1.702   2.303   3.489  0.00  0.00    +0.277 C 
ENDBRANCH  18  24
ENDBRANCH   4  14
BRANCH   9  26
ATOM     26  C   UNL     1       4.777   8.446  -2.810  0.00  0.00    -0.006 A 
ATOM     27  C   UNL     1       3.891   9.113  -3.589  0.00  0.00    +0.011 A 
ATOM     28  C   UNL     1       4.235  10.358  -4.080  0.00  0.00    +0.008 A 
ATOM     29  C   UNL     1       5.448  10.876  -3.768  0.00  0.00    +0.045 A 
ATOM     30  S   UNL     1       6.146   9.590  -2.744  0.00  0.00    -0.101 S 
ENDBRANCH   9  26
BRANCH   3  31
ATOM     31  C   UNL     1       6.258   1.169  -0.060  0.00  0.00    +0.338 C 
ATOM     32  O   UNL     1       7.093   1.192   0.824  0.00  0.00    -0.245 OA
BRANCH  31  33
ATOM     33  O   UNL     1       5.660   0.006  -0.395  0.00  0.00    -0.461 OA
BRANCH  33  34
ATOM     34  C   UNL     1       6.057  -1.159   0.332  0.00  0.00    +0.235 C 
BRANCH  34  35
ATOM     35  C   UNL     1       5.278  -2.371  -0.183  0.00  0.00    +0.020 C 
ATOM     36  C   UNL     1       5.668  -2.648  -1.636  0.00  0.00    +0.010 C 
ATOM     37  C   UNL     1       5.610  -3.593   0.676  0.00  0.00    +0.010 C 
ENDBRANCH  34  35
ENDBRANCH  33  34
ENDBRANCH  31  33
ENDBRANCH   3  31
TORSDOF 8
