REMARK  Name = ZINC39686999
REMARK  7 active torsions:
REMARK  status: ('A' for Active; 'I' for Inactive)
REMARK    1  A    between atoms: C_1  and  C_2
REMARK    2  A    between atoms: C_4  and  C_9
REMARK    3  A    between atoms: C_13  and  C_22
REMARK    4  A    between atoms: N_24  and  C_25
REMARK    5  A    between atoms: C_25  and  C_27
REMARK    6  A    between atoms: C_25  and  C_28
REMARK    7  A    between atoms: C_28  and  C_29
REMARK                            x       y       z     vdW  Elec       q    Type
REMARK                         _______ _______ _______ _____ _____    ______ ____
ROOT
ATOM      1  C   UNL     1      -0.953  -1.957  -2.131  0.00  0.00    +0.247 C 
ATOM      2  O   UNL     1      -1.125  -1.378  -3.186  0.00  0.00    -0.270 OA
ATOM      3  N   UNL     1      -0.569  -3.249  -2.127  0.00  0.00    -0.296 N 
ATOM      4  C   UNL     1      -0.424  -4.149  -0.958  0.00  0.00    +0.121 C 
ATOM      5  C   UNL     1      -0.960  -5.513  -1.447  0.00  0.00    +0.100 C 
ATOM      6  C   UNL     1      -0.807  -5.469  -2.977  0.00  0.00    -0.004 C 
ATOM      7  C   UNL     1      -0.203  -4.092  -3.290  0.00  0.00    +0.115 C 
ATOM      8  C   UNL     1      -2.170  -5.606  -3.649  0.00  0.00    -0.010 C 
ATOM      9  C   UNL     1      -1.986  -5.617  -5.169  0.00  0.00    -0.082 C 
ATOM     10  N   UNL     1      -1.116  -6.736  -5.550  0.00  0.00    +0.379 N 
ATOM     11  C   UNL     1       0.222  -6.549  -4.975  0.00  0.00    -0.082 C 
ATOM     12  C   UNL     1       0.131  -6.577  -3.446  0.00  0.00    -0.010 C 
ATOM     13  H   UNL     1      -1.510  -7.599  -5.207  0.00  0.00    -0.086 HD
ATOM     14  H   UNL     1      -1.045  -6.778  -6.556  0.00  0.00    -0.086 HD
ENDROOT
BRANCH   1  18
ATOM     15  C   UNL     1      -2.915   1.867   0.404  0.00  0.00    +0.045 C 
ATOM     16  C   UNL     1      -2.108   0.594   0.370  0.00  0.00    -0.036 A 
ATOM     17  C   UNL     1      -1.913  -0.066  -0.825  0.00  0.00    +0.017 A 
ATOM     18  C   UNL     1      -1.165  -1.244  -0.854  0.00  0.00    +0.037 A 
ATOM     19  C   UNL     1      -0.620  -1.747   0.329  0.00  0.00    +0.014 A 
ATOM     20  C   UNL     1      -0.822  -1.078   1.517  0.00  0.00    +0.016 A 
ATOM     21  C   UNL     1      -1.560   0.093   1.539  0.00  0.00    +0.021 A 
ATOM     22 BR   UNL     1      -1.825   1.009   3.172  0.00  0.00    -0.050 Br
ENDBRANCH   1  18
BRANCH   5  23
ATOM     23  C   UNL     1      -2.409  -5.674  -1.067  0.00  0.00    +0.218 C 
ATOM     24  O   UNL     1      -3.138  -4.705  -1.030  0.00  0.00    -0.275 OA
ATOM     25  N   UNL     1      -2.896  -6.895  -0.768  0.00  0.00    -0.312 N 
ATOM     26  H   UNL     1      -2.334  -7.679  -0.869  0.00  0.00    +0.149 HD
BRANCH  25  27
ATOM     27  C   UNL     1      -4.273  -7.037  -0.289  0.00  0.00    +0.074 C 
ATOM     28  C   UNL     1      -5.215  -7.188  -1.486  0.00  0.00    +0.028 C 
BRANCH  27  29
ATOM     29  C   UNL     1      -4.378  -8.277   0.602  0.00  0.00    +0.060 C 
BRANCH  29  30
ATOM     30  C   UNL     1      -3.538  -8.080   1.837  0.00  0.00    -0.010 A 
ATOM     31  C   UNL     1      -2.268  -8.620   1.903  0.00  0.00    +0.006 A 
ATOM     32  C   UNL     1      -1.497  -8.440   3.036  0.00  0.00    +0.000 A 
ATOM     33  C   UNL     1      -1.996  -7.718   4.105  0.00  0.00    +0.003 A 
ATOM     34  C   UNL     1      -3.265  -7.176   4.041  0.00  0.00    +0.038 A 
ATOM     35  C   UNL     1      -4.036  -7.352   2.904  0.00  0.00    +0.127 A 
ATOM     36  F   UNL     1      -5.276  -6.818   2.839  0.00  0.00    -0.205 F 
ENDBRANCH  29  30
ENDBRANCH  27  29
ENDBRANCH  25  27
ENDBRANCH   5  23
TORSDOF 5
