REMARK  Name = ZINC36220923
REMARK  11 active torsions:
REMARK  status: ('A' for Active; 'I' for Inactive)
REMARK    1  A    between atoms: C_1  and  C_2
REMARK    2  A    between atoms: C_2  and  C_3
REMARK    3  A    between atoms: C_2  and  C_4
REMARK    4  A    between atoms: C_4  and  C_5
REMARK    5  A    between atoms: C_5  and  N_6
REMARK    6  A    between atoms: C_7  and  C_9
REMARK    7  A    between atoms: C_11  and  C_25
REMARK    8  A    between atoms: N_16  and  C_17
REMARK    9  A    between atoms: C_17  and  C_18
REMARK   10  A    between atoms: C_28  and  N_31
REMARK   11  A    between atoms: C_32  and  C_34
REMARK                            x       y       z     vdW  Elec       q    Type
REMARK                         _______ _______ _______ _____ _____    ______ ____
ROOT
ATOM      1  C   UNL     1      -4.390  -4.202  -0.132  0.00  0.00    +0.210 C 
ATOM      2  C   UNL     1      -4.955  -4.552   1.266  0.00  0.00    +0.238 C 
ATOM      3  O   UNL     1      -4.669  -5.961   1.361  0.00  0.00    -0.440 OA
ATOM      4  C   UNL     1      -4.614  -6.458   0.114  0.00  0.00    +0.405 C 
ATOM      5  O   UNL     1      -4.717  -7.642  -0.143  0.00  0.00    -0.226 OA
ATOM      6  N   UNL     1      -4.432  -5.504  -0.826  0.00  0.00    -0.248 N 
ENDROOT
BRANCH   2   7
ATOM      7  C   UNL     1      -6.439  -4.298   1.325  0.00  0.00    -0.005 A 
ATOM      8  C   UNL     1      -7.323  -5.271   0.894  0.00  0.00    +0.009 A 
ATOM      9  C   UNL     1      -8.684  -5.042   0.948  0.00  0.00    +0.024 A 
ATOM     10  C   UNL     1      -9.165  -3.833   1.435  0.00  0.00    +0.034 A 
ATOM     11  C   UNL     1      -8.274  -2.858   1.866  0.00  0.00    +0.024 A 
ATOM     12  C   UNL     1      -6.915  -3.095   1.815  0.00  0.00    +0.009 A 
BRANCH  10  13
ATOM     13  N   UNL     1     -10.542  -3.597   1.490  0.00  0.00    -0.281 N 
ATOM     14  C   UNL     1     -11.021  -2.352   1.296  0.00  0.00    +0.255 C 
ATOM     15  O   UNL     1     -10.266  -1.452   0.980  0.00  0.00    -0.269 OA
ATOM     16  H   UNL     1     -11.153  -4.330   1.667  0.00  0.00    +0.155 HD
BRANCH  14  17
ATOM     17  C   UNL     1     -12.451  -2.083   1.468  0.00  0.00    +0.074 A 
ATOM     18  C   UNL     1     -13.141  -0.890   1.314  0.00  0.00    +0.021 A 
ATOM     19  C   UNL     1     -14.494  -0.948   1.545  0.00  0.00    +0.008 A 
ATOM     20  C   UNL     1     -15.052  -2.132   1.899  0.00  0.00    +0.046 A 
ATOM     21  S   UNL     1     -13.760  -3.206   1.921  0.00  0.00    -0.092 S 
ENDBRANCH  14  17
ENDBRANCH  10  13
ENDBRANCH   2   7
BRANCH   1  23
ATOM     22  N   UNL     1      -2.743  -2.402   0.277  0.00  0.00    -0.314 N 
ATOM     23  C   UNL     1      -2.975  -3.694  -0.026  0.00  0.00    +0.238 C 
ATOM     24  O   UNL     1      -2.045  -4.449  -0.215  0.00  0.00    -0.274 OA
ATOM     25  H   UNL     1      -3.487  -1.798   0.428  0.00  0.00    +0.149 HD
BRANCH  22  26
ATOM     26  C   UNL     1      -1.367  -1.909   0.379  0.00  0.00    +0.104 C 
BRANCH  26  27
ATOM     27  C   UNL     1      -1.384  -0.420   0.732  0.00  0.00    +0.022 C 
BRANCH  27  29
ATOM     28  C   UNL     1       0.036   1.607   1.067  0.00  0.00    +0.007 C 
ATOM     29  C   UNL     1       0.053   0.095   0.839  0.00  0.00    -0.016 C 
ATOM     30  C   UNL     1       0.754  -0.591   2.012  0.00  0.00    +0.007 C 
ENDBRANCH  27  29
ENDBRANCH  26  27
ENDBRANCH  22  26
ENDBRANCH   1  23
BRANCH   6  31
ATOM     31  C   UNL     1      -4.300  -5.718  -2.269  0.00  0.00    +0.147 C 
BRANCH  31  32
ATOM     32  C   UNL     1      -2.847  -5.915  -2.617  0.00  0.00    -0.027 A 
ATOM     33  C   UNL     1      -2.059  -4.824  -2.936  0.00  0.00    +0.005 A 
ATOM     34  C   UNL     1      -0.726  -5.003  -3.255  0.00  0.00    +0.003 A 
ATOM     35  C   UNL     1      -0.180  -6.272  -3.257  0.00  0.00    +0.038 A 
ATOM     36  C   UNL     1      -0.967  -7.365  -2.938  0.00  0.00    +0.124 A 
ATOM     37  C   UNL     1      -2.301  -7.184  -2.612  0.00  0.00    +0.043 A 
ATOM     38  F   UNL     1      -0.434  -8.606  -2.940  0.00  0.00    -0.205 F 
ENDBRANCH  31  32
ENDBRANCH   6  31
TORSDOF 9
