REMARK  Name = ZINC09781164
REMARK  8 active torsions:
REMARK  status: ('A' for Active; 'I' for Inactive)
REMARK    1  A    between atoms: C_1  and  C_2
REMARK    2  A    between atoms: C_7  and  N_8
REMARK    3  A    between atoms: C_9  and  C_11
REMARK    4  A    between atoms: C_12  and  C_35
REMARK    5  A    between atoms: C_16  and  S_27
REMARK    6  A    between atoms: C_19  and  C_21
REMARK    7  A    between atoms: S_27  and  C_28
REMARK    8  A    between atoms: C_28  and  C_29
REMARK                            x       y       z     vdW  Elec       q    Type
REMARK                         _______ _______ _______ _____ _____    ______ ____
ROOT
ATOM      1  C   UNL     1      -0.142   0.002   4.795  0.00  0.00    +0.061 C 
ATOM      2  C   UNL     1      -0.137  -0.655   5.994  0.00  0.00    +0.026 C 
ATOM      3  N   UNL     1      -0.252  -0.013   7.146  0.00  0.00    -0.330 N 
ATOM      4  C   UNL     1      -0.381   1.301   7.270  0.00  0.00    +0.215 C 
ATOM      5  N   UNL     1      -0.506   2.083   8.350  0.00  0.00    -0.192 NA
ATOM      6  C   UNL     1      -0.608   3.350   7.990  0.00  0.00    +0.174 C 
ATOM      7  N   UNL     1      -0.550   3.429   6.625  0.00  0.00    -0.239 N 
ATOM      8  N   UNL     1      -0.405   2.118   6.164  0.00  0.00    -0.207 N 
ATOM      9  C   UNL     1      -0.279   1.514   4.832  0.00  0.00    +0.182 C 
ATOM     10  C   UNL     1       0.003  -2.156   6.005  0.00  0.00    +0.064 C 
ATOM     11  H   UNL     1      -0.241  -0.543   7.958  0.00  0.00    +0.168 HD
ATOM     12  H   UNL     1      -0.600   4.233   6.085  0.00  0.00    +0.172 HD
ENDROOT
BRANCH   9  13
ATOM     13  C   UNL     1       0.926   2.112   4.152  0.00  0.00    +0.068 A 
ATOM     14  C   UNL     1       0.750   2.998   3.106  0.00  0.00    +0.025 A 
ATOM     15  C   UNL     1       1.865   3.542   2.487  0.00  0.00    +0.003 A 
ATOM     16  C   UNL     1       3.120   3.172   2.946  0.00  0.00    +0.020 A 
ATOM     17  C   UNL     1       3.218   2.281   3.997  0.00  0.00    +0.111 A 
ATOM     18  N   UNL     1       2.135   1.787   4.566  0.00  0.00    -0.258 NA
ENDBRANCH   9  13
BRANCH   1  20
ATOM     19  N   UNL     1      -0.168  -0.036   2.411  0.00  0.00    -0.281 N 
ATOM     20  C   UNL     1      -0.020  -0.692   3.579  0.00  0.00    +0.248 C 
ATOM     21  O   UNL     1       0.219  -1.887   3.581  0.00  0.00    -0.270 OA
ATOM     22  H   UNL     1      -0.331   0.920   2.409  0.00  0.00    +0.155 HD
BRANCH  19  29
ATOM     23  C   UNL     1      -1.779   0.846   0.238  0.00  0.00    +0.045 C 
ATOM     24  C   UNL     1      -0.854  -0.338   0.116  0.00  0.00    -0.029 A 
ATOM     25  C   UNL     1      -0.766  -1.026  -1.079  0.00  0.00    +0.005 A 
ATOM     26  C   UNL     1       0.082  -2.112  -1.192  0.00  0.00    +0.000 A 
ATOM     27  C   UNL     1       0.845  -2.513  -0.110  0.00  0.00    +0.002 A 
ATOM     28  C   UNL     1       0.761  -1.830   1.087  0.00  0.00    +0.023 A 
ATOM     29  C   UNL     1      -0.085  -0.734   1.202  0.00  0.00    +0.037 A 
ENDBRANCH  19  29
ENDBRANCH   1  20
BRANCH   6  30
ATOM     30  S   UNL     1      -0.788   4.716   9.088  0.00  0.00    -0.084 S 
BRANCH  30  31
ATOM     31  C   UNL     1      -0.796   3.957  10.735  0.00  0.00    +0.112 C 
BRANCH  31  32
ATOM     32  C   UNL     1      -0.947   5.031  11.782  0.00  0.00    -0.037 A 
ATOM     33  C   UNL     1       0.175   5.639  12.315  0.00  0.00    +0.004 A 
ATOM     34  C   UNL     1       0.036   6.624  13.276  0.00  0.00    +0.000 A 
ATOM     35  C   UNL     1      -1.224   7.000  13.703  0.00  0.00    +0.000 A 
ATOM     36  C   UNL     1      -2.345   6.393  13.169  0.00  0.00    +0.000 A 
ATOM     37  C   UNL     1      -2.206   5.411  12.206  0.00  0.00    +0.004 A 
ENDBRANCH  31  32
ENDBRANCH  30  31
ENDBRANCH   6  30
TORSDOF 6
