REMARK  Name = ZINC13187553
REMARK  9 active torsions:
REMARK  status: ('A' for Active; 'I' for Inactive)
REMARK    1  A    between atoms: C_1  and  C_2
REMARK    2  A    between atoms: C_5  and  C_33
REMARK    3  A    between atoms: N_8  and  S_10
REMARK    4  A    between atoms: S_10  and  C_13
REMARK    5  A    between atoms: C_15  and  C_21
REMARK    6  A    between atoms: C_18  and  O_19
REMARK    7  A    between atoms: O_19  and  C_20
REMARK    8  A    between atoms: N_23  and  C_24
REMARK    9  A    between atoms: C_29  and  C_30
REMARK                            x       y       z     vdW  Elec       q    Type
REMARK                         _______ _______ _______ _____ _____    ______ ____
ROOT
ATOM      1  C   UNL     1       0.066   4.122   1.988  0.00  0.00    +0.148 A 
ATOM      2  C   UNL     1      -0.631   4.983   2.806  0.00  0.00    +0.045 A 
ATOM      3  C   UNL     1      -0.704   6.341   2.487  0.00  0.00    +0.039 A 
ATOM      4  C   UNL     1      -0.079   6.818   1.331  0.00  0.00    +0.017 A 
ATOM      5  C   UNL     1       0.611   5.950   0.515  0.00  0.00    +0.048 A 
ATOM      6  C   UNL     1       0.685   4.600   0.839  0.00  0.00    +0.146 A 
ENDROOT
BRANCH   3   7
ATOM      7  C   UNL     1      -1.444   7.269   3.364  0.00  0.00    +0.248 C 
ATOM      8  O   UNL     1      -1.987   6.852   4.369  0.00  0.00    -0.270 OA
ATOM      9  N   UNL     1      -1.518   8.578   3.052  0.00  0.00    -0.281 N 
ATOM     10  H   UNL     1      -1.030   8.922   2.287  0.00  0.00    +0.155 HD
BRANCH   9  11
ATOM     11  C   UNL     1      -2.293   9.435   3.827  0.00  0.00    +0.048 A 
ATOM     12  C   UNL     1      -2.387   9.242   5.199  0.00  0.00    +0.025 A 
ATOM     13  C   UNL     1      -3.156  10.094   5.966  0.00  0.00    +0.022 A 
ATOM     14  C   UNL     1      -3.838  11.148   5.376  0.00  0.00    +0.042 A 
ATOM     15  C   UNL     1      -3.756  11.355   4.016  0.00  0.00    +0.037 A 
ATOM     16  C   UNL     1      -2.977  10.503   3.227  0.00  0.00    +0.086 A 
ATOM     17 CL   UNL     1      -4.800  12.210   6.356  0.00  0.00    -0.084 Cl
BRANCH  16  18
ATOM     18  C   UNL     1      -2.880  10.723   1.773  0.00  0.00    +0.388 C 
ATOM     19  O   UNL     1      -2.286   9.924   1.076  0.00  0.00    -0.241 OA
ATOM     20  O   UNL     1      -3.450  11.809   1.215  0.00  0.00    -0.241 OA
ENDBRANCH  16  18
ENDBRANCH   9  11
ENDBRANCH   3   7
BRANCH   1  21
ATOM     21  S   UNL     1       0.165   2.410   2.393  0.00  0.00    +0.064 S 
ATOM     22  O   UNL     1      -0.580   2.232   3.590  0.00  0.00    -0.153 OA
ATOM     23  O   UNL     1       1.534   2.046   2.286  0.00  0.00    -0.153 OA
BRANCH  21  29
ATOM     24  C   UNL     1      -4.265   1.401   0.117  0.00  0.00    +0.009 C 
ATOM     25  C   UNL     1      -2.790   1.805   0.069  0.00  0.00    +0.002 C 
ATOM     26  C   UNL     1      -2.132   1.188  -1.167  0.00  0.00    +0.009 C 
ATOM     27  C   UNL     1      -0.664   1.618  -1.234  0.00  0.00    +0.002 C 
ATOM     28  C   UNL     1       0.070   1.109   0.010  0.00  0.00    +0.112 C 
ATOM     29  N   UNL     1      -0.640   1.579   1.207  0.00  0.00    -0.176 NA
ATOM     30  C   UNL     1      -2.079   1.298   1.328  0.00  0.00    +0.112 C 
ATOM     31  C   UNL     1      -0.016   1.028  -2.488  0.00  0.00    +0.009 C 
ENDBRANCH  21  29
ENDBRANCH   1  21
BRANCH   6  32
ATOM     32  O   UNL     1       1.366   3.747   0.032  0.00  0.00    -0.493 OA
ATOM     33  C   UNL     1       1.979   4.305  -1.132  0.00  0.00    +0.277 C 
ENDBRANCH   6  32
TORSDOF 6
