REMARK  Name = ZINC09406872
REMARK  7 active torsions:
REMARK  status: ('A' for Active; 'I' for Inactive)
REMARK    1  A    between atoms: C_1  and  C_2
REMARK    2  A    between atoms: C_4  and  C_37
REMARK    3  A    between atoms: C_6  and  N_8
REMARK    4  A    between atoms: C_9  and  C_11
REMARK    5  A    between atoms: N_16  and  S_18
REMARK    6  A    between atoms: S_18  and  C_21
REMARK    7  A    between atoms: C_28  and  C_31
REMARK                            x       y       z     vdW  Elec       q    Type
REMARK                         _______ _______ _______ _____ _____    ______ ____
ROOT
ATOM      1  S   UNL     1       1.332   4.139  -0.317  0.00  0.00    +0.061 S 
ATOM      2  O   UNL     1       2.500   4.754  -0.844  0.00  0.00    -0.153 OA
ATOM      3  O   UNL     1       0.028   4.453  -0.786  0.00  0.00    -0.153 OA
ENDROOT
BRANCH   1   4
ATOM      4  C   UNL     1       1.538   2.402  -0.528  0.00  0.00    +0.108 A 
ATOM      5  C   UNL     1       0.422   1.579  -0.582  0.00  0.00    +0.030 A 
ATOM      6  C   UNL     1       0.564   0.217  -0.747  0.00  0.00    +0.030 A 
ATOM      7  C   UNL     1       1.834  -0.333  -0.859  0.00  0.00    +0.067 A 
ATOM      8  C   UNL     1       2.965   0.500  -0.803  0.00  0.00    +0.091 A 
ATOM      9  C   UNL     1       2.796   1.879  -0.636  0.00  0.00    +0.058 A 
ATOM     10  N   UNL     1       4.054  -0.294  -0.937  0.00  0.00    -0.228 NA
ATOM     11  C   UNL     1       3.676  -1.542  -1.068  0.00  0.00    +0.139 A 
ATOM     12  N   UNL     1       2.310  -1.619  -1.026  0.00  0.00    -0.338 N 
ATOM     13  H   UNL     1       1.759  -2.450  -1.103  0.00  0.00    +0.167 HD
BRANCH  11  14
ATOM     14  C   UNL     1       4.588  -2.695  -1.236  0.00  0.00    +0.017 A 
ATOM     15  C   UNL     1       4.071  -3.985  -1.360  0.00  0.00    +0.011 A 
ATOM     16  C   UNL     1       4.926  -5.055  -1.523  0.00  0.00    +0.001 A 
ATOM     17  C   UNL     1       6.295  -4.852  -1.550  0.00  0.00    +0.000 A 
ATOM     18  C   UNL     1       6.814  -3.576  -1.421  0.00  0.00    +0.001 A 
ATOM     19  C   UNL     1       5.969  -2.497  -1.264  0.00  0.00    +0.011 A 
ENDBRANCH  11  14
ENDBRANCH   1   4
BRANCH   1  24
ATOM     20  C   UNL     1       2.432   6.043   2.785  0.00  0.00    +0.091 C 
ATOM     21  C   UNL     1       1.204   5.957   3.694  0.00  0.00    +0.015 C 
ATOM     22  C   UNL     1      -0.049   5.742   2.843  0.00  0.00    +0.018 C 
ATOM     23  C   UNL     1       0.079   4.427   2.076  0.00  0.00    +0.109 C 
ATOM     24  N   UNL     1       1.333   4.438   1.312  0.00  0.00    -0.176 NA
ATOM     25  C   UNL     1       2.589   4.726   2.019  0.00  0.00    +0.122 C 
BRANCH  20  27
ATOM     26  N   UNL     1       3.747   7.394   4.386  0.00  0.00    -0.285 N 
ATOM     27  C   UNL     1       3.661   6.287   3.622  0.00  0.00    +0.222 C 
ATOM     28  O   UNL     1       4.573   5.488   3.608  0.00  0.00    -0.275 OA
ATOM     29  H   UNL     1       3.054   8.071   4.339  0.00  0.00    +0.155 HD
BRANCH  26  35
ATOM     30  C   UNL     1       6.947  10.391   6.613  0.00  0.00    +0.044 C 
ATOM     31  C   UNL     1       6.409   9.009   6.343  0.00  0.00    -0.048 A 
ATOM     32  C   UNL     1       6.992   7.911   6.947  0.00  0.00    +0.006 A 
ATOM     33  C   UNL     1       6.502   6.641   6.703  0.00  0.00    -0.048 A 
ATOM     34  C   UNL     1       5.426   6.467   5.854  0.00  0.00    +0.026 A 
ATOM     35  C   UNL     1       4.837   7.568   5.246  0.00  0.00    +0.034 A 
ATOM     36  C   UNL     1       5.336   8.841   5.489  0.00  0.00    +0.026 A 
ATOM     37  C   UNL     1       7.141   5.447   7.363  0.00  0.00    +0.044 C 
ENDBRANCH  26  35
ENDBRANCH  20  27
ENDBRANCH   1  24
TORSDOF 5
