REMARK  Name = ZINC40369114
REMARK  4 active torsions:
REMARK  status: ('A' for Active; 'I' for Inactive)
REMARK    1  A    between atoms: C_3  and  C_17
REMARK    2  A    between atoms: C_5  and  N_7
REMARK    3  A    between atoms: C_8  and  C_10
REMARK    4  A    between atoms: N_18  and  O_19
REMARK                            x       y       z     vdW  Elec       q    Type
REMARK                         _______ _______ _______ _____ _____    ______ ____
ROOT
ATOM      1  C   UNL     1      -0.019   1.282  -0.339  0.00  0.00    +0.002 A 
ATOM      2  C   UNL     1       1.067   2.118  -0.167  0.00  0.00    +0.011 A 
ATOM      3  C   UNL     1       2.309   1.586   0.176  0.00  0.00    +0.019 A 
ATOM      4  C   UNL     1       2.451   0.210   0.345  0.00  0.00    +0.034 A 
ATOM      5  C   UNL     1       1.355  -0.622   0.170  0.00  0.00    +0.034 A 
ATOM      6  C   UNL     1       0.121  -0.082  -0.172  0.00  0.00    +0.023 A 
ENDROOT
BRANCH   3   7
ATOM      7  C   UNL     1       3.475   2.480   0.360  0.00  0.00    +0.162 C 
ATOM      8  N   UNL     1       3.554   3.592  -0.310  0.00  0.00    -0.072 NA
ATOM      9  N   UNL     1       4.481   2.133   1.246  0.00  0.00    -0.340 N 
ATOM     10  H   UNL     1       4.422   1.304   1.746  0.00  0.00    +0.144 HD
ATOM     11  H   UNL     1       5.245   2.719   1.367  0.00  0.00    +0.144 HD
BRANCH   8  12
ATOM     12  O   UNL     1       2.596   3.885  -1.311  0.00  0.00    -0.408 OA
ATOM     13  H   UNL     1       2.737   4.733  -1.754  0.00  0.00    +0.328 HD
ENDBRANCH   8  12
ENDBRANCH   3   7
BRANCH   5  14
ATOM     14  N   UNL     1       1.492  -2.004   0.338  0.00  0.00    -0.281 N 
ATOM     15  C   UNL     1       0.491  -2.718   0.889  0.00  0.00    +0.248 C 
ATOM     16  O   UNL     1      -0.562  -2.177   1.163  0.00  0.00    -0.270 OA
ATOM     17  H   UNL     1       2.308  -2.448   0.058  0.00  0.00    +0.155 HD
BRANCH  15  18
ATOM     18  C   UNL     1       0.674  -4.159   1.159  0.00  0.00    +0.037 A 
ATOM     19  C   UNL     1       1.885  -4.782   0.851  0.00  0.00    +0.014 A 
ATOM     20  C   UNL     1       2.050  -6.128   1.106  0.00  0.00    +0.016 A 
ATOM     21  C   UNL     1       1.017  -6.860   1.667  0.00  0.00    +0.018 A 
ATOM     22  C   UNL     1      -0.186  -6.248   1.976  0.00  0.00    +0.016 A 
ATOM     23  C   UNL     1      -0.361  -4.902   1.730  0.00  0.00    +0.014 A 
ATOM     24 BR   UNL     1       1.251  -8.705   2.013  0.00  0.00    -0.050 Br
ENDBRANCH  15  18
ENDBRANCH   5  14
TORSDOF 4
