REMARK  Name = ZINC39836247
REMARK  8 active torsions:
REMARK  status: ('A' for Active; 'I' for Inactive)
REMARK    1  A    between atoms: C_1  and  C_2
REMARK    2  A    between atoms: C_6  and  O_8
REMARK    3  A    between atoms: O_8  and  C_9
REMARK    4  A    between atoms: C_9  and  C_10
REMARK    5  A    between atoms: N_12  and  C_13
REMARK    6  A    between atoms: C_14  and  C_24
REMARK    7  A    between atoms: C_19  and  C_23
REMARK    8  A    between atoms: N_26  and  C_27
REMARK                            x       y       z     vdW  Elec       q    Type
REMARK                         _______ _______ _______ _____ _____    ______ ____
ROOT
ATOM      1  C   UNL     1       0.114  -6.663   5.107  0.00  0.00    +0.084 A 
ATOM      2  C   UNL     1       0.139  -8.002   5.468  0.00  0.00    +0.069 A 
ATOM      3  C   UNL     1       0.148  -8.307   6.887  0.00  0.00    -0.023 A 
ATOM      4  C   UNL     1       0.130  -7.218   7.687  0.00  0.00    -0.004 A 
ATOM      5  S   UNL     1       0.111  -5.844   6.573  0.00  0.00    -0.077 S 
ATOM      6  C   UNL     1       0.131  -7.202   9.184  0.00  0.00    +0.046 C 
ATOM      7  C   UNL     1      -0.224  -8.611   9.682  0.00  0.00    -0.009 C 
ATOM      8  C   UNL     1       0.629  -9.633   8.927  0.00  0.00    +0.008 C 
ATOM      9  C   UNL     1       0.176  -9.713   7.467  0.00  0.00    +0.037 C 
ATOM     10  C   UNL     1       0.060  -8.711  11.182  0.00  0.00    +0.008 C 
ENDROOT
BRANCH   1  13
ATOM     11  C   UNL     1       0.083  -4.787   3.662  0.00  0.00    +0.255 C 
ATOM     12  O   UNL     1       0.077  -4.055   4.629  0.00  0.00    -0.272 OA
ATOM     13  N   UNL     1       0.101  -6.125   3.830  0.00  0.00    -0.277 N 
ATOM     14  H   UNL     1       0.105  -6.710   3.056  0.00  0.00    +0.155 HD
BRANCH  11  15
ATOM     15  C   UNL     1       0.069  -4.202   2.274  0.00  0.00    +0.324 C 
BRANCH  15  16
ATOM     16  O   UNL     1       0.050  -2.776   2.358  0.00  0.00    -0.483 OA
BRANCH  16  22
ATOM     17  C   UNL     1      -0.018   1.503   0.010  0.00  0.00    +0.044 C 
ATOM     18  C   UNL     1       0.002  -0.004   0.002  0.00  0.00    -0.047 A 
ATOM     19  C   UNL     1       0.006  -0.688  -1.200  0.00  0.00    +0.003 A 
ATOM     20  C   UNL     1       0.024  -2.071  -1.211  0.00  0.00    +0.004 A 
ATOM     21  C   UNL     1       0.039  -2.772  -0.020  0.00  0.00    +0.045 A 
ATOM     22  C   UNL     1       0.035  -2.088   1.186  0.00  0.00    +0.121 A 
ATOM     23  C   UNL     1       0.023  -0.700   1.195  0.00  0.00    +0.049 A 
ENDBRANCH  16  22
ENDBRANCH  15  16
ENDBRANCH  11  15
ENDBRANCH   1  13
BRANCH   2  24
ATOM     24  C   UNL     1       0.155  -9.064   4.457  0.00  0.00    +0.247 C 
ATOM     25  O   UNL     1       1.216  -9.487   4.036  0.00  0.00    -0.270 OA
ATOM     26  N   UNL     1      -1.004  -9.573   3.996  0.00  0.00    -0.307 N 
ATOM     27  H   UNL     1      -1.849  -9.237   4.332  0.00  0.00    +0.149 HD
BRANCH  26  28
ATOM     28  C   UNL     1      -0.988 -10.635   2.987  0.00  0.00    +0.096 C 
ATOM     29  C   UNL     1      -0.910 -10.015   1.582  0.00  0.00    +0.046 C 
ATOM     30  C   UNL     1      -1.214 -11.092   0.512  0.00  0.00    +0.168 C 
ATOM     31  S   UNL     1      -2.312 -12.259   1.415  0.00  0.00    -0.029 S 
ATOM     32  O   UNL     1      -1.671 -13.525   1.501  0.00  0.00    -0.174 OA
ATOM     33  O   UNL     1      -3.622 -12.175   0.871  0.00  0.00    -0.174 OA
ATOM     34  C   UNL     1      -2.299 -11.466   3.078  0.00  0.00    +0.188 C 
ENDBRANCH  26  28
ENDBRANCH   2  24
TORSDOF 6
