REMARK  Name = ZINC16611054
REMARK  14 active torsions:
REMARK  status: ('A' for Active; 'I' for Inactive)
REMARK    1  A    between atoms: C_1  and  C_2
REMARK    2  A    between atoms: C_2  and  N_3
REMARK    3  A    between atoms: C_4  and  C_36
REMARK    4  A    between atoms: C_5  and  C_31
REMARK    5  A    between atoms: C_6  and  C_11
REMARK    6  A    between atoms: C_15  and  N_17
REMARK    7  A    between atoms: N_20  and  C_21
REMARK    8  A    between atoms: C_24  and  O_29
REMARK    9  A    between atoms: C_26  and  O_27
REMARK   10  A    between atoms: O_27  and  C_28
REMARK   11  A    between atoms: O_29  and  C_30
REMARK   12  A    between atoms: C_31  and  O_33
REMARK   13  A    between atoms: O_33  and  C_34
REMARK   14  A    between atoms: C_34  and  C_35
REMARK                            x       y       z     vdW  Elec       q    Type
REMARK                         _______ _______ _______ _____ _____    ______ ____
ROOT
ATOM      1  C   UNL     1       1.617   4.355   1.217  0.00  0.00    -0.021 A 
ATOM      2  C   UNL     1       1.559   3.677   2.421  0.00  0.00    +0.006 A 
ATOM      3  C   UNL     1       2.193   4.190   3.538  0.00  0.00    +0.002 A 
ATOM      4  C   UNL     1       2.887   5.381   3.454  0.00  0.00    +0.023 A 
ATOM      5  C   UNL     1       2.947   6.064   2.246  0.00  0.00    +0.035 A 
ATOM      6  C   UNL     1       2.314   5.543   1.125  0.00  0.00    +0.029 A 
ENDROOT
BRANCH   1  10
ATOM      7  N   UNL     1      -1.204   2.026   0.007  0.00  0.00    -0.286 N 
ATOM      8  C   UNL     1      -1.493   3.360   0.016  0.00  0.00    +0.021 C 
ATOM      9  C   UNL     1      -0.509   4.286   0.012  0.00  0.00    +0.078 C 
ATOM     10  C   UNL     1       0.924   3.792   0.003  0.00  0.00    +0.141 C 
ATOM     11  N   UNL     1       1.127   2.334  -0.001  0.00  0.00    -0.315 N 
ATOM     12  C   UNL     1       0.041   1.535   0.004  0.00  0.00    +0.138 C 
ATOM     13  S   UNL     1       0.262  -0.163  -0.001  0.00  0.00    -0.018 S 
ATOM     14  C   UNL     1      -2.932   3.807   0.026  0.00  0.00    +0.061 C 
ATOM     15  H   UNL     1       2.021   1.957  -0.007  0.00  0.00    +0.149 HD
BRANCH   7  17
ATOM     16  C   UNL     1      -2.792   0.843   1.443  0.00  0.00    +0.025 C 
ATOM     17  C   UNL     1      -2.321   1.078   0.006  0.00  0.00    +0.109 C 
ENDBRANCH   7  17
BRANCH   9  18
ATOM     18  C   UNL     1      -0.806   5.668   0.017  0.00  0.00    +0.339 C 
ATOM     19  O   UNL     1      -1.961   6.043  -0.064  0.00  0.00    -0.245 OA
BRANCH  18  20
ATOM     20  O   UNL     1       0.192   6.572   0.111  0.00  0.00    -0.462 OA
BRANCH  20  21
ATOM     21  C   UNL     1      -0.181   7.952   0.110  0.00  0.00    +0.229 C 
ATOM     22  C   UNL     1       1.074   8.819   0.224  0.00  0.00    +0.048 C 
ENDBRANCH  20  21
ENDBRANCH  18  20
ENDBRANCH   9  18
ENDBRANCH   1  10
BRANCH   5  23
ATOM     23  N   UNL     1       3.650   7.271   2.158  0.00  0.00    -0.269 N 
ATOM     24  C   UNL     1       3.660   8.123   3.202  0.00  0.00    +0.308 C 
ATOM     25  O   UNL     1       3.130   7.807   4.249  0.00  0.00    -0.252 OA
ATOM     26  N   UNL     1       4.259   9.324   3.085  0.00  0.00    -0.266 N 
ATOM     27  H   UNL     1       4.130   7.494   1.345  0.00  0.00    +0.156 HD
ATOM     28  H   UNL     1       4.631   9.600   2.233  0.00  0.00    +0.156 HD
BRANCH  26  29
ATOM     29  C   UNL     1       4.344  10.177   4.197  0.00  0.00    +0.077 A 
ATOM     30  C   UNL     1       3.416  10.076   5.222  0.00  0.00    +0.030 A 
ATOM     31  C   UNL     1       3.499  10.915   6.316  0.00  0.00    +0.047 A 
ATOM     32  C   UNL     1       4.512  11.860   6.393  0.00  0.00    +0.124 A 
ATOM     33  C   UNL     1       5.443  11.965   5.370  0.00  0.00    +0.093 A 
ATOM     34  C   UNL     1       5.364  11.122   4.274  0.00  0.00    +0.145 A 
BRANCH  34  35
ATOM     35  O   UNL     1       6.279  11.220   3.272  0.00  0.00    -0.493 OA
ATOM     36  C   UNL     1       7.297  12.212   3.419  0.00  0.00    +0.277 C 
ENDBRANCH  34  35
BRANCH  32  37
ATOM     37  O   UNL     1       4.592  12.684   7.471  0.00  0.00    -0.495 OA
ATOM     38  C   UNL     1       3.601  12.521   8.488  0.00  0.00    +0.277 C 
ENDBRANCH  32  37
ENDBRANCH  26  29
ENDBRANCH   5  23
TORSDOF 9
