REMARK  Name = ZINC04222007
REMARK  9 active torsions:
REMARK  status: ('A' for Active; 'I' for Inactive)
REMARK    1  A    between atoms: C_1  and  C_2
REMARK    2  A    between atoms: C_10  and  C_12
REMARK    3  A    between atoms: C_15  and  O_18
REMARK    4  A    between atoms: O_18  and  C_19
REMARK    5  A    between atoms: C_21  and  C_42
REMARK    6  A    between atoms: C_24  and  O_41
REMARK    7  A    between atoms: C_26  and  C_30
REMARK    8  A    between atoms: C_30  and  C_32
REMARK    9  A    between atoms: C_30  and  C_33
REMARK                            x       y       z     vdW  Elec       q    Type
REMARK                         _______ _______ _______ _____ _____    ______ ____
ROOT
ATOM      1  C   UNL     1      -2.540  -4.312  -2.632  0.00  0.00    +0.014 C 
ATOM      2  C   UNL     1      -1.282  -4.909  -1.998  0.00  0.00    +0.042 C 
ATOM      3  C   UNL     1      -0.053  -4.407  -2.741  0.00  0.00    +0.057 A 
ATOM      4  C   UNL     1       0.971  -5.256  -3.014  0.00  0.00    +0.015 A 
ATOM      5  S   UNL     1       2.125  -4.212  -3.864  0.00  0.00    -0.057 S 
ATOM      6  C   UNL     1       1.184  -2.752  -3.791  0.00  0.00    +0.165 A 
ATOM      7  N   UNL     1       0.102  -3.152  -3.156  0.00  0.00    -0.229 NA
ATOM      8  N   UNL     1       1.492  -1.489  -4.281  0.00  0.00    -0.261 N 
ATOM      9  C   UNL     1       2.666  -1.278  -4.909  0.00  0.00    +0.250 C 
ATOM     10  O   UNL     1       3.455  -2.192  -5.047  0.00  0.00    -0.270 OA
ATOM     11  C   UNL     1       1.070  -6.701  -2.676  0.00  0.00    +0.051 C 
ATOM     12  C   UNL     1      -0.013  -7.048  -1.635  0.00  0.00    -0.022 C 
ATOM     13  C   UNL     1      -1.344  -6.440  -2.082  0.00  0.00    +0.033 C 
ATOM     14  C   UNL     1      -2.472  -6.904  -1.154  0.00  0.00    +0.123 C 
ATOM     15  C   UNL     1      -2.562  -8.429  -1.148  0.00  0.00    +0.029 C 
ATOM     16  C   UNL     1      -1.237  -8.999  -0.634  0.00  0.00    +0.007 C 
ATOM     17  C   UNL     1      -0.119  -8.575  -1.585  0.00  0.00    +0.008 C 
ATOM     18  C   UNL     1       0.382  -6.493  -0.265  0.00  0.00    +0.012 C 
ATOM     19  H   UNL     1       0.863  -0.759  -4.171  0.00  0.00    +0.157 HD
ENDROOT
BRANCH   9  20
ATOM     20  C   UNL     1       2.993   0.064  -5.429  0.00  0.00    +0.037 A 
ATOM     21  C   UNL     1       2.085   1.115  -5.277  0.00  0.00    +0.016 A 
ATOM     22  C   UNL     1       2.397   2.367  -5.759  0.00  0.00    +0.046 A 
ATOM     23  C   UNL     1       3.607   2.582  -6.407  0.00  0.00    +0.120 A 
ATOM     24  C   UNL     1       4.511   1.538  -6.565  0.00  0.00    +0.046 A 
ATOM     25  C   UNL     1       4.209   0.285  -6.081  0.00  0.00    +0.016 A 
BRANCH  23  26
ATOM     26  O   UNL     1       3.908   3.816  -6.886  0.00  0.00    -0.495 OA
ATOM     27  C   UNL     1       2.935   4.844  -6.689  0.00  0.00    +0.277 C 
ENDBRANCH  23  26
ENDBRANCH   9  20
BRANCH  15  28
ATOM     28  C   UNL     1      -2.820  -8.933  -2.570  0.00  0.00    +0.078 C 
ATOM     29  C   UNL     1      -4.200  -8.466  -3.034  0.00  0.00    +0.017 C 
BRANCH  28  30
ATOM     30  C   UNL     1      -2.768 -10.439  -2.585  0.00  0.00    +0.219 C 
ATOM     31  O   UNL     1      -2.988 -11.064  -1.569  0.00  0.00    -0.275 OA
ATOM     32  N   UNL     1      -2.478 -11.092  -3.728  0.00  0.00    -0.300 N 
ATOM     33  C   UNL     1      -2.332 -10.338  -4.974  0.00  0.00    +0.118 C 
ATOM     34  C   UNL     1      -0.875 -10.432  -5.455  0.00  0.00    +0.088 C 
ATOM     35  S   UNL     1      -0.443 -12.187  -5.657  0.00  0.00    -0.158 S 
ATOM     36  C   UNL     1      -0.865 -12.905  -4.041  0.00  0.00    +0.088 C 
ATOM     37  C   UNL     1      -2.318 -12.547  -3.709  0.00  0.00    +0.118 C 
ENDBRANCH  28  30
ENDBRANCH  15  28
BRANCH  14  38
ATOM     38  O   UNL     1      -3.713  -6.360  -1.609  0.00  0.00    -0.391 OA
ATOM     39  H   UNL     1      -4.474  -6.612  -1.070  0.00  0.00    +0.210 HD
ENDBRANCH  14  38
TORSDOF 5
