REMARK  Name = ZINC15560659
REMARK  7 active torsions:
REMARK  status: ('A' for Active; 'I' for Inactive)
REMARK    1  A    between atoms: C_1  and  N_2
REMARK    2  A    between atoms: C_3  and  C_5
REMARK    3  A    between atoms: C_8  and  N_11
REMARK    4  A    between atoms: C_12  and  C_14
REMARK    5  A    between atoms: C_17  and  N_20
REMARK    6  A    between atoms: N_20  and  S_21
REMARK    7  A    between atoms: S_21  and  C_24
REMARK                            x       y       z     vdW  Elec       q    Type
REMARK                         _______ _______ _______ _____ _____    ______ ____
ROOT
ATOM      1  C   UNL     1       2.693  -4.219  -0.363  0.00  0.00    +0.037 A 
ATOM      2  C   UNL     1       1.440  -4.839  -0.385  0.00  0.00    +0.015 A 
ATOM      3  C   UNL     1       1.355  -6.210  -0.468  0.00  0.00    +0.025 A 
ATOM      4  C   UNL     1       2.514  -6.980  -0.519  0.00  0.00    +0.048 A 
ATOM      5  C   UNL     1       3.763  -6.365  -0.492  0.00  0.00    +0.025 A 
ATOM      6  C   UNL     1       3.855  -4.995  -0.415  0.00  0.00    +0.015 A 
ENDROOT
BRANCH   1   8
ATOM      7  N   UNL     1       1.667  -2.003  -0.231  0.00  0.00    -0.282 N 
ATOM      8  C   UNL     1       2.788  -2.749  -0.280  0.00  0.00    +0.248 C 
ATOM      9  O   UNL     1       3.879  -2.211  -0.257  0.00  0.00    -0.270 OA
ATOM     10  H   UNL     1       0.800  -2.434  -0.173  0.00  0.00    +0.155 HD
BRANCH   7  14
ATOM     11  C   UNL     1       1.927   2.152  -0.327  0.00  0.00    +0.037 A 
ATOM     12  C   UNL     1       2.848   1.377  -1.036  0.00  0.00    +0.015 A 
ATOM     13  C   UNL     1       2.759   0.004  -1.002  0.00  0.00    +0.024 A 
ATOM     14  C   UNL     1       1.754  -0.613  -0.263  0.00  0.00    +0.034 A 
ATOM     15  C   UNL     1       0.836   0.157   0.445  0.00  0.00    +0.024 A 
ATOM     16  C   UNL     1       0.918   1.531   0.415  0.00  0.00    +0.015 A 
BRANCH  11  19
ATOM     17  C   UNL     1       1.221   5.833   0.291  0.00  0.00    +0.128 C 
ATOM     18  N   UNL     1       1.130   4.372   0.324  0.00  0.00    -0.314 N 
ATOM     19  C   UNL     1       2.019   3.625  -0.360  0.00  0.00    +0.244 C 
ATOM     20  O   UNL     1       2.897   4.165  -1.005  0.00  0.00    -0.270 OA
ATOM     21  H   UNL     1       0.429   3.941   0.839  0.00  0.00    +0.149 HD
ENDBRANCH  11  19
ENDBRANCH   7  14
ENDBRANCH   1   8
BRANCH   4  22
ATOM     22  N   UNL     1       2.424  -8.365  -0.597  0.00  0.00    -0.216 N 
ATOM     23  H   UNL     1       2.164  -8.788  -1.430  0.00  0.00    +0.174 HD
BRANCH  22  24
ATOM     24  S   UNL     1       2.759  -9.293   0.733  0.00  0.00    +0.079 S 
ATOM     25  O   UNL     1       2.558 -10.645   0.346  0.00  0.00    -0.149 OA
ATOM     26  O   UNL     1       3.997  -8.826   1.252  0.00  0.00    -0.149 OA
BRANCH  24  27
ATOM     27  C   UNL     1       1.534  -8.928   1.946  0.00  0.00    +0.147 A 
ATOM     28  C   UNL     1       0.370  -9.573   2.204  0.00  0.00    +0.038 A 
ATOM     29  C   UNL     1      -0.446  -9.103   3.216  0.00  0.00    +0.025 A 
ATOM     30  C   UNL     1      -0.058  -8.011   3.921  0.00  0.00    +0.057 A 
ATOM     31  S   UNL     1       1.508  -7.618   3.158  0.00  0.00    -0.061 S 
ATOM     32 BR   UNL     1      -0.941  -7.137   5.346  0.00  0.00    -0.043 Br
ENDBRANCH  24  27
ENDBRANCH  22  24
ENDBRANCH   4  22
TORSDOF 6
