REMARK  Name = ZINC10549192
REMARK  8 active torsions:
REMARK  status: ('A' for Active; 'I' for Inactive)
REMARK    1  A    between atoms: C_1  and  C_2
REMARK    2  A    between atoms: C_5  and  S_9
REMARK    3  A    between atoms: S_9  and  N_12
REMARK    4  A    between atoms: N_12  and  C_13
REMARK    5  A    between atoms: C_17  and  C_19
REMARK    6  A    between atoms: N_21  and  C_22
REMARK    7  A    between atoms: C_26  and  N_28
REMARK    8  A    between atoms: C_29  and  C_31
REMARK                            x       y       z     vdW  Elec       q    Type
REMARK                         _______ _______ _______ _____ _____    ______ ____
ROOT
ATOM      1  C   UNL     1       0.011   1.366   0.294  0.00  0.00    +0.049 A 
ATOM      2  C   UNL     1       0.020  -0.013   0.118  0.00  0.00    +0.024 A 
ATOM      3  C   UNL     1       1.216  -0.684  -0.054  0.00  0.00    +0.003 A 
ATOM      4  C   UNL     1       2.409   0.009  -0.052  0.00  0.00    +0.013 A 
ATOM      5  C   UNL     1       2.411   1.394   0.125  0.00  0.00    +0.039 A 
ATOM      6  C   UNL     1       1.204   2.072   0.298  0.00  0.00    +0.037 A 
ENDROOT
BRANCH   5   7
ATOM      7  C   UNL     1       3.688   2.139   0.129  0.00  0.00    +0.248 C 
ATOM      8  O   UNL     1       3.688   3.345   0.283  0.00  0.00    -0.270 OA
ATOM      9  N   UNL     1       4.852   1.481  -0.039  0.00  0.00    -0.281 N 
ATOM     10  H   UNL     1       4.860   0.513  -0.088  0.00  0.00    +0.155 HD
BRANCH   9  11
ATOM     11  C   UNL     1       6.050   2.196  -0.142  0.00  0.00    +0.035 A 
ATOM     12  C   UNL     1       7.228   1.656   0.362  0.00  0.00    +0.023 A 
ATOM     13  C   UNL     1       8.411   2.361   0.261  0.00  0.00    +0.004 A 
ATOM     14  C   UNL     1       8.429   3.604  -0.342  0.00  0.00    +0.023 A 
ATOM     15  C   UNL     1       7.255   4.150  -0.847  0.00  0.00    +0.036 A 
ATOM     16  C   UNL     1       6.066   3.441  -0.752  0.00  0.00    +0.046 A 
BRANCH  15  17
ATOM     17  N   UNL     1       7.274   5.408  -1.457  0.00  0.00    -0.279 N 
ATOM     18  C   UNL     1       8.339   5.785  -2.191  0.00  0.00    +0.284 C 
ATOM     19  O   UNL     1       9.319   5.066  -2.255  0.00  0.00    -0.266 OA
ATOM     20  H   UNL     1       6.521   6.009  -1.351  0.00  0.00    +0.155 HD
BRANCH  18  21
ATOM     21  C   UNL     1       8.318   7.061  -2.913  0.00  0.00    +0.189 A 
ATOM     22  C   UNL     1       9.324   7.562  -3.689  0.00  0.00    +0.054 A 
ATOM     23  C   UNL     1       8.877   8.798  -4.181  0.00  0.00    +0.042 A 
ATOM     24  C   UNL     1       7.634   8.996  -3.689  0.00  0.00    +0.196 A 
ATOM     25  O   UNL     1       7.298   7.945  -2.930  0.00  0.00    -0.458 OA
ENDBRANCH  18  21
ENDBRANCH  15  17
ENDBRANCH   9  11
ENDBRANCH   5   7
BRANCH   1  26
ATOM     26  N   UNL     1      -1.200   2.042   0.462  0.00  0.00    -0.216 N 
ATOM     27  H   UNL     1      -1.367   2.865  -0.021  0.00  0.00    +0.174 HD
BRANCH  26  28
ATOM     28  S   UNL     1      -2.351   1.435   1.487  0.00  0.00    +0.072 S 
ATOM     29  O   UNL     1      -3.440   2.348   1.461  0.00  0.00    -0.150 OA
ATOM     30  O   UNL     1      -2.502   0.060   1.160  0.00  0.00    -0.150 OA
BRANCH  28  35
ATOM     31  C   UNL     1      -0.057   1.636   7.066  0.00  0.00    +0.047 C 
ATOM     32  C   UNL     1      -0.630   1.586   5.673  0.00  0.00    -0.015 A 
ATOM     33  C   UNL     1      -0.443   0.464   4.888  0.00  0.00    +0.008 A 
ATOM     34  C   UNL     1      -0.974   0.416   3.612  0.00  0.00    +0.029 A 
ATOM     35  C   UNL     1      -1.682   1.495   3.116  0.00  0.00    +0.111 A 
ATOM     36  C   UNL     1      -1.870   2.618   3.899  0.00  0.00    +0.067 A 
ATOM     37  C   UNL     1      -1.344   2.664   5.179  0.00  0.00    +0.128 A 
ATOM     38  F   UNL     1      -1.528   3.762   5.946  0.00  0.00    -0.205 F 
ENDBRANCH  28  35
ENDBRANCH  26  28
ENDBRANCH   1  26
TORSDOF 7
