REMARK  Name = ZINC35685008
REMARK  6 active torsions:
REMARK  status: ('A' for Active; 'I' for Inactive)
REMARK    1  A    between atoms: C_1  and  C_2
REMARK    2  A    between atoms: C_3  and  C_27
REMARK    3  A    between atoms: C_11  and  C_13
REMARK    4  A    between atoms: N_15  and  C_16
REMARK    5  A    between atoms: C_20  and  O_22
REMARK    6  A    between atoms: O_22  and  C_23
REMARK                            x       y       z     vdW  Elec       q    Type
REMARK                         _______ _______ _______ _____ _____    ______ ____
ROOT
ATOM      1  C   UNL     1       0.249   1.327   0.076  0.00  0.00    +0.049 C 
ATOM      2  C   UNL     1       0.188  -0.177  -0.001  0.00  0.00    +0.017 A 
ATOM      3  C   UNL     1       0.047  -0.946  -1.176  0.00  0.00    +0.098 A 
ATOM      4  N   UNL     1       0.035  -2.221  -0.836  0.00  0.00    -0.169 NA
ATOM      5  N   UNL     1       0.169  -2.303   0.547  0.00  0.00    -0.237 N 
ATOM      6  C   UNL     1       0.265  -1.031   1.039  0.00  0.00    +0.128 A 
ATOM      7  N   UNL     1       0.411  -0.776   2.404  0.00  0.00    -0.270 N 
ATOM      8  C   UNL     1       0.745  -1.817   3.200  0.00  0.00    +0.221 C 
ATOM      9  O   UNL     1       0.775  -1.656   4.402  0.00  0.00    -0.275 OA
ATOM     10  C   UNL     1       1.081  -3.167   2.633  0.00  0.00    +0.132 C 
ATOM     11  C   UNL     1       0.215  -3.487   1.408  0.00  0.00    +0.204 C 
ATOM     12  H   UNL     1       0.278   0.113   2.767  0.00  0.00    +0.156 HD
ENDROOT
BRANCH   3  13
ATOM     13  C   UNL     1      -0.071  -0.412  -2.556  0.00  0.00    +0.003 A 
ATOM     14  C   UNL     1       0.738   0.645  -2.967  0.00  0.00    +0.013 A 
ATOM     15  C   UNL     1       0.626   1.138  -4.251  0.00  0.00    +0.039 A 
ATOM     16  C   UNL     1      -0.289   0.584  -5.130  0.00  0.00    +0.123 A 
ATOM     17  C   UNL     1      -1.096  -0.468  -4.726  0.00  0.00    +0.039 A 
ATOM     18  C   UNL     1      -0.985  -0.971  -3.446  0.00  0.00    +0.013 A 
ATOM     19  F   UNL     1      -0.397   1.069  -6.386  0.00  0.00    -0.205 F 
ENDBRANCH   3  13
BRANCH  11  20
ATOM     20  C   UNL     1       0.829  -4.638   0.653  0.00  0.00    +0.242 C 
ATOM     21  O   UNL     1       1.192  -4.485  -0.494  0.00  0.00    -0.273 OA
ATOM     22  N   UNL     1       0.973  -5.836   1.252  0.00  0.00    -0.284 N 
ATOM     23  H   UNL     1       0.620  -5.978   2.145  0.00  0.00    +0.155 HD
BRANCH  22  24
ATOM     24  C   UNL     1       1.631  -6.876   0.587  0.00  0.00    +0.037 A 
ATOM     25  C   UNL     1       2.413  -7.775   1.302  0.00  0.00    +0.023 A 
ATOM     26  C   UNL     1       3.063  -8.801   0.646  0.00  0.00    +0.005 A 
ATOM     27  C   UNL     1       2.938  -8.938  -0.724  0.00  0.00    +0.046 A 
ATOM     28  C   UNL     1       2.159  -8.043  -1.444  0.00  0.00    +0.132 A 
ATOM     29  C   UNL     1       1.500  -7.015  -0.787  0.00  0.00    +0.069 A 
BRANCH  28  30
ATOM     30  O   UNL     1       2.037  -8.177  -2.791  0.00  0.00    -0.406 OA
BRANCH  30  31
ATOM     31  C   UNL     1       2.739  -9.263  -3.400  0.00  0.00    +0.575 C 
ATOM     32  F   UNL     1       2.288 -10.472  -2.859  0.00  0.00    -0.133 F 
ATOM     33  F   UNL     1       2.505  -9.254  -4.779  0.00  0.00    -0.133 F 
ATOM     34  F   UNL     1       4.110  -9.126  -3.158  0.00  0.00    -0.133 F 
ENDBRANCH  30  31
ENDBRANCH  28  30
ENDBRANCH  22  24
ENDBRANCH  11  20
TORSDOF 5
