REMARK  Name = ZINC09239229
REMARK  7 active torsions:
REMARK  status: ('A' for Active; 'I' for Inactive)
REMARK    1  A    between atoms: C_1  and  C_2
REMARK    2  A    between atoms: C_2  and  C_3
REMARK    3  A    between atoms: C_3  and  C_4
REMARK    4  A    between atoms: C_10  and  C_28
REMARK    5  A    between atoms: C_12  and  C_15
REMARK    6  A    between atoms: N_17  and  C_18
REMARK    7  A    between atoms: C_23  and  C_24
REMARK                            x       y       z     vdW  Elec       q    Type
REMARK                         _______ _______ _______ _____ _____    ______ ____
ROOT
ATOM      1  C   UNL     1      -1.816   8.162  -1.924  0.00  0.00    +0.151 A 
ATOM      2  N   UNL     1      -1.694   9.414  -1.576  0.00  0.00    -0.132 NA
ATOM      3  N   UNL     1      -1.085   9.503  -0.445  0.00  0.00    -0.121 NA
ATOM      4  C   UNL     1      -0.785   8.308  -0.018  0.00  0.00    +0.209 A 
ATOM      5  N   UNL     1      -1.246   7.410  -0.937  0.00  0.00    -0.225 N 
ATOM      6  N   UNL     1      -1.157   6.056  -0.874  0.00  0.00    -0.272 N 
ATOM      7  C   UNL     1      -0.089   5.576   0.004  0.00  0.00    +0.140 C 
ATOM      8  C   UNL     1      -0.310   6.081   1.436  0.00  0.00    +0.166 C 
ATOM      9  S   UNL     1       0.067   7.861   1.462  0.00  0.00    -0.069 S 
ATOM     10  H   UNL     1      -2.044   5.647  -0.620  0.00  0.00    +0.167 HD
ENDROOT
BRANCH   7  11
ATOM     11  C   UNL     1      -0.081   4.069   0.003  0.00  0.00    -0.024 A 
ATOM     12  C   UNL     1       1.119   3.385  -0.018  0.00  0.00    +0.008 A 
ATOM     13  C   UNL     1       1.127   2.003  -0.018  0.00  0.00    +0.038 A 
ATOM     14  C   UNL     1      -0.068   1.304   0.001  0.00  0.00    +0.123 A 
ATOM     15  C   UNL     1      -1.270   1.991   0.015  0.00  0.00    +0.038 A 
ATOM     16  C   UNL     1      -1.275   3.373   0.022  0.00  0.00    +0.008 A 
ATOM     17  F   UNL     1      -0.061  -0.047   0.000  0.00  0.00    -0.205 F 
ENDBRANCH   7  11
BRANCH   8  18
ATOM     18  C   UNL     1      -1.743   5.853   1.842  0.00  0.00    +0.233 C 
ATOM     19  O   UNL     1      -2.630   6.496   1.321  0.00  0.00    -0.274 OA
ATOM     20  N   UNL     1      -2.039   4.935   2.783  0.00  0.00    -0.284 N 
ATOM     21  H   UNL     1      -1.326   4.481   3.259  0.00  0.00    +0.155 HD
BRANCH  20  22
ATOM     22  C   UNL     1      -3.374   4.636   3.074  0.00  0.00    +0.045 A 
ATOM     23  C   UNL     1      -4.331   4.674   2.067  0.00  0.00    +0.024 A 
ATOM     24  C   UNL     1      -5.647   4.373   2.357  0.00  0.00    +0.002 A 
ATOM     25  C   UNL     1      -6.016   4.046   3.649  0.00  0.00    +0.001 A 
ATOM     26  C   UNL     1      -5.067   4.014   4.654  0.00  0.00    +0.014 A 
ATOM     27  C   UNL     1      -3.748   4.308   4.370  0.00  0.00    +0.076 A 
BRANCH  27  28
ATOM     28  C   UNL     1      -2.714   4.273   5.467  0.00  0.00    +0.419 C 
ATOM     29  F   UNL     1      -3.327   3.920   6.674  0.00  0.00    -0.166 F 
ATOM     30  F   UNL     1      -1.730   3.331   5.150  0.00  0.00    -0.166 F 
ATOM     31  F   UNL     1      -2.127   5.536   5.594  0.00  0.00    -0.166 F 
ENDBRANCH  27  28
ENDBRANCH  20  22
ENDBRANCH   8  18
BRANCH   1  32
ATOM     32  C   UNL     1      -2.467   7.643  -3.180  0.00  0.00    +0.078 C 
BRANCH  32  34
ATOM     33  C   UNL     1      -4.615   6.875  -4.197  0.00  0.00    +0.004 C 
ATOM     34  C   UNL     1      -3.955   7.402  -2.922  0.00  0.00    +0.004 C 
ENDBRANCH  32  34
ENDBRANCH   1  32
TORSDOF 6
