REMARK  Name = ZINC03832692
REMARK  6 active torsions:
REMARK  status: ('A' for Active; 'I' for Inactive)
REMARK    1  A    between atoms: C_4  and  N_27
REMARK    2  A    between atoms: C_5  and  N_7
REMARK    3  A    between atoms: C_8  and  C_10
REMARK    4  A    between atoms: C_14  and  S_16
REMARK    5  A    between atoms: S_16  and  N_19
REMARK    6  A    between atoms: N_19  and  C_20
REMARK                            x       y       z     vdW  Elec       q    Type
REMARK                         _______ _______ _______ _____ _____    ______ ____
ROOT
ATOM      1  C   UNL     1      -4.652  -1.008  -0.894  0.00  0.00    +0.039 A 
ATOM      2  C   UNL     1      -5.304   0.164  -0.504  0.00  0.00    +0.013 A 
ATOM      3  C   UNL     1      -4.684   1.038   0.365  0.00  0.00    +0.003 A 
ATOM      4  C   UNL     1      -3.422   0.752   0.855  0.00  0.00    +0.029 A 
ATOM      5  C   UNL     1      -2.769  -0.404   0.469  0.00  0.00    +0.109 A 
ATOM      6  C   UNL     1      -3.377  -1.287  -0.400  0.00  0.00    +0.042 A 
ENDROOT
BRANCH   1   8
ATOM      7  N   UNL     1      -6.542  -1.677  -2.299  0.00  0.00    -0.280 N 
ATOM      8  C   UNL     1      -5.310  -1.949  -1.825  0.00  0.00    +0.248 C 
ATOM      9  O   UNL     1      -4.741  -2.968  -2.162  0.00  0.00    -0.270 OA
ATOM     10  H   UNL     1      -7.025  -0.899  -1.977  0.00  0.00    +0.155 HD
BRANCH   7  15
ATOM     11  C   UNL     1      -7.478  -4.709  -4.154  0.00  0.00    +0.002 A 
ATOM     12  C   UNL     1      -8.274  -4.172  -5.150  0.00  0.00    +0.002 A 
ATOM     13  C   UNL     1      -8.495  -2.808  -5.202  0.00  0.00    +0.034 A 
ATOM     14  C   UNL     1      -7.922  -1.978  -4.258  0.00  0.00    +0.147 A 
ATOM     15  C   UNL     1      -7.123  -2.514  -3.256  0.00  0.00    +0.064 A 
ATOM     16  C   UNL     1      -6.899  -3.884  -3.211  0.00  0.00    +0.025 A 
BRANCH  14  17
ATOM     17  N   UNL     1      -8.158  -0.517  -4.314  0.00  0.00    +0.058 N 
ATOM     18  O   UNL     1      -8.944  -0.059  -5.124  0.00  0.00    -0.126 OA
ATOM     19  O   UNL     1      -7.567   0.225  -3.551  0.00  0.00    -0.126 OA
ENDBRANCH  14  17
ENDBRANCH   7  15
ENDBRANCH   1   8
BRANCH   5  20
ATOM     20  S   UNL     1      -1.159  -0.755   1.093  0.00  0.00    +0.072 S 
ATOM     21  O   UNL     1      -0.943  -2.146   0.903  0.00  0.00    -0.150 OA
ATOM     22  O   UNL     1      -1.076  -0.139   2.372  0.00  0.00    -0.150 OA
BRANCH  20  23
ATOM     23  N   UNL     1      -0.074   0.030   0.119  0.00  0.00    -0.216 N 
ATOM     24  H   UNL     1       0.505   0.714   0.491  0.00  0.00    +0.174 HD
BRANCH  23  25
ATOM     25  C   UNL     1       0.007  -0.292  -1.238  0.00  0.00    +0.048 A 
ATOM     26  C   UNL     1       0.048  -1.623  -1.636  0.00  0.00    +0.025 A 
ATOM     27  C   UNL     1       0.122  -1.939  -2.978  0.00  0.00    +0.017 A 
ATOM     28  C   UNL     1       0.168  -0.932  -3.926  0.00  0.00    +0.018 A 
ATOM     29  C   UNL     1       0.134   0.394  -3.532  0.00  0.00    +0.017 A 
ATOM     30  C   UNL     1       0.053   0.716  -2.192  0.00  0.00    +0.025 A 
ATOM     31 BR   UNL     1       0.276  -1.368  -5.762  0.00  0.00    -0.050 Br
ENDBRANCH  23  25
ENDBRANCH  20  23
ENDBRANCH   5  20
TORSDOF 6
