REMARK  Name = ZINC12645905
REMARK  11 active torsions:
REMARK  status: ('A' for Active; 'I' for Inactive)
REMARK    1  A    between atoms: C_1  and  C_2
REMARK    2  A    between atoms: C_7  and  N_8
REMARK    3  A    between atoms: C_9  and  C_11
REMARK    4  A    between atoms: N_17  and  C_24
REMARK    5  A    between atoms: C_20  and  C_22
REMARK    6  A    between atoms: C_20  and  C_23
REMARK    7  A    between atoms: C_24  and  C_25
REMARK    8  A    between atoms: N_27  and  C_28
REMARK    9  A    between atoms: C_31  and  N_34
REMARK   10  A    between atoms: N_34  and  C_35
REMARK   11  A    between atoms: N_34  and  C_36
REMARK                            x       y       z     vdW  Elec       q    Type
REMARK                         _______ _______ _______ _____ _____    ______ ____
ROOT
ATOM      1  C   UNL     1       3.911   7.233  -3.639  0.00  0.00    +0.039 A 
ATOM      2  C   UNL     1       5.288   7.411  -3.795  0.00  0.00    +0.017 A 
ATOM      3  C   UNL     1       6.138   7.186  -2.733  0.00  0.00    +0.048 A 
ATOM      4  C   UNL     1       5.629   6.782  -1.508  0.00  0.00    +0.143 A 
ATOM      5  C   UNL     1       4.254   6.602  -1.346  0.00  0.00    +0.079 A 
ATOM      6  C   UNL     1       3.396   6.826  -2.405  0.00  0.00    +0.040 A 
ATOM      7  N   UNL     1       3.758   6.193  -0.099  0.00  0.00    -0.256 N 
ATOM      8  C   UNL     1       4.556   6.292   0.987  0.00  0.00    +0.264 C 
ATOM      9  O   UNL     1       4.159   5.921   2.071  0.00  0.00    -0.271 OA
ATOM     10  C   UNL     1       5.945   6.860   0.844  0.00  0.00    +0.181 C 
ATOM     11  O   UNL     1       6.459   6.559  -0.456  0.00  0.00    -0.475 OA
ATOM     12  C   UNL     1       6.860   6.249   1.907  0.00  0.00    +0.065 C 
ATOM     13  C   UNL     1       5.890   8.377   1.031  0.00  0.00    +0.065 C 
ENDROOT
BRANCH   1  15
ATOM     14  N   UNL     1       3.498   7.868  -5.965  0.00  0.00    -0.281 N 
ATOM     15  C   UNL     1       3.001   7.475  -4.776  0.00  0.00    +0.248 C 
ATOM     16  O   UNL     1       1.803   7.320  -4.639  0.00  0.00    -0.270 OA
ATOM     17  H   UNL     1       4.443   8.070  -6.053  0.00  0.00    +0.155 HD
BRANCH  14  24
ATOM     18  C   UNL     1       4.266   9.632  -8.062  0.00  0.00    +0.045 C 
ATOM     19  C   UNL     1       2.989   8.834  -8.118  0.00  0.00    -0.029 A 
ATOM     20  C   UNL     1       2.151   8.947  -9.211  0.00  0.00    +0.005 A 
ATOM     21  C   UNL     1       0.979   8.214  -9.264  0.00  0.00    +0.000 A 
ATOM     22  C   UNL     1       0.642   7.367  -8.225  0.00  0.00    +0.002 A 
ATOM     23  C   UNL     1       1.478   7.245  -7.132  0.00  0.00    +0.023 A 
ATOM     24  C   UNL     1       2.653   7.984  -7.073  0.00  0.00    +0.037 A 
ENDBRANCH  14  24
ENDBRANCH   1  15
BRANCH   7  25
ATOM     25  C   UNL     1       2.395   5.672   0.025  0.00  0.00    +0.209 C 
BRANCH  25  26
ATOM     26  C   UNL     1       2.408   4.178  -0.173  0.00  0.00    +0.235 C 
ATOM     27  O   UNL     1       3.454   3.605  -0.396  0.00  0.00    -0.274 OA
ATOM     28  N   UNL     1       1.258   3.479  -0.102  0.00  0.00    -0.284 N 
ATOM     29  H   UNL     1       0.413   3.944  -0.000  0.00  0.00    +0.155 HD
BRANCH  28  30
ATOM     30  C   UNL     1       1.283   2.079  -0.177  0.00  0.00    +0.034 A 
ATOM     31  C   UNL     1       2.342   1.373   0.379  0.00  0.00    +0.025 A 
ATOM     32  C   UNL     1       2.366  -0.005   0.306  0.00  0.00    +0.025 A 
ATOM     33  C   UNL     1       1.333  -0.686  -0.324  0.00  0.00    +0.029 A 
ATOM     34  C   UNL     1       0.274   0.021  -0.880  0.00  0.00    +0.025 A 
ATOM     35  C   UNL     1       0.250   1.399  -0.807  0.00  0.00    +0.025 A 
BRANCH  33  36
ATOM     36  N   UNL     1       1.358  -2.082  -0.399  0.00  0.00    -0.336 N 
ATOM     37  C   UNL     1       2.527  -2.821   0.085  0.00  0.00    +0.129 C 
ATOM     38  C   UNL     1       0.215  -2.807  -0.961  0.00  0.00    +0.129 C 
ENDBRANCH  33  36
ENDBRANCH  28  30
ENDBRANCH  25  26
ENDBRANCH   7  25
TORSDOF 6
