REMARK  Name = ZINC00639216
REMARK  8 active torsions:
REMARK  status: ('A' for Active; 'I' for Inactive)
REMARK    1  A    between atoms: C_1  and  C_2
REMARK    2  A    between atoms: C_2  and  O_3
REMARK    3  A    between atoms: O_3  and  C_4
REMARK    4  A    between atoms: C_4  and  C_6
REMARK    5  A    between atoms: C_7  and  N_28
REMARK    6  A    between atoms: C_11  and  C_13
REMARK    7  A    between atoms: C_18  and  O_19
REMARK    8  A    between atoms: O_19  and  C_20
REMARK                            x       y       z     vdW  Elec       q    Type
REMARK                         _______ _______ _______ _____ _____    ______ ____
ROOT
ATOM      1  C   UNL     1       3.680   3.027   0.006  0.00  0.00    +0.105 C 
ATOM      2  C   UNL     1       2.743   3.630   0.784  0.00  0.00    +0.195 C 
ATOM      3  O   UNL     1       1.544   3.069   0.993  0.00  0.00    -0.446 OA
ATOM      4  C   UNL     1       1.072   2.154   0.125  0.00  0.00    +0.115 C 
ATOM      5  C   UNL     1       1.898   1.461  -0.681  0.00  0.00    +0.045 C 
ATOM      6  C   UNL     1       3.387   1.705  -0.648  0.00  0.00    +0.101 C 
ATOM      7  C   UNL     1       1.404   0.492  -1.576  0.00  0.00    +0.163 C 
ATOM      8  O   UNL     1       2.179  -0.098  -2.302  0.00  0.00    -0.292 OA
ATOM      9  C   UNL     1      -0.065   0.176  -1.651  0.00  0.00    +0.080 C 
ATOM     10  C   UNL     1      -0.703   0.464  -0.288  0.00  0.00    +0.016 C 
ATOM     11  C   UNL     1      -0.420   1.921   0.081  0.00  0.00    +0.075 C 
ENDROOT
BRANCH   6  12
ATOM     12  C   UNL     1       4.058   0.603   0.131  0.00  0.00    +0.009 A 
ATOM     13  C   UNL     1       3.727   0.394   1.456  0.00  0.00    +0.023 A 
ATOM     14  C   UNL     1       4.342  -0.618   2.172  0.00  0.00    +0.019 A 
ATOM     15  C   UNL     1       5.288  -1.422   1.563  0.00  0.00    +0.034 A 
ATOM     16  C   UNL     1       5.622  -1.216   0.238  0.00  0.00    +0.061 A 
ATOM     17  C   UNL     1       5.002  -0.205  -0.483  0.00  0.00    +0.138 A 
ATOM     18 BR   UNL     1       6.916  -2.316  -0.594  0.00  0.00    -0.046 Br
ATOM     19 BR   UNL     1       3.887  -0.901   3.986  0.00  0.00    -0.050 Br
BRANCH  17  20
ATOM     20  O   UNL     1       5.324  -0.004  -1.788  0.00  0.00    -0.494 OA
ATOM     21  C   UNL     1       6.468   0.810  -2.056  0.00  0.00    +0.277 C 
ENDBRANCH  17  20
ENDBRANCH   6  12
BRANCH   2  22
ATOM     22  N   UNL     1       3.030   4.836   1.366  0.00  0.00    -0.329 N 
ATOM     23  H   UNL     1       2.345   5.311   1.860  0.00  0.00    +0.145 HD
ATOM     24  H   UNL     1       3.920   5.214   1.284  0.00  0.00    +0.145 HD
ENDBRANCH   2  22
BRANCH   1  25
ATOM     25  C   UNL     1       4.927   3.641  -0.189  0.00  0.00    +0.341 C 
ATOM     26  O   UNL     1       5.161   4.228  -1.230  0.00  0.00    -0.245 OA
BRANCH  25  27
ATOM     27  O   UNL     1       5.867   3.582   0.779  0.00  0.00    -0.462 OA
BRANCH  27  29
ATOM     28  C   UNL     1       7.966   4.215   1.794  0.00  0.00    +0.048 C 
ATOM     29  C   UNL     1       7.080   4.300   0.550  0.00  0.00    +0.229 C 
ENDBRANCH  27  29
ENDBRANCH  25  27
ENDBRANCH   1  25
TORSDOF 6
