REMARK  Name = ZINC12329549
REMARK  10 active torsions:
REMARK  status: ('A' for Active; 'I' for Inactive)
REMARK    1  A    between atoms: C_1  and  C_2
REMARK    2  A    between atoms: C_2  and  O_3
REMARK    3  A    between atoms: O_3  and  C_4
REMARK    4  A    between atoms: C_7  and  C_10
REMARK    5  A    between atoms: C_10  and  C_12
REMARK    6  A    between atoms: C_10  and  O_31
REMARK    7  A    between atoms: C_12  and  N_61
REMARK    8  A    between atoms: C_19  and  O_30
REMARK    9  A    between atoms: C_24  and  O_28
REMARK   10  A    between atoms: O_28  and  C_29
REMARK                            x       y       z     vdW  Elec       q    Type
REMARK                         _______ _______ _______ _____ _____    ______ ____
ROOT
ATOM      1  C   UNL     1       0.096  -4.711   0.963  0.00  0.00    -0.075 C 
ATOM      2  C   UNL     1       0.196  -6.232   0.826  0.00  0.00    +0.029 C 
ATOM      3  C   UNL     1       0.593  -6.836   2.174  0.00  0.00    +0.110 C 
ATOM      4  C   UNL     1       1.914  -6.221   2.639  0.00  0.00    +0.029 C 
ATOM      5  C   UNL     1       1.762  -4.700   2.723  0.00  0.00    -0.075 C 
ATOM      6  C   UNL     1       0.758  -8.353   2.026  0.00  0.00    +0.084 C 
ATOM      7  C   UNL     1      -0.543  -8.924   1.455  0.00  0.00    +0.152 C 
ATOM      8  C   UNL     1      -1.718  -8.381   2.227  0.00  0.00    +0.023 A 
ATOM      9  C   UNL     1      -2.935  -9.037   2.136  0.00  0.00    +0.013 A 
ATOM     10  C   UNL     1      -4.034  -8.569   2.826  0.00  0.00    +0.046 A 
ATOM     11  C   UNL     1      -3.924  -7.433   3.616  0.00  0.00    +0.124 A 
ATOM     12  C   UNL     1      -2.710  -6.774   3.709  0.00  0.00    +0.091 A 
ATOM     13  C   UNL     1      -1.602  -7.249   3.015  0.00  0.00    +0.130 A 
ATOM     14  O   UNL     1      -0.426  -6.580   3.139  0.00  0.00    -0.485 OA
ATOM     15  N   UNL     1       1.409  -4.179   1.385  0.00  0.00    +0.382 N 
ATOM     16  H   UNL     1       2.123  -4.482   0.711  0.00  0.00    -0.082 HD
ENDROOT
BRANCH  11  17
ATOM     17  O   UNL     1      -5.005  -6.968   4.295  0.00  0.00    -0.495 OA
ATOM     18  C   UNL     1      -6.225  -7.698   4.152  0.00  0.00    +0.277 C 
ENDBRANCH  11  17
BRANCH   7  19
ATOM     19  O   UNL     1      -0.523 -10.349   1.560  0.00  0.00    -0.387 OA
ATOM     20  H   UNL     1      -1.317 -10.780   1.216  0.00  0.00    +0.210 HD
ENDBRANCH   7  19
BRANCH  15  21
ATOM     21  C   UNL     1       1.371  -2.703   1.412  0.00  0.00    -0.042 C 
BRANCH  21  22
ATOM     22  C   UNL     1       1.226  -2.187  -0.021  0.00  0.00    +0.128 C 
BRANCH  22  26
ATOM     23  C   UNL     1       1.176   2.086   0.002  0.00  0.00    +0.121 A 
ATOM     24  C   UNL     1      -0.017   1.377   0.010  0.00  0.00    +0.046 A 
ATOM     25  C   UNL     1       0.002  -0.004   0.002  0.00  0.00    +0.009 A 
ATOM     26  C   UNL     1       1.208  -0.680  -0.013  0.00  0.00    -0.021 A 
ATOM     27  C   UNL     1       2.398   0.024  -0.021  0.00  0.00    +0.009 A 
ATOM     28  C   UNL     1       2.385   1.405  -0.013  0.00  0.00    +0.046 A 
BRANCH  23  29
ATOM     29  O   UNL     1       1.160   3.445   0.009  0.00  0.00    -0.492 OA
BRANCH  29  31
ATOM     30  C   UNL     1       2.208   5.623   0.010  0.00  0.00    +0.048 C 
ATOM     31  C   UNL     1       2.426   4.108   0.001  0.00  0.00    +0.225 C 
ENDBRANCH  29  31
ENDBRANCH  23  29
ENDBRANCH  22  26
BRANCH  22  32
ATOM     32  O   UNL     1       2.327  -2.647  -0.807  0.00  0.00    -0.389 OA
ATOM     33  H   UNL     1       3.190  -2.353  -0.484  0.00  0.00    +0.210 HD
ENDBRANCH  22  32
ENDBRANCH  21  22
ENDBRANCH  15  21
TORSDOF 8
