REMARK  Name = ZINC46621178
REMARK  5 active torsions:
REMARK  status: ('A' for Active; 'I' for Inactive)
REMARK    1  A    between atoms: C_3  and  N_22
REMARK    2  A    between atoms: C_6  and  C_7
REMARK    3  A    between atoms: N_9  and  N_10
REMARK    4  A    between atoms: C_11  and  C_13
REMARK    5  A    between atoms: C_23  and  C_25
REMARK                            x       y       z     vdW  Elec       q    Type
REMARK                         _______ _______ _______ _____ _____    ______ ____
ROOT
ATOM      1  C   UNL     1      -0.012   1.389  -0.187  0.00  0.00    +0.015 A 
ATOM      2  C   UNL     1       1.173   2.090  -0.189  0.00  0.00    +0.024 A 
ATOM      3  C   UNL     1       2.380   1.419  -0.019  0.00  0.00    +0.034 A 
ATOM      4  C   UNL     1       2.393   0.038   0.154  0.00  0.00    +0.024 A 
ATOM      5  C   UNL     1       1.212  -0.668   0.156  0.00  0.00    +0.015 A 
ATOM      6  C   UNL     1      -0.002   0.003  -0.014  0.00  0.00    +0.038 A 
ENDROOT
BRANCH   6   7
ATOM      7  C   UNL     1      -1.270  -0.752  -0.012  0.00  0.00    +0.260 C 
ATOM      8  O   UNL     1      -2.326  -0.167  -0.161  0.00  0.00    -0.269 OA
ATOM      9  N   UNL     1      -1.259  -2.089   0.155  0.00  0.00    -0.230 N 
ATOM     10  H   UNL     1      -0.417  -2.556   0.273  0.00  0.00    +0.173 HD
BRANCH   9  11
ATOM     11  N   UNL     1      -2.463  -2.806   0.157  0.00  0.00    -0.230 N 
ATOM     12  C   UNL     1      -2.451  -4.143   0.324  0.00  0.00    +0.260 C 
ATOM     13  O   UNL     1      -1.395  -4.728   0.473  0.00  0.00    -0.269 OA
ATOM     14  H   UNL     1      -3.305  -2.339   0.038  0.00  0.00    +0.173 HD
BRANCH  12  15
ATOM     15  C   UNL     1      -3.720  -4.897   0.326  0.00  0.00    +0.042 A 
ATOM     16  C   UNL     1      -4.933  -4.228   0.149  0.00  0.00    +0.017 A 
ATOM     17  C   UNL     1      -6.116  -4.934   0.152  0.00  0.00    +0.050 A 
ATOM     18  C   UNL     1      -6.108  -6.311   0.329  0.00  0.00    +0.166 A 
ATOM     19  C   UNL     1      -4.899  -6.986   0.506  0.00  0.00    +0.167 A 
ATOM     20  C   UNL     1      -3.709  -6.284   0.499  0.00  0.00    +0.062 A 
ATOM     21  O   UNL     1      -5.162  -8.317   0.657  0.00  0.00    -0.453 OA
ATOM     22  C   UNL     1      -6.563  -8.397   0.980  0.00  0.00    +0.466 C 
ATOM     23  O   UNL     1      -7.123  -7.220   0.369  0.00  0.00    -0.453 OA
ENDBRANCH  12  15
ENDBRANCH   9  11
ENDBRANCH   6   7
BRANCH   3  24
ATOM     24  N   UNL     1       3.577   2.132  -0.021  0.00  0.00    -0.282 N 
ATOM     25  C   UNL     1       3.618   3.383   0.478  0.00  0.00    +0.248 C 
ATOM     26  O   UNL     1       2.636   3.854   1.017  0.00  0.00    -0.270 OA
ATOM     27  H   UNL     1       4.382   1.727  -0.382  0.00  0.00    +0.155 HD
BRANCH  25  28
ATOM     28  C   UNL     1       4.857   4.181   0.370  0.00  0.00    +0.040 A 
ATOM     29  C   UNL     1       5.985   3.645  -0.254  0.00  0.00    +0.033 A 
ATOM     30  C   UNL     1       7.139   4.396  -0.352  0.00  0.00    +0.043 A 
ATOM     31  C   UNL     1       7.180   5.679   0.167  0.00  0.00    +0.040 A 
ATOM     32  C   UNL     1       6.065   6.217   0.787  0.00  0.00    +0.043 A 
ATOM     33  C   UNL     1       4.903   5.478   0.886  0.00  0.00    +0.033 A 
ATOM     34 CL   UNL     1       6.126   7.826   1.435  0.00  0.00    -0.083 Cl
ATOM     35 CL   UNL     1       8.543   3.730  -1.127  0.00  0.00    -0.083 Cl
ENDBRANCH  25  28
ENDBRANCH   3  24
TORSDOF 5
