REMARK  Name = ZINC66096992
REMARK  10 active torsions:
REMARK  status: ('A' for Active; 'I' for Inactive)
REMARK    1  A    between atoms: C_1  and  C_2
REMARK    2  A    between atoms: C_8  and  C_10
REMARK    3  A    between atoms: C_13  and  N_16
REMARK    4  A    between atoms: C_17  and  C_19
REMARK    5  A    between atoms: C_19  and  N_20
REMARK    6  A    between atoms: N_20  and  C_21
REMARK    7  A    between atoms: C_25  and  C_27
REMARK    8  A    between atoms: N_29  and  C_30
REMARK    9  A    between atoms: C_30  and  C_32
REMARK   10  A    between atoms: C_30  and  C_33
REMARK                            x       y       z     vdW  Elec       q    Type
REMARK                         _______ _______ _______ _____ _____    ______ ____
ROOT
ATOM      1  C   UNL     1       2.992  -6.401   8.066  0.00  0.00    +0.198 C 
ENDROOT
BRANCH   1   3
ATOM      2  N   UNL     1       2.377  -4.936   6.170  0.00  0.00    -0.284 N 
ATOM      3  C   UNL     1       2.026  -5.931   7.009  0.00  0.00    +0.234 C 
ATOM      4  O   UNL     1       0.933  -6.448   6.913  0.00  0.00    -0.274 OA
ATOM      5  H   UNL     1       3.223  -4.476   6.289  0.00  0.00    +0.155 HD
BRANCH   2   9
ATOM      6  C   UNL     1      -0.173  -3.830   3.067  0.00  0.00    +0.037 A 
ATOM      7  C   UNL     1      -0.700  -4.240   4.295  0.00  0.00    +0.015 A 
ATOM      8  C   UNL     1       0.145  -4.606   5.318  0.00  0.00    +0.024 A 
ATOM      9  C   UNL     1       1.523  -4.566   5.131  0.00  0.00    +0.033 A 
ATOM     10  C   UNL     1       2.052  -4.158   3.911  0.00  0.00    +0.024 A 
ATOM     11  C   UNL     1       1.212  -3.797   2.881  0.00  0.00    +0.015 A 
BRANCH   6  19
ATOM     12  C   UNL     1      -3.595   1.355   2.593  0.00  0.00    +0.007 C 
ATOM     13  C   UNL     1      -3.496  -0.171   2.551  0.00  0.00    -0.011 C 
ATOM     14  C   UNL     1      -2.489  -0.646   3.601  0.00  0.00    +0.022 C 
ATOM     15  C   UNL     1      -2.419  -2.176   3.579  0.00  0.00    +0.108 C 
ATOM     16  N   UNL     1      -2.116  -2.616   2.211  0.00  0.00    -0.298 N 
ATOM     17  C   UNL     1      -2.969  -2.143   1.112  0.00  0.00    +0.108 C 
ATOM     18  C   UNL     1      -3.033  -0.614   1.161  0.00  0.00    +0.022 C 
ATOM     19  C   UNL     1      -1.076  -3.438   1.968  0.00  0.00    +0.247 C 
ATOM     20  O   UNL     1      -0.882  -3.857   0.843  0.00  0.00    -0.270 OA
ENDBRANCH   6  19
ENDBRANCH   2   9
ENDBRANCH   1   3
BRANCH   1  21
ATOM     21  N   UNL     1       2.379  -7.482   8.841  0.00  0.00    -0.335 N 
ATOM     22  H   UNL     1       1.481  -7.781   8.630  0.00  0.00    +0.147 HD
BRANCH  21  23
ATOM     23  C   UNL     1       3.088  -8.082   9.885  0.00  0.00    +0.028 A 
ATOM     24  C   UNL     1       4.373  -7.650  10.191  0.00  0.00    +0.023 A 
ATOM     25  C   UNL     1       5.079  -8.240  11.222  0.00  0.00    +0.003 A 
ATOM     26  C   UNL     1       4.512  -9.263  11.955  0.00  0.00    +0.013 A 
ATOM     27  C   UNL     1       3.222  -9.705  11.656  0.00  0.00    +0.038 A 
ATOM     28  C   UNL     1       2.508  -9.105  10.618  0.00  0.00    +0.036 A 
BRANCH  27  29
ATOM     29  C   UNL     1       2.613 -10.800  12.440  0.00  0.00    +0.245 C 
ATOM     30  O   UNL     1       1.490 -11.184  12.178  0.00  0.00    -0.270 OA
ATOM     31  N   UNL     1       3.303 -11.375  13.445  0.00  0.00    -0.305 N 
ATOM     32  H   UNL     1       4.200 -11.069  13.654  0.00  0.00    +0.150 HD
BRANCH  31  33
ATOM     33  C   UNL     1       2.700 -12.460  14.222  0.00  0.00    +0.100 C 
ATOM     34  C   UNL     1       1.843 -11.870  15.343  0.00  0.00    +0.033 C 
BRANCH  33  35
ATOM     35  C   UNL     1       3.787 -13.317  14.818  0.00  0.00    -0.027 A 
ATOM     36  C   UNL     1       4.925 -12.727  15.336  0.00  0.00    +0.005 A 
ATOM     37  C   UNL     1       5.922 -13.512  15.883  0.00  0.00    +0.000 A 
ATOM     38  C   UNL     1       5.782 -14.887  15.912  0.00  0.00    +0.000 A 
ATOM     39  C   UNL     1       4.644 -15.477  15.394  0.00  0.00    +0.000 A 
ATOM     40  C   UNL     1       3.645 -14.691  14.851  0.00  0.00    +0.005 A 
ENDBRANCH  33  35
ENDBRANCH  31  33
ENDBRANCH  27  29
ENDBRANCH  21  23
ENDBRANCH   1  21
TORSDOF 8
