REMARK  Name = ZINC16806193
REMARK  9 active torsions:
REMARK  status: ('A' for Active; 'I' for Inactive)
REMARK    1  A    between atoms: C_1  and  C_2
REMARK    2  A    between atoms: C_2  and  C_3
REMARK    3  A    between atoms: C_3  and  C_5
REMARK    4  A    between atoms: C_3  and  O_30
REMARK    5  A    between atoms: N_7  and  C_8
REMARK    6  A    between atoms: C_9  and  C_19
REMARK    7  A    between atoms: C_14  and  C_18
REMARK    8  A    between atoms: N_21  and  C_22
REMARK    9  A    between atoms: O_30  and  C_31
REMARK                            x       y       z     vdW  Elec       q    Type
REMARK                         _______ _______ _______ _____ _____    ______ ____
ROOT
ATOM      1  C   UNL     1       0.059  -0.057  -0.549  0.00  0.00    +0.085 A 
ATOM      2  C   UNL     1       0.061   1.327  -0.653  0.00  0.00    +0.069 A 
ATOM      3  C   UNL     1       1.340   1.982  -0.868  0.00  0.00    -0.023 A 
ATOM      4  C   UNL     1       2.405   1.154  -0.942  0.00  0.00    -0.004 A 
ATOM      5  S   UNL     1       1.731  -0.469  -0.733  0.00  0.00    -0.077 S 
ATOM      6  C   UNL     1       3.836   1.540  -1.154  0.00  0.00    +0.046 C 
ATOM      7  C   UNL     1       3.973   3.049  -0.903  0.00  0.00    -0.009 C 
ATOM      8  C   UNL     1       2.859   3.778  -1.661  0.00  0.00    +0.008 C 
ATOM      9  C   UNL     1       1.508   3.490  -1.004  0.00  0.00    +0.037 C 
ATOM     10  C   UNL     1       5.335   3.532  -1.405  0.00  0.00    +0.008 C 
ENDROOT
BRANCH   1  13
ATOM     11  C   UNL     1      -0.828  -2.235  -0.271  0.00  0.00    +0.258 C 
ATOM     12  O   UNL     1       0.290  -2.693  -0.380  0.00  0.00    -0.271 OA
ATOM     13  N   UNL     1      -1.021  -0.903  -0.347  0.00  0.00    -0.276 N 
ATOM     14  H   UNL     1      -1.915  -0.537  -0.260  0.00  0.00    +0.155 HD
BRANCH  11  15
ATOM     15  C   UNL     1      -2.001  -3.155  -0.051  0.00  0.00    +0.259 C 
BRANCH  15  17
ATOM     16  C   UNL     1      -3.945  -3.654   1.437  0.00  0.00    +0.008 C 
ATOM     17  C   UNL     1      -2.683  -2.805   1.273  0.00  0.00    +0.051 C 
ENDBRANCH  15  17
BRANCH  15  18
ATOM     18  O   UNL     1      -1.543  -4.508  -0.008  0.00  0.00    -0.477 OA
BRANCH  18  19
ATOM     19  C   UNL     1      -2.373  -5.457  -0.518  0.00  0.00    +0.157 A 
ATOM     20  C   UNL     1      -3.580  -5.088  -1.091  0.00  0.00    +0.048 A 
ATOM     21  C   UNL     1      -4.422  -6.054  -1.609  0.00  0.00    +0.004 A 
ATOM     22  C   UNL     1      -4.062  -7.388  -1.557  0.00  0.00    +0.003 A 
ATOM     23  C   UNL     1      -2.858  -7.760  -0.987  0.00  0.00    +0.042 A 
ATOM     24  C   UNL     1      -2.010  -6.797  -0.471  0.00  0.00    +0.165 A 
ATOM     25  F   UNL     1      -0.831  -7.160   0.082  0.00  0.00    -0.202 F 
ENDBRANCH  18  19
ENDBRANCH  15  18
ENDBRANCH  11  15
ENDBRANCH   1  13
BRANCH   2  26
ATOM     26  C   UNL     1      -1.182   2.099  -0.557  0.00  0.00    +0.247 C 
ATOM     27  O   UNL     1      -1.568   2.499   0.525  0.00  0.00    -0.270 OA
ATOM     28  N   UNL     1      -1.896   2.367  -1.668  0.00  0.00    -0.307 N 
ATOM     29  H   UNL     1      -1.589   2.048  -2.531  0.00  0.00    +0.149 HD
BRANCH  28  30
ATOM     30  C   UNL     1      -3.138   3.138  -1.573  0.00  0.00    +0.096 C 
ATOM     31  C   UNL     1      -4.312   2.196  -1.261  0.00  0.00    +0.046 C 
ATOM     32  C   UNL     1      -5.654   2.936  -1.473  0.00  0.00    +0.168 C 
ATOM     33  S   UNL     1      -5.229   4.185  -2.755  0.00  0.00    -0.029 S 
ATOM     34  O   UNL     1      -5.399   5.485  -2.208  0.00  0.00    -0.174 OA
ATOM     35  O   UNL     1      -5.885   3.844  -3.968  0.00  0.00    -0.174 OA
ATOM     36  C   UNL     1      -3.427   3.839  -2.930  0.00  0.00    +0.188 C 
ENDBRANCH  28  30
ENDBRANCH   2  26
TORSDOF 7
