REMARK  Name = ZINC40709637
REMARK  7 active torsions:
REMARK  status: ('A' for Active; 'I' for Inactive)
REMARK    1  A    between atoms: C_4  and  C_7
REMARK    2  A    between atoms: C_7  and  N_8
REMARK    3  A    between atoms: N_8  and  C_9
REMARK    4  A    between atoms: C_9  and  C_10
REMARK    5  A    between atoms: C_17  and  N_31
REMARK    6  A    between atoms: C_18  and  N_22
REMARK    7  A    between atoms: N_22  and  C_23
REMARK                            x       y       z     vdW  Elec       q    Type
REMARK                         _______ _______ _______ _____ _____    ______ ____
ROOT
ATOM      1  N   UNL     1       4.142  -0.770   1.260  0.00  0.00    -0.305 N 
ATOM      2  C   UNL     1       4.926   0.150   1.944  0.00  0.00    +0.148 A 
ATOM      3  C   UNL     1       4.341   1.076   2.810  0.00  0.00    +0.106 A 
ATOM      4  C   UNL     1       5.175   1.978   3.472  0.00  0.00    +0.149 A 
ATOM      5  N   UNL     1       6.487   1.923   3.253  0.00  0.00    -0.219 NA
ATOM      6  C   UNL     1       6.999   1.034   2.427  0.00  0.00    +0.225 A 
ATOM      7  N   UNL     1       6.248   0.160   1.787  0.00  0.00    -0.219 NA
ENDROOT
BRANCH   3   8
ATOM      8  N   UNL     1       2.951   1.098   3.010  0.00  0.00    -0.353 N 
ATOM      9  H   UNL     1       2.377   0.513   2.492  0.00  0.00    +0.143 HD
ATOM     10  H   UNL     1       2.566   1.699   3.667  0.00  0.00    +0.143 HD
ENDBRANCH   3   8
BRANCH   4  11
ATOM     11  N   UNL     1       4.644   2.921   4.345  0.00  0.00    -0.296 N 
ATOM     12  H   UNL     1       3.701   2.897   4.569  0.00  0.00    +0.154 HD
BRANCH  11  13
ATOM     13  C   UNL     1       5.471   3.904   4.901  0.00  0.00    +0.068 A 
ATOM     14  C   UNL     1       6.546   4.401   4.175  0.00  0.00    +0.027 A 
ATOM     15  C   UNL     1       7.360   5.371   4.726  0.00  0.00    +0.017 A 
ATOM     16  C   UNL     1       7.107   5.849   6.000  0.00  0.00    +0.021 A 
ATOM     17  C   UNL     1       6.037   5.357   6.726  0.00  0.00    +0.055 A 
ATOM     18  C   UNL     1       5.214   4.390   6.178  0.00  0.00    +0.145 A 
ATOM     19  F   UNL     1       4.166   3.914   6.885  0.00  0.00    -0.204 F 
ATOM     20 BR   UNL     1       8.226   7.176   6.749  0.00  0.00    -0.050 Br
ENDBRANCH  11  13
ENDBRANCH   4  11
BRANCH   1  21
ATOM     21  C   UNL     1       3.719  -0.495  -0.115  0.00  0.00    +0.142 C 
BRANCH  21  25
ATOM     22  C   UNL     1      -0.015   1.579  -0.071  0.00  0.00    +0.000 A 
ATOM     23  C   UNL     1       1.171   2.290  -0.046  0.00  0.00    +0.000 A 
ATOM     24  C   UNL     1       2.379   1.619  -0.060  0.00  0.00    +0.005 A 
ATOM     25  C   UNL     1       2.402   0.237  -0.099  0.00  0.00    -0.030 A 
ATOM     26  C   UNL     1       1.216  -0.474  -0.123  0.00  0.00    +0.005 A 
ATOM     27  C   UNL     1       0.008   0.198  -0.111  0.00  0.00    +0.000 A 
ENDBRANCH  21  25
ENDBRANCH   1  21
BRANCH   1  28
ATOM     28  C   UNL     1       3.737  -2.017   1.915  0.00  0.00    +0.142 C 
BRANCH  28  29
ATOM     29  C   UNL     1       4.708  -3.112   1.556  0.00  0.00    -0.030 A 
ATOM     30  C   UNL     1       4.541  -3.826   0.384  0.00  0.00    +0.005 A 
ATOM     31  C   UNL     1       5.432  -4.830   0.054  0.00  0.00    +0.000 A 
ATOM     32  C   UNL     1       6.490  -5.120   0.895  0.00  0.00    +0.000 A 
ATOM     33  C   UNL     1       6.657  -4.405   2.067  0.00  0.00    +0.000 A 
ATOM     34  C   UNL     1       5.769  -3.398   2.394  0.00  0.00    +0.005 A 
ENDBRANCH  28  29
ENDBRANCH   1  28
TORSDOF 7
