REMARK  Name = ZINC04553445
REMARK  9 active torsions:
REMARK  status: ('A' for Active; 'I' for Inactive)
REMARK    1  A    between atoms: C_1  and  C_2
REMARK    2  A    between atoms: C_2  and  C_3
REMARK    3  A    between atoms: C_3  and  C_4
REMARK    4  A    between atoms: C_3  and  C_5
REMARK    5  A    between atoms: C_3  and  C_6
REMARK    6  A    between atoms: C_15  and  O_28
REMARK    7  A    between atoms: C_17  and  C_20
REMARK    8  A    between atoms: C_24  and  C_27
REMARK    9  A    between atoms: C_25  and  O_26
REMARK                            x       y       z     vdW  Elec       q    Type
REMARK                         _______ _______ _______ _____ _____    ______ ____
ROOT
ATOM      1  C   UNL     1       0.739  -2.027  -1.265  0.00  0.00    -0.000 C 
ATOM      2  C   UNL     1       1.461  -2.524  -2.521  0.00  0.00    +0.009 C 
ATOM      3  C   UNL     1       1.274  -4.035  -2.666  0.00  0.00    +0.037 C 
ATOM      4  C   UNL     1       1.676  -4.705  -1.360  0.00  0.00    -0.023 A 
ATOM      5  C   UNL     1       1.760  -3.999  -0.209  0.00  0.00    -0.004 A 
ATOM      6  S   UNL     1       2.254  -5.184   1.013  0.00  0.00    -0.078 S 
ATOM      7  C   UNL     1       2.351  -6.537   0.060  0.00  0.00    +0.080 A 
ATOM      8  C   UNL     1       1.998  -6.114  -1.227  0.00  0.00    +0.068 A 
ATOM      9  C   UNL     1       1.983  -7.138  -2.304  0.00  0.00    +0.220 C 
ATOM     10  N   UNL     1       2.532  -8.294  -2.049  0.00  0.00    -0.223 NA
ATOM     11  C   UNL     1       3.215  -8.628  -0.805  0.00  0.00    +0.227 C 
ATOM     12  N   UNL     1       2.693  -7.843   0.329  0.00  0.00    -0.313 N 
ATOM     13  C   UNL     1       1.487  -2.538  -0.025  0.00  0.00    +0.046 C 
ATOM     14  H   UNL     1       2.596  -8.226   1.215  0.00  0.00    +0.149 HD
ENDROOT
BRANCH  11  15
ATOM     15  C   UNL     1       4.687  -8.346  -0.960  0.00  0.00    +0.036 A 
ATOM     16  C   UNL     1       5.419  -7.882   0.116  0.00  0.00    +0.011 A 
ATOM     17  C   UNL     1       6.770  -7.623  -0.026  0.00  0.00    +0.001 A 
ATOM     18  C   UNL     1       7.391  -7.827  -1.245  0.00  0.00    +0.007 A 
ATOM     19  C   UNL     1       6.663  -8.290  -2.324  0.00  0.00    -0.009 A 
ATOM     20  C   UNL     1       5.309  -8.557  -2.182  0.00  0.00    +0.127 A 
ATOM     21  C   UNL     1       7.341  -8.512  -3.651  0.00  0.00    +0.047 C 
BRANCH  20  22
ATOM     22  O   UNL     1       4.592  -9.018  -3.240  0.00  0.00    -0.506 OA
ATOM     23  H   UNL     1       4.200  -8.321  -3.784  0.00  0.00    +0.292 HD
ENDBRANCH  20  22
ENDBRANCH  11  15
BRANCH   1  24
ATOM     24  C   UNL     1       0.718  -0.497  -1.257  0.00  0.00    -0.032 C 
ATOM     25  C   UNL     1      -0.022   0.009  -2.496  0.00  0.00    +0.011 C 
ATOM     26  C   UNL     1       2.154   0.032  -1.268  0.00  0.00    +0.011 C 
BRANCH  24  28
ATOM     27  C   UNL     1      -0.019   1.526   0.010  0.00  0.00    +0.004 C 
ATOM     28  C   UNL     1       0.002  -0.004   0.002  0.00  0.00    +0.003 C 
ENDBRANCH  24  28
ENDBRANCH   1  24
BRANCH   9  29
ATOM     29  O   UNL     1       1.420  -6.880  -3.507  0.00  0.00    -0.492 OA
ATOM     30  H   UNL     1       1.468  -7.618  -4.130  0.00  0.00    +0.294 HD
ENDBRANCH   9  29
TORSDOF 5
