REMARK  Name = ZINC39676577
REMARK  12 active torsions:
REMARK  status: ('A' for Active; 'I' for Inactive)
REMARK    1  A    between atoms: C_1  and  O_2
REMARK    2  A    between atoms: O_2  and  C_3
REMARK    3  A    between atoms: C_6  and  C_9
REMARK    4  A    between atoms: C_9  and  C_10
REMARK    5  A    between atoms: C_9  and  N_18
REMARK    6  A    between atoms: C_13  and  O_16
REMARK    7  A    between atoms: O_16  and  C_17
REMARK    8  A    between atoms: C_19  and  C_21
REMARK    9  A    between atoms: C_32  and  C_34
REMARK   10  A    between atoms: C_34  and  C_35
REMARK   11  A    between atoms: C_35  and  S_36
REMARK   12  A    between atoms: S_36  and  C_37
REMARK                            x       y       z     vdW  Elec       q    Type
REMARK                         _______ _______ _______ _____ _____    ______ ____
ROOT
ATOM      1  N   UNL     1       1.708  -3.103  -6.396  0.00  0.00    -0.304 N 
ATOM      2  C   UNL     1       0.681  -3.526  -5.633  0.00  0.00    +0.219 C 
ATOM      3  O   UNL     1       0.405  -2.938  -4.608  0.00  0.00    -0.275 OA
ATOM      4  H   UNL     1       1.929  -3.573  -7.215  0.00  0.00    +0.150 HD
ENDROOT
BRANCH   2   5
ATOM      5  C   UNL     1      -0.125  -4.728  -6.052  0.00  0.00    +0.100 C 
ATOM      6  C   UNL     1      -0.715  -5.439  -4.814  0.00  0.00    +0.121 C 
ATOM      7  N   UNL     1      -2.082  -4.882  -4.678  0.00  0.00    -0.300 N 
ATOM      8  C   UNL     1      -2.573  -4.768  -6.072  0.00  0.00    +0.115 C 
ATOM      9  C   UNL     1      -1.347  -4.293  -6.878  0.00  0.00    -0.004 C 
ATOM     10  C   UNL     1      -1.324  -4.961  -8.249  0.00  0.00    -0.010 C 
ATOM     11  C   UNL     1      -2.517  -4.468  -9.072  0.00  0.00    -0.082 C 
ATOM     12  N   UNL     1      -2.445  -3.008  -9.216  0.00  0.00    +0.379 N 
ATOM     13  C   UNL     1      -2.562  -2.370  -7.899  0.00  0.00    -0.082 C 
ATOM     14  C   UNL     1      -1.371  -2.774  -7.026  0.00  0.00    -0.010 C 
ATOM     15  C   UNL     1      -2.731  -4.554  -3.544  0.00  0.00    +0.216 C 
ATOM     16  O   UNL     1      -3.857  -4.106  -3.598  0.00  0.00    -0.276 OA
ATOM     17  H   UNL     1      -1.562  -2.756  -9.633  0.00  0.00    -0.086 HD
ATOM     18  H   UNL     1      -3.198  -2.693  -9.809  0.00  0.00    -0.086 HD
BRANCH  15  19
ATOM     19  C   UNL     1      -2.059  -4.744  -2.209  0.00  0.00    +0.106 C 
BRANCH  19  20
ATOM     20  C   UNL     1      -3.006  -4.298  -1.093  0.00  0.00    +0.078 C 
BRANCH  20  21
ATOM     21  S   UNL     1      -2.197  -4.527   0.514  0.00  0.00    -0.164 S 
ATOM     22  C   UNL     1      -3.434  -3.959   1.713  0.00  0.00    +0.084 C 
ENDBRANCH  20  21
ENDBRANCH  19  20
ENDBRANCH  15  19
ENDBRANCH   2   5
BRANCH   1  23
ATOM     23  C   UNL     1       2.491  -1.934  -5.988  0.00  0.00    +0.134 C 
BRANCH  23  27
ATOM     24  C   UNL     1       5.551  -3.149  -3.264  0.00  0.00    +0.120 A 
ATOM     25  C   UNL     1       4.860  -1.964  -3.050  0.00  0.00    +0.046 A 
ATOM     26  C   UNL     1       3.872  -1.574  -3.932  0.00  0.00    +0.009 A 
ATOM     27  C   UNL     1       3.570  -2.362  -5.027  0.00  0.00    -0.023 A 
ATOM     28  C   UNL     1       4.256  -3.543  -5.242  0.00  0.00    +0.009 A 
ATOM     29  C   UNL     1       5.250  -3.935  -4.366  0.00  0.00    +0.046 A 
BRANCH  24  31
ATOM     30  C   UNL     1       6.780  -2.676  -1.284  0.00  0.00    +0.277 C 
ATOM     31  O   UNL     1       6.524  -3.535  -2.397  0.00  0.00    -0.495 OA
ENDBRANCH  24  31
ENDBRANCH  23  27
BRANCH  23  32
ATOM     32  C   UNL     1       3.121  -1.303  -7.203  0.00  0.00    -0.023 A 
ATOM     33  C   UNL     1       3.641  -2.102  -8.204  0.00  0.00    +0.009 A 
ATOM     34  C   UNL     1       4.219  -1.526  -9.319  0.00  0.00    +0.046 A 
ATOM     35  C   UNL     1       4.278  -0.144  -9.433  0.00  0.00    +0.120 A 
ATOM     36  C   UNL     1       3.756   0.655  -8.426  0.00  0.00    +0.046 A 
ATOM     37  C   UNL     1       3.174   0.074  -7.316  0.00  0.00    +0.009 A 
BRANCH  35  38
ATOM     38  O   UNL     1       4.847   0.425 -10.528  0.00  0.00    -0.495 OA
ATOM     39  C   UNL     1       4.873   1.853 -10.578  0.00  0.00    +0.277 C 
ENDBRANCH  35  38
ENDBRANCH  23  32
ENDBRANCH   1  23
TORSDOF 9
