REMARK  Name = ZINC40455824
REMARK  1 active torsions:
REMARK  status: ('A' for Active; 'I' for Inactive)
REMARK    1  A    between atoms: C_2  and  N_19
REMARK                            x       y       z     vdW  Elec       q    Type
REMARK                         _______ _______ _______ _____ _____    ______ ____
ROOT
ATOM      1  C   UNL     1      -0.016   1.319   0.009  0.00  0.00    +0.138 A 
ATOM      2  C   UNL     1       1.191   2.012   0.002  0.00  0.00    +0.061 A 
ATOM      3  C   UNL     1       2.375   1.281  -0.014  0.00  0.00    +0.138 A 
ATOM      4  N   UNL     1       2.315  -0.041  -0.020  0.00  0.00    -0.221 NA
ATOM      5  C   UNL     1       1.148  -0.667  -0.013  0.00  0.00    +0.218 A 
ATOM      6  N   UNL     1       0.002  -0.004   0.002  0.00  0.00    -0.221 NA
ATOM      7  N   UNL     1       1.126  -2.054  -0.020  0.00  0.00    -0.299 N 
ATOM      8  C   UNL     1       2.378  -2.823  -0.031  0.00  0.00    +0.108 C 
ATOM      9  C   UNL     1       2.354  -3.817   1.135  0.00  0.00    +0.023 C 
ATOM     10  C   UNL     1       1.090  -4.676   1.043  0.00  0.00    -0.005 C 
ATOM     11  C   UNL     1       1.085  -5.688   2.191  0.00  0.00    +0.004 C 
ATOM     12  C   UNL     1      -0.177  -6.548   2.111  0.00  0.00    +0.000 C 
ATOM     13  C   UNL     1      -1.412  -5.650   2.220  0.00  0.00    +0.000 C 
ATOM     14  C   UNL     1      -1.409  -4.641   1.070  0.00  0.00    +0.005 C 
ATOM     15  C   UNL     1      -0.147  -3.780   1.143  0.00  0.00    +0.010 C 
ATOM     16  C   UNL     1      -0.149  -2.783  -0.012  0.00  0.00    +0.111 C 
ENDROOT
BRANCH   2  17
ATOM     17  N   UNL     1       1.213   3.413   0.008  0.00  0.00    -0.356 N 
ATOM     18  H   UNL     1       0.381   3.911   0.019  0.00  0.00    +0.142 HD
ATOM     19  H   UNL     1       2.060   3.885   0.003  0.00  0.00    +0.142 HD
ENDBRANCH   2  17
TORSDOF 1
