REMARK  Name = ZINC12605404
REMARK  5 active torsions:
REMARK  status: ('A' for Active; 'I' for Inactive)
REMARK    1  A    between atoms: C_3  and  C_20
REMARK    2  A    between atoms: C_5  and  S_7
REMARK    3  A    between atoms: S_7  and  N_10
REMARK    4  A    between atoms: N_10  and  C_11
REMARK    5  A    between atoms: N_22  and  C_23
REMARK                            x       y       z     vdW  Elec       q    Type
REMARK                         _______ _______ _______ _____ _____    ______ ____
ROOT
ATOM      1  C   UNL     1       3.281  -4.814   3.669  0.00  0.00    +0.003 A 
ATOM      2  C   UNL     1       4.301  -5.723   3.476  0.00  0.00    +0.013 A 
ATOM      3  C   UNL     1       5.618  -5.275   3.362  0.00  0.00    +0.039 A 
ATOM      4  C   UNL     1       5.894  -3.909   3.444  0.00  0.00    +0.042 A 
ATOM      5  C   UNL     1       4.865  -3.011   3.636  0.00  0.00    +0.109 A 
ATOM      6  C   UNL     1       3.562  -3.462   3.755  0.00  0.00    +0.029 A 
ENDROOT
BRANCH   3   7
ATOM      7  C   UNL     1       6.716  -6.243   3.155  0.00  0.00    +0.248 C 
ATOM      8  O   UNL     1       7.862  -5.850   3.056  0.00  0.00    -0.270 OA
ATOM      9  N   UNL     1       6.447  -7.561   3.077  0.00  0.00    -0.282 N 
ATOM     10  H   UNL     1       5.543  -7.881   3.224  0.00  0.00    +0.155 HD
BRANCH   9  11
ATOM     11  C   UNL     1       7.470  -8.469   2.784  0.00  0.00    +0.034 A 
ATOM     12  C   UNL     1       7.203  -9.596   2.018  0.00  0.00    +0.024 A 
ATOM     13  C   UNL     1       8.217 -10.487   1.725  0.00  0.00    +0.017 A 
ATOM     14  C   UNL     1       9.495 -10.263   2.204  0.00  0.00    +0.018 A 
ATOM     15  C   UNL     1       9.764  -9.144   2.972  0.00  0.00    +0.017 A 
ATOM     16  C   UNL     1       8.755  -8.246   3.263  0.00  0.00    +0.024 A 
ATOM     17 BR   UNL     1      10.880 -11.489   1.808  0.00  0.00    -0.050 Br
ENDBRANCH   9  11
ENDBRANCH   3   7
BRANCH   5  18
ATOM     18  S   UNL     1       5.211  -1.287   3.740  0.00  0.00    +0.072 S 
ATOM     19  O   UNL     1       6.595  -1.167   4.038  0.00  0.00    -0.150 OA
ATOM     20  O   UNL     1       4.202  -0.719   4.564  0.00  0.00    -0.150 OA
BRANCH  18  21
ATOM     21  N   UNL     1       4.996  -0.653   2.225  0.00  0.00    -0.216 N 
ATOM     22  H   UNL     1       5.751  -0.277   1.745  0.00  0.00    +0.174 HD
BRANCH  21  23
ATOM     23  C   UNL     1       3.726  -0.659   1.638  0.00  0.00    +0.052 A 
ATOM     24  C   UNL     1       2.759   0.241   2.066  0.00  0.00    +0.028 A 
ATOM     25  C   UNL     1       1.504   0.235   1.487  0.00  0.00    +0.051 A 
ATOM     26  C   UNL     1       1.208  -0.667   0.478  0.00  0.00    +0.166 A 
ATOM     27  C   UNL     1       2.176  -1.570   0.046  0.00  0.00    +0.168 A 
ATOM     28  C   UNL     1       3.433  -1.564   0.627  0.00  0.00    +0.074 A 
ATOM     29  O   UNL     1       1.642  -2.342  -0.945  0.00  0.00    -0.453 OA
ATOM     30  C   UNL     1       0.474  -1.633  -1.398  0.00  0.00    +0.466 C 
ATOM     31  O   UNL     1       0.066  -0.873  -0.245  0.00  0.00    -0.453 OA
ENDBRANCH  21  23
ENDBRANCH  18  21
ENDBRANCH   5  18
TORSDOF 5
