REMARK  Name = ZINC14383132
REMARK  8 active torsions:
REMARK  status: ('A' for Active; 'I' for Inactive)
REMARK    1  A    between atoms: C_4  and  C_7
REMARK    2  A    between atoms: C_7  and  N_8
REMARK    3  A    between atoms: C_9  and  N_37
REMARK    4  A    between atoms: C_10  and  N_17
REMARK    5  A    between atoms: N_17  and  C_18
REMARK    6  A    between atoms: C_18  and  C_19
REMARK    7  A    between atoms: C_25  and  C_27
REMARK    8  A    between atoms: C_30  and  C_33
REMARK                            x       y       z     vdW  Elec       q    Type
REMARK                         _______ _______ _______ _____ _____    ______ ____
ROOT
ATOM      1  N   UNL     1       3.643  -0.943  -1.573  0.00  0.00    -0.256 N 
ATOM      2  C   UNL     1       3.554  -2.230  -1.962  0.00  0.00    +0.251 C 
ATOM      3  O   UNL     1       3.276  -3.093  -1.151  0.00  0.00    -0.270 OA
ENDROOT
BRANCH   1   6
ATOM      4  N   UNL     1       5.595   1.703  -3.211  0.00  0.00    -0.276 N 
ATOM      5  C   UNL     1       5.221   0.749  -2.294  0.00  0.00    +0.128 A 
ATOM      6  C   UNL     1       4.051   0.045  -2.493  0.00  0.00    +0.140 A 
ATOM      7  C   UNL     1       3.268   0.334  -3.626  0.00  0.00    +0.277 A 
ATOM      8  O   UNL     1       2.227  -0.269  -3.824  0.00  0.00    -0.266 OA
ATOM      9  N   UNL     1       3.677   1.282  -4.492  0.00  0.00    -0.273 N 
ATOM     10  H   UNL     1       3.122   1.489  -5.298  0.00  0.00    +0.173 HD
ATOM     11  C   UNL     1       4.824   1.954  -4.285  0.00  0.00    +0.331 A 
ATOM     12  O   UNL     1       5.169   2.805  -5.082  0.00  0.00    -0.246 OA
BRANCH   5  13
ATOM     13  N   UNL     1       6.006   0.497  -1.194  0.00  0.00    -0.343 N 
ATOM     14  H   UNL     1       5.771  -0.221  -0.585  0.00  0.00    +0.144 HD
ATOM     15  H   UNL     1       6.795   1.036  -1.027  0.00  0.00    +0.144 HD
ENDBRANCH   5  13
BRANCH   4  16
ATOM     16  C   UNL     1       6.838   2.454  -3.016  0.00  0.00    +0.163 C 
BRANCH  16  20
ATOM     17  C   UNL     1       6.033   5.969  -0.726  0.00  0.00    +0.000 A 
ATOM     18  C   UNL     1       6.373   4.791  -0.088  0.00  0.00    +0.000 A 
ATOM     19  C   UNL     1       6.633   3.653  -0.829  0.00  0.00    +0.005 A 
ATOM     20  C   UNL     1       6.554   3.694  -2.208  0.00  0.00    -0.028 A 
ATOM     21  C   UNL     1       6.220   4.873  -2.847  0.00  0.00    +0.005 A 
ATOM     22  C   UNL     1       5.954   6.010  -2.106  0.00  0.00    +0.000 A 
ENDBRANCH  16  20
ENDBRANCH   4  16
ENDBRANCH   1   6
BRANCH   2  23
ATOM     23  C   UNL     1       3.792  -2.593  -3.375  0.00  0.00    +0.037 A 
ATOM     24  C   UNL     1       4.650  -1.823  -4.162  0.00  0.00    +0.013 A 
ATOM     25  C   UNL     1       4.873  -2.171  -5.478  0.00  0.00    +0.013 A 
ATOM     26  C   UNL     1       4.239  -3.274  -6.022  0.00  0.00    +0.055 A 
ATOM     27  C   UNL     1       3.383  -4.038  -5.249  0.00  0.00    +0.013 A 
ATOM     28  C   UNL     1       3.156  -3.705  -3.930  0.00  0.00    +0.013 A 
BRANCH  26  29
ATOM     29  C   UNL     1       4.482  -3.644  -7.462  0.00  0.00    +0.417 C 
ATOM     30  F   UNL     1       3.546  -2.996  -8.275  0.00  0.00    -0.166 F 
ATOM     31  F   UNL     1       5.773  -3.251  -7.833  0.00  0.00    -0.166 F 
ATOM     32  F   UNL     1       4.355  -5.029  -7.616  0.00  0.00    -0.166 F 
ENDBRANCH  26  29
ENDBRANCH   2  23
BRANCH   1  33
ATOM     33  C   UNL     1       3.317  -0.570  -0.194  0.00  0.00    +0.149 C 
BRANCH  33  34
ATOM     34  C   UNL     1       1.863  -0.183  -0.109  0.00  0.00    -0.030 A 
ATOM     35  C   UNL     1       0.909  -1.140   0.183  0.00  0.00    +0.005 A 
ATOM     36  C   UNL     1      -0.425  -0.784   0.262  0.00  0.00    +0.000 A 
ATOM     37  C   UNL     1      -0.804   0.528   0.047  0.00  0.00    +0.000 A 
ATOM     38  C   UNL     1       0.150   1.484  -0.244  0.00  0.00    +0.000 A 
ATOM     39  C   UNL     1       1.484   1.129  -0.323  0.00  0.00    +0.005 A 
ENDBRANCH  33  34
ENDBRANCH   1  33
TORSDOF 8
