REMARK  Name = ZINC20767172
REMARK  7 active torsions:
REMARK  status: ('A' for Active; 'I' for Inactive)
REMARK    1  A    between atoms: C_3  and  C_28
REMARK    2  A    between atoms: C_5  and  N_7
REMARK    3  A    between atoms: C_8  and  C_10
REMARK    4  A    between atoms: C_10  and  N_11
REMARK    5  A    between atoms: N_14  and  C_17
REMARK    6  A    between atoms: C_17  and  C_18
REMARK    7  A    between atoms: N_20  and  C_21
REMARK                            x       y       z     vdW  Elec       q    Type
REMARK                         _______ _______ _______ _____ _____    ______ ____
ROOT
ATOM      1  N   UNL     1      -0.552   4.845   7.723  0.00  0.00    +0.387 N 
ATOM      2  C   UNL     1      -1.234   6.109   7.415  0.00  0.00    -0.063 C 
ATOM      3  C   UNL     1      -2.215   6.444   8.541  0.00  0.00    +0.066 C 
ATOM      4  N   UNL     1      -1.483   6.540   9.812  0.00  0.00    -0.298 NA
ATOM      5  C   UNL     1      -0.801   5.276  10.120  0.00  0.00    +0.066 C 
ATOM      6  C   UNL     1       0.180   4.941   8.993  0.00  0.00    -0.063 C 
ATOM      7  H   UNL     1      -1.318   4.063   7.830  0.00  0.00    -0.081 HD
ENDROOT
BRANCH   1   8
ATOM      8  C   UNL     1       0.344   4.450   6.628  0.00  0.00    +0.019 C 
BRANCH   8  10
ATOM      9  N   UNL     1       0.142   3.734   4.269  0.00  0.00    -0.287 N 
ATOM     10  C   UNL     1      -0.472   4.124   5.404  0.00  0.00    +0.201 C 
ATOM     11  O   UNL     1      -1.681   4.212   5.440  0.00  0.00    -0.278 OA
ATOM     12  H   UNL     1       1.231   3.581   4.257  0.00  0.00    +0.155 HD
BRANCH   9  17
ATOM     13  C   UNL     1      -2.624   2.791   2.037  0.00  0.00    +0.002 A 
ATOM     14  C   UNL     1      -2.089   3.118   0.804  0.00  0.00    +0.012 A 
ATOM     15  C   UNL     1      -0.811   3.641   0.719  0.00  0.00    +0.057 A 
ATOM     16  C   UNL     1      -0.070   3.848   1.865  0.00  0.00    +0.035 A 
ATOM     17  C   UNL     1      -0.607   3.525   3.105  0.00  0.00    +0.034 A 
ATOM     18  C   UNL     1      -1.888   2.996   3.187  0.00  0.00    +0.023 A 
BRANCH  15  19
ATOM     19  C   UNL     1      -0.230   3.990  -0.627  0.00  0.00    +0.417 C 
ATOM     20  F   UNL     1       0.447   2.881  -1.145  0.00  0.00    -0.166 F 
ATOM     21  F   UNL     1       0.663   5.058  -0.486  0.00  0.00    -0.166 F 
ATOM     22  F   UNL     1      -1.260   4.357  -1.499  0.00  0.00    -0.166 F 
ENDBRANCH  15  19
ENDBRANCH   9  17
ENDBRANCH   8  10
ENDBRANCH   1   8
BRANCH   4  23
ATOM     23  C   UNL     1      -2.379   6.935  10.907  0.00  0.00    +0.180 C 
BRANCH  23  24
ATOM     24  C   UNL     1      -1.562   7.271  12.128  0.00  0.00    +0.231 C 
ATOM     25  O   UNL     1      -0.354   7.170  12.096  0.00  0.00    -0.274 OA
ATOM     26  N   UNL     1      -2.175   7.684  13.255  0.00  0.00    -0.284 N 
ATOM     27  H   UNL     1      -3.273   7.703  13.309  0.00  0.00    +0.155 HD
BRANCH  26  28
ATOM     28  C   UNL     1      -1.412   8.088  14.358  0.00  0.00    +0.034 A 
ATOM     29  C   UNL     1      -0.221   7.439  14.655  0.00  0.00    +0.026 A 
ATOM     30  C   UNL     1       0.532   7.843  15.740  0.00  0.00    +0.040 A 
ATOM     31  C   UNL     1       0.095   8.886  16.538  0.00  0.00    +0.124 A 
ATOM     32  C   UNL     1      -1.096   9.530  16.248  0.00  0.00    +0.040 A 
ATOM     33  C   UNL     1      -1.850   9.133  15.160  0.00  0.00    +0.026 A 
ATOM     34  F   UNL     1       0.830   9.276  17.602  0.00  0.00    -0.205 F 
ENDBRANCH  26  28
ENDBRANCH  23  24
ENDBRANCH   4  23
TORSDOF 7
