REMARK  Name = ZINC00141735
REMARK  2 active torsions:
REMARK  status: ('A' for Active; 'I' for Inactive)
REMARK    1  A    between atoms: C_6  and  N_7
REMARK    2  A    between atoms: N_10  and  C_11
REMARK                            x       y       z     vdW  Elec       q    Type
REMARK                         _______ _______ _______ _____ _____    ______ ____
ROOT
ATOM      1  N   UNL     1       3.652  -0.839   0.165  0.00  0.00    -0.269 N 
ATOM      2  C   UNL     1       2.463  -0.211   0.076  0.00  0.00    +0.308 C 
ATOM      3  O   UNL     1       1.433  -0.858   0.069  0.00  0.00    -0.252 OA
ATOM      4  N   UNL     1       2.415   1.133  -0.005  0.00  0.00    -0.267 N 
ATOM      5  H   UNL     1       4.470  -0.322   0.234  0.00  0.00    +0.156 HD
ATOM      6  H   UNL     1       3.236   1.645  -0.065  0.00  0.00    +0.156 HD
ENDROOT
BRANCH   1  12
ATOM      7  C   UNL     1       2.704  -2.977   0.768  0.00  0.00    +0.025 A 
ATOM      8  C   UNL     1       2.758  -4.357   0.753  0.00  0.00    +0.022 A 
ATOM      9  C   UNL     1       3.817  -5.003   0.140  0.00  0.00    +0.041 A 
ATOM     10  C   UNL     1       4.821  -4.268  -0.466  0.00  0.00    +0.022 A 
ATOM     11  C   UNL     1       4.769  -2.888  -0.459  0.00  0.00    +0.025 A 
ATOM     12  C   UNL     1       3.707  -2.238   0.156  0.00  0.00    +0.035 A 
ATOM     13 CL   UNL     1       3.886  -6.737   0.129  0.00  0.00    -0.084 Cl
ENDBRANCH   1  12
BRANCH   4  14
ATOM     14  C   UNL     1       1.171   1.795  -0.003  0.00  0.00    +0.062 A 
ATOM     15  C   UNL     1       0.063   1.218  -0.604  0.00  0.00    +0.052 A 
ATOM     16  C   UNL     1      -1.116   1.887  -0.587  0.00  0.00    +0.081 A 
ATOM     17  S   UNL     1      -0.689   3.374   0.303  0.00  0.00    -0.063 S 
ATOM     18  C   UNL     1       1.036   3.012   0.588  0.00  0.00    +0.101 A 
ATOM     19 CL   UNL     1       2.232   3.968   1.407  0.00  0.00    -0.074 Cl
ATOM     20 CL   UNL     1      -2.648   1.417  -1.257  0.00  0.00    -0.076 Cl
ENDBRANCH   4  14
TORSDOF 2
