REMARK  Name = ZINC12402485
REMARK  7 active torsions:
REMARK  status: ('A' for Active; 'I' for Inactive)
REMARK    1  A    between atoms: C_1  and  C_2
REMARK    2  A    between atoms: C_17  and  C_38
REMARK    3  A    between atoms: C_25  and  C_27
REMARK    4  A    between atoms: C_25  and  C_28
REMARK    5  A    between atoms: C_29  and  C_31
REMARK    6  A    between atoms: C_31  and  S_32
REMARK    7  A    between atoms: S_32  and  C_33
REMARK                            x       y       z     vdW  Elec       q    Type
REMARK                         _______ _______ _______ _____ _____    ______ ____
ROOT
ATOM      1  C   UNL     1       0.050   2.544  -1.120  0.00  0.00    +0.012 C 
ATOM      2  C   UNL     1      -0.109   1.076  -0.720  0.00  0.00    -0.026 C 
ATOM      3  C   UNL     1      -1.597   0.735  -0.684  0.00  0.00    +0.007 C 
ATOM      4  C   UNL     1      -2.289   1.732   0.257  0.00  0.00    +0.001 C 
ATOM      5  C   UNL     1      -1.694   1.628   1.661  0.00  0.00    +0.000 C 
ATOM      6  C   UNL     1      -0.185   1.898   1.623  0.00  0.00    +0.004 C 
ATOM      7  C   UNL     1       0.466   0.885   0.687  0.00  0.00    -0.005 C 
ATOM      8  C   UNL     1       1.980   1.042   0.624  0.00  0.00    +0.004 C 
ATOM      9  C   UNL     1       2.564  -0.170  -0.104  0.00  0.00    +0.004 C 
ATOM     10  C   UNL     1       1.521  -0.816  -1.014  0.00  0.00    -0.004 C 
ATOM     11  C   UNL     1       0.649   0.216  -1.710  0.00  0.00    -0.001 C 
ATOM     12  C   UNL     1       1.575   1.067  -2.583  0.00  0.00    +0.005 C 
ATOM     13  C   UNL     1       2.147   0.170  -3.679  0.00  0.00    +0.010 C 
ATOM     14  C   UNL     1       2.966  -0.978  -3.088  0.00  0.00    +0.002 C 
ATOM     15  C   UNL     1       2.208  -1.706  -2.028  0.00  0.00    +0.001 C 
ATOM     16  C   UNL     1       1.211  -2.542  -2.852  0.00  0.00    +0.007 C 
ATOM     17  C   UNL     1       2.043  -2.983  -4.083  0.00  0.00    +0.037 C 
ATOM     18  C   UNL     1       3.130  -2.032  -4.202  0.00  0.00    +0.093 C 
ATOM     19  C   UNL     1       3.131  -1.363  -5.586  0.00  0.00    +0.146 C 
ATOM     20  N   UNL     1       3.906  -2.323  -6.407  0.00  0.00    -0.270 N 
ATOM     21  C   UNL     1       4.686  -3.138  -5.459  0.00  0.00    +0.133 C 
ATOM     22  O   UNL     1       4.409  -2.672  -4.125  0.00  0.00    -0.348 OA
ATOM     23  C   UNL     1       6.179  -2.989  -5.758  0.00  0.00    +0.063 C 
ATOM     24  C   UNL     1       4.279  -4.607  -5.587  0.00  0.00    +0.063 C 
ATOM     25  C   UNL     1       3.901  -2.428  -7.751  0.00  0.00    +0.228 C 
ATOM     26  O   UNL     1       4.589  -3.264  -8.296  0.00  0.00    -0.275 OA
ATOM     27  C   UNL     1       4.320  -0.491  -2.567  0.00  0.00    +0.014 C 
ENDROOT
BRANCH  25  28
ATOM     28  C   UNL     1       3.039  -1.506  -8.575  0.00  0.00    +0.173 C 
BRANCH  28  29
ATOM     29  S   UNL     1       3.250  -1.894 -10.334  0.00  0.00    -0.083 S 
BRANCH  29  30
ATOM     30  C   UNL     1       2.192  -0.747 -11.153  0.00  0.00    +0.128 C 
ATOM     31  N   UNL     1       1.467   0.149 -10.502  0.00  0.00    -0.366 N 
ATOM     32  C   UNL     1       0.699   0.948 -11.469  0.00  0.00    +0.133 C 
ATOM     33  C   UNL     1       1.109   0.353 -12.832  0.00  0.00    +0.124 C 
ATOM     34  N   UNL     1       2.062  -0.707 -12.470  0.00  0.00    -0.324 N 
ATOM     35  H   UNL     1       2.522  -1.287 -13.098  0.00  0.00    +0.148 HD
ATOM     36  H   UNL     1       1.445   0.261  -9.538  0.00  0.00    +0.161 HD
ENDBRANCH  29  30
ENDBRANCH  28  29
ENDBRANCH  25  28
TORSDOF 3
