REMARK  Name = ZINC63182446
REMARK  7 active torsions:
REMARK  status: ('A' for Active; 'I' for Inactive)
REMARK    1  A    between atoms: C_6  and  C_31
REMARK    2  A    between atoms: C_8  and  C_11
REMARK    3  A    between atoms: C_11  and  C_12
REMARK    4  A    between atoms: C_12  and  C_13
REMARK    5  A    between atoms: C_18  and  C_21
REMARK    6  A    between atoms: N_23  and  C_24
REMARK    7  A    between atoms: C_29  and  O_30
REMARK                            x       y       z     vdW  Elec       q    Type
REMARK                         _______ _______ _______ _____ _____    ______ ____
ROOT
ATOM      1  C   UNL     1      -1.679  -3.888  -0.046  0.00  0.00    +0.216 C 
ATOM      2  O   UNL     1      -1.242  -5.019  -0.065  0.00  0.00    -0.276 OA
ATOM      3  N   UNL     1      -3.011  -3.681  -0.022  0.00  0.00    -0.301 N 
ATOM      4  C   UNL     1      -3.556  -2.317  -0.006  0.00  0.00    +0.108 C 
ATOM      5  C   UNL     1      -4.559  -2.173  -1.155  0.00  0.00    +0.032 C 
ATOM      6  C   UNL     1      -5.616  -3.274  -1.045  0.00  0.00    +0.078 C 
ATOM      7  C   UNL     1      -4.943  -4.643  -1.160  0.00  0.00    +0.032 C 
ATOM      8  C   UNL     1      -3.945  -4.815  -0.017  0.00  0.00    +0.108 C 
ENDROOT
BRANCH   6   9
ATOM      9  C   UNL     1      -6.624  -3.115  -2.155  0.00  0.00    +0.220 C 
ATOM     10  O   UNL     1      -6.507  -2.210  -2.954  0.00  0.00    -0.275 OA
ATOM     11  N   UNL     1      -7.654  -3.978  -2.258  0.00  0.00    -0.282 N 
ATOM     12  H   UNL     1      -7.712  -4.738  -1.659  0.00  0.00    +0.155 HD
BRANCH  11  13
ATOM     13  C   UNL     1      -8.642  -3.776  -3.231  0.00  0.00    +0.075 A 
ATOM     14  C   UNL     1      -8.303  -3.240  -4.465  0.00  0.00    +0.027 A 
ATOM     15  C   UNL     1      -9.279  -3.042  -5.424  0.00  0.00    +0.002 A 
ATOM     16  C   UNL     1     -10.593  -3.378  -5.156  0.00  0.00    +0.004 A 
ATOM     17  C   UNL     1     -10.938  -3.913  -3.929  0.00  0.00    +0.047 A 
ATOM     18  C   UNL     1      -9.965  -4.119  -2.965  0.00  0.00    +0.138 A 
BRANCH  18  19
ATOM     19  O   UNL     1     -10.302  -4.651  -1.760  0.00  0.00    -0.505 OA
ATOM     20  H   UNL     1     -10.546  -3.993  -1.094  0.00  0.00    +0.292 HD
ENDBRANCH  18  19
ENDBRANCH  11  13
ENDBRANCH   6   9
BRANCH   1  21
ATOM     21  C   UNL     1      -0.734  -2.714  -0.051  0.00  0.00    +0.100 C 
BRANCH  21  22
ATOM     22  C   UNL     1       0.709  -3.222  -0.081  0.00  0.00    +0.043 C 
BRANCH  22  29
ATOM     23  C   UNL     1       0.018   1.314  -0.029  0.00  0.00    +0.001 A 
ATOM     24  C   UNL     1       1.203   2.063  -0.042  0.00  0.00    +0.002 A 
ATOM     25  C   UNL     1       2.426   1.493  -0.067  0.00  0.00    +0.026 A 
ATOM     26  C   UNL     1       2.559   0.077  -0.082  0.00  0.00    +0.043 A 
ATOM     27  N   UNL     1       3.614  -0.701  -0.107  0.00  0.00    -0.374 N 
ATOM     28  C   UNL     1       3.165  -2.098  -0.112  0.00  0.00    +0.137 C 
ATOM     29  C   UNL     1       1.654  -2.048  -0.085  0.00  0.00    -0.034 C 
ATOM     30  C   UNL     1       1.322  -0.737  -0.068  0.00  0.00    -0.000 A 
ATOM     31  C   UNL     1       0.032  -0.038  -0.040  0.00  0.00    +0.010 A 
ATOM     32  H   UNL     1       4.537  -0.403  -0.120  0.00  0.00    +0.161 HD
BRANCH  28  33
ATOM     33  C   UNL     1       3.684  -2.814   1.109  0.00  0.00    -0.021 A 
ATOM     34  C   UNL     1       3.726  -2.162   2.327  0.00  0.00    +0.009 A 
ATOM     35  C   UNL     1       4.201  -2.818   3.446  0.00  0.00    +0.039 A 
ATOM     36  C   UNL     1       4.635  -4.129   3.348  0.00  0.00    +0.123 A 
ATOM     37  C   UNL     1       4.593  -4.781   2.127  0.00  0.00    +0.039 A 
ATOM     38  C   UNL     1       4.112  -4.125   1.010  0.00  0.00    +0.009 A 
ATOM     39  F   UNL     1       5.101  -4.771   4.442  0.00  0.00    -0.205 F 
ENDBRANCH  28  33
ENDBRANCH  22  29
ENDBRANCH  21  22
ENDBRANCH   1  21
TORSDOF 7
