REMARK  Name = ZINC04739811
REMARK  6 active torsions:
REMARK  status: ('A' for Active; 'I' for Inactive)
REMARK    1  A    between atoms: C_1  and  C_2
REMARK    2  A    between atoms: C_5  and  N_9
REMARK    3  A    between atoms: C_10  and  C_21
REMARK    4  A    between atoms: C_12  and  C_15
REMARK    5  A    between atoms: C_13  and  C_14
REMARK    6  A    between atoms: N_16  and  N_17
REMARK                            x       y       z     vdW  Elec       q    Type
REMARK                         _______ _______ _______ _____ _____    ______ ____
ROOT
ATOM      1  N   UNL     1      -2.051   1.824   1.360  0.00  0.00    -0.317 N 
ATOM      2  C   UNL     1      -2.341   2.246   2.626  0.00  0.00    +0.022 A 
ATOM      3  C   UNL     1      -1.204   2.281   3.345  0.00  0.00    +0.032 A 
ATOM      4  C   UNL     1      -0.129   1.840   2.450  0.00  0.00    +0.016 A 
ATOM      5  C   UNL     1      -0.718   1.572   1.248  0.00  0.00    +0.030 A 
ATOM      6  C   UNL     1      -0.013   1.086   0.008  0.00  0.00    +0.064 C 
ATOM      7  C   UNL     1      -3.710   2.617   3.134  0.00  0.00    +0.064 C 
ENDROOT
BRANCH   1  12
ATOM      8  C   UNL     1      -5.848   1.200  -2.812  0.00  0.00    +0.045 C 
ATOM      9  C   UNL     1      -4.839   1.366  -1.705  0.00  0.00    -0.036 A 
ATOM     10  C   UNL     1      -4.914   0.568  -0.578  0.00  0.00    +0.006 A 
ATOM     11  C   UNL     1      -3.992   0.717   0.439  0.00  0.00    +0.026 A 
ATOM     12  C   UNL     1      -2.988   1.670   0.330  0.00  0.00    +0.048 A 
ATOM     13  C   UNL     1      -2.918   2.474  -0.800  0.00  0.00    +0.041 A 
ATOM     14  C   UNL     1      -3.840   2.317  -1.817  0.00  0.00    +0.023 A 
ATOM     15 BR   UNL     1      -3.742   3.406  -3.359  0.00  0.00    -0.050 Br
ENDBRANCH   1  12
BRANCH   4  16
ATOM     16  C   UNL     1       1.302   1.712   2.782  0.00  0.00    +0.140 C 
ATOM     17  N   UNL     1       2.143   1.306   1.882  0.00  0.00    -0.186 NA
BRANCH  17  18
ATOM     18  N   UNL     1       3.502   1.185   2.197  0.00  0.00    -0.191 N 
ATOM     19  C   UNL     1       4.376   0.763   1.262  0.00  0.00    +0.317 C 
ATOM     20  O   UNL     1       5.556   0.657   1.536  0.00  0.00    -0.251 OA
ATOM     21  N   UNL     1       3.942   0.459   0.023  0.00  0.00    -0.312 N 
ATOM     22  H   UNL     1       3.815   1.404   3.089  0.00  0.00    +0.179 HD
ATOM     23  H   UNL     1       3.001   0.543  -0.196  0.00  0.00    +0.147 HD
ATOM     24  H   UNL     1       4.571   0.155  -0.650  0.00  0.00    +0.147 HD
ENDBRANCH  17  18
ENDBRANCH   4  16
TORSDOF 3
