REMARK  Name = ZINC04965405
REMARK  7 active torsions:
REMARK  status: ('A' for Active; 'I' for Inactive)
REMARK    1  A    between atoms: C_1  and  C_2
REMARK    2  A    between atoms: C_5  and  N_8
REMARK    3  A    between atoms: N_11  and  C_12
REMARK    4  A    between atoms: C_12  and  C_18
REMARK    5  A    between atoms: N_20  and  C_21
REMARK    6  A    between atoms: C_25  and  C_28
REMARK    7  A    between atoms: C_26  and  C_27
REMARK                            x       y       z     vdW  Elec       q    Type
REMARK                         _______ _______ _______ _____ _____    ______ ____
ROOT
ATOM      1  C   UNL     1       0.756   2.191  -0.034  0.00  0.00    +0.112 C 
ATOM      2  C   UNL     1       0.952   2.706  -1.461  0.00  0.00    +0.035 C 
ATOM      3  C   UNL     1       2.329   3.362  -1.583  0.00  0.00    +0.003 C 
ATOM      4  C   UNL     1       3.414   2.334  -1.258  0.00  0.00    +0.000 C 
ATOM      5  C   UNL     1       3.219   1.819   0.170  0.00  0.00    +0.003 C 
ATOM      6  C   UNL     1       1.842   1.163   0.291  0.00  0.00    +0.035 C 
ENDROOT
BRANCH   1  10
ATOM      7  N   UNL     1      -0.050   5.270   1.804  0.00  0.00    -0.269 N 
ATOM      8  C   UNL     1      -0.075   4.293   0.876  0.00  0.00    +0.305 C 
ATOM      9  O   UNL     1      -0.930   4.297   0.012  0.00  0.00    -0.252 OA
ATOM     10  N   UNL     1       0.848   3.311   0.906  0.00  0.00    -0.285 N 
ATOM     11  H   UNL     1       0.672   5.306   2.451  0.00  0.00    +0.156 HD
ATOM     12  H   UNL     1       1.573   3.346   1.550  0.00  0.00    +0.151 HD
BRANCH   7  17
ATOM     13  C   UNL     1      -4.164   9.174   1.926  0.00  0.00    +0.044 C 
ATOM     14  C   UNL     1      -3.071   8.137   1.893  0.00  0.00    -0.050 A 
ATOM     15  C   UNL     1      -2.505   7.694   3.075  0.00  0.00    +0.005 A 
ATOM     16  C   UNL     1      -1.504   6.744   3.048  0.00  0.00    +0.023 A 
ATOM     17  C   UNL     1      -1.065   6.233   1.834  0.00  0.00    +0.035 A 
ATOM     18  C   UNL     1      -1.632   6.684   0.649  0.00  0.00    +0.023 A 
ATOM     19  C   UNL     1      -2.637   7.630   0.682  0.00  0.00    +0.005 A 
ENDBRANCH   7  17
ENDBRANCH   1  10
BRANCH   1  20
ATOM     20  C   UNL     1      -0.600   1.544   0.086  0.00  0.00    +0.241 C 
ATOM     21  O   UNL     1      -1.152   1.108  -0.902  0.00  0.00    -0.273 OA
ATOM     22  N   UNL     1      -1.200   1.456   1.289  0.00  0.00    -0.283 N 
ATOM     23  H   UNL     1      -0.792   1.868   2.066  0.00  0.00    +0.155 HD
BRANCH  22  24
ATOM     24  C   UNL     1      -2.413   0.770   1.416  0.00  0.00    +0.037 A 
ATOM     25  C   UNL     1      -2.801  -0.145   0.446  0.00  0.00    +0.023 A 
ATOM     26  C   UNL     1      -3.998  -0.820   0.575  0.00  0.00    +0.002 A 
ATOM     27  C   UNL     1      -4.812  -0.585   1.669  0.00  0.00    +0.004 A 
ATOM     28  C   UNL     1      -4.429   0.325   2.636  0.00  0.00    -0.046 A 
ATOM     29  C   UNL     1      -3.230   1.000   2.516  0.00  0.00    -0.026 A 
ATOM     30  C   UNL     1      -2.811   1.987   3.574  0.00  0.00    +0.046 C 
ATOM     31  C   UNL     1      -5.319   0.578   3.826  0.00  0.00    +0.044 C 
ENDBRANCH  22  24
ENDBRANCH   1  20
TORSDOF 4
