REMARK  Name = ZINC27771844
REMARK  6 active torsions:
REMARK  status: ('A' for Active; 'I' for Inactive)
REMARK    1  A    between atoms: C_1  and  C_2
REMARK    2  A    between atoms: N_4  and  C_5
REMARK    3  A    between atoms: C_13  and  C_16
REMARK    4  A    between atoms: C_17  and  C_18
REMARK    5  A    between atoms: N_20  and  N_21
REMARK    6  A    between atoms: C_22  and  C_24
REMARK                            x       y       z     vdW  Elec       q    Type
REMARK                         _______ _______ _______ _____ _____    ______ ____
ROOT
ATOM      1  C   UNL     1       3.606  -0.652  -1.585  0.00  0.00    +0.033 C 
ATOM      2  C   UNL     1       3.852  -1.904  -1.135  0.00  0.00    +0.071 C 
ENDROOT
BRANCH   1   9
ATOM      3  C   UNL     1      -2.198  -2.638   1.073  0.00  0.00    +0.110 C 
ATOM      4  C   UNL     1      -0.956  -2.012   0.494  0.00  0.00    +0.223 C 
ATOM      5  O   UNL     1       0.066  -2.659   0.407  0.00  0.00    -0.275 OA
ATOM      6  N   UNL     1      -0.981  -0.732   0.072  0.00  0.00    -0.219 N 
ATOM      7  C   UNL     1       0.133  -0.186  -0.556  0.00  0.00    +0.172 A 
ATOM      8  N   UNL     1       1.322  -0.717  -0.749  0.00  0.00    -0.225 NA
ATOM      9  C   UNL     1       2.287  -0.045  -1.379  0.00  0.00    +0.073 A 
ATOM     10  C   UNL     1       2.024   1.228  -1.833  0.00  0.00    +0.076 A 
ATOM     11  S   UNL     1       0.324   1.421  -1.314  0.00  0.00    -0.059 S 
BRANCH   6  12
ATOM     12  C   UNL     1      -2.128   0.048   0.266  0.00  0.00    +0.043 A 
ATOM     13  C   UNL     1      -2.239   0.855   1.390  0.00  0.00    +0.024 A 
ATOM     14  C   UNL     1      -3.370   1.625   1.577  0.00  0.00    +0.002 A 
ATOM     15  C   UNL     1      -4.395   1.586   0.650  0.00  0.00    +0.000 A 
ATOM     16  C   UNL     1      -4.290   0.780  -0.468  0.00  0.00    +0.002 A 
ATOM     17  C   UNL     1      -3.160   0.010  -0.663  0.00  0.00    +0.024 A 
ENDBRANCH   6  12
ENDBRANCH   1   9
BRANCH   2  18
ATOM     18  C   UNL     1       5.126  -2.491  -1.334  0.00  0.00    +0.253 C 
ATOM     19  O   UNL     1       5.999  -1.868  -1.910  0.00  0.00    -0.269 OA
ATOM     20  N   UNL     1       5.371  -3.738  -0.886  0.00  0.00    -0.231 N 
ATOM     21  H   UNL     1       4.582  -4.300  -0.365  0.00  0.00    +0.173 HD
BRANCH  20  22
ATOM     22  N   UNL     1       6.631  -4.318  -1.083  0.00  0.00    -0.230 N 
ATOM     23  C   UNL     1       6.876  -5.565  -0.634  0.00  0.00    +0.260 C 
ATOM     24  O   UNL     1       6.004  -6.187  -0.059  0.00  0.00    -0.269 OA
ATOM     25  H   UNL     1       7.420  -3.755  -1.603  0.00  0.00    +0.173 HD
BRANCH  23  26
ATOM     26  C   UNL     1       8.206  -6.177  -0.842  0.00  0.00    +0.038 A 
ATOM     27  C   UNL     1       9.207  -5.468  -1.507  0.00  0.00    +0.014 A 
ATOM     28  C   UNL     1      10.447  -6.042  -1.693  0.00  0.00    +0.021 A 
ATOM     29  C   UNL     1      10.696  -7.324  -1.231  0.00  0.00    +0.041 A 
ATOM     30  C   UNL     1       9.704  -8.034  -0.575  0.00  0.00    +0.021 A 
ATOM     31  C   UNL     1       8.463  -7.468  -0.378  0.00  0.00    +0.014 A 
ATOM     32 CL   UNL     1      12.258  -8.042  -1.475  0.00  0.00    -0.084 Cl
ENDBRANCH  23  26
ENDBRANCH  20  22
ENDBRANCH   2  18
TORSDOF 5
