REMARK  Name = ZINC51630720
REMARK  4 active torsions:
REMARK  status: ('A' for Active; 'I' for Inactive)
REMARK    1  A    between atoms: C_9  and  N_12
REMARK    2  A    between atoms: N_12  and  S_13
REMARK    3  A    between atoms: S_13  and  C_16
REMARK    4  A    between atoms: C_18  and  N_21
REMARK                            x       y       z     vdW  Elec       q    Type
REMARK                         _______ _______ _______ _____ _____    ______ ____
ROOT
ATOM      1  N   UNL     1       4.868  -2.832  -0.260  0.00  0.00    -0.186 NA
ATOM      2  H   UNL     1       5.082  -3.202   0.611  0.00  0.00    +0.148 HD
ENDROOT
BRANCH   1  11
ATOM      3  C   UNL     1      -0.017   1.375   0.010  0.00  0.00    +0.000 A 
ATOM      4  C   UNL     1       1.174   2.078   0.002  0.00  0.00    +0.000 A 
ATOM      5  C   UNL     1       2.372   1.395  -0.010  0.00  0.00    +0.004 A 
ATOM      6  C   UNL     1       2.393   0.006  -0.017  0.00  0.00    -0.043 A 
ATOM      7  C   UNL     1       1.208  -0.694  -0.015  0.00  0.00    -0.044 A 
ATOM      8  C   UNL     1       0.002  -0.004   0.002  0.00  0.00    +0.004 A 
ATOM      9  C   UNL     1       1.155  -2.199  -0.038  0.00  0.00    +0.037 C 
ATOM     10  C   UNL     1       2.501  -2.790   0.375  0.00  0.00    +0.025 C 
ATOM     11  C   UNL     1       3.599  -2.130  -0.467  0.00  0.00    +0.081 C 
ATOM     12  C   UNL     1       3.737  -0.675  -0.023  0.00  0.00    +0.055 C 
ENDBRANCH   1  11
BRANCH   1  13
ATOM     13  S   UNL     1       5.938  -2.994  -1.514  0.00  0.00    +0.065 S 
ATOM     14  O   UNL     1       7.067  -3.687  -0.998  0.00  0.00    -0.153 OA
ATOM     15  O   UNL     1       5.193  -3.473  -2.625  0.00  0.00    -0.153 OA
BRANCH  13  16
ATOM     16  C   UNL     1       6.492  -1.376  -1.939  0.00  0.00    +0.144 A 
ATOM     17  C   UNL     1       7.556  -0.685  -1.460  0.00  0.00    +0.059 A 
ATOM     18  C   UNL     1       7.802   0.589  -1.945  0.00  0.00    +0.034 A 
ATOM     19  C   UNL     1       6.968   1.105  -2.887  0.00  0.00    +0.069 A 
ATOM     20  S   UNL     1       5.801  -0.226  -3.116  0.00  0.00    -0.075 S 
BRANCH  18  21
ATOM     21  N   UNL     1       8.897   1.336  -1.472  0.00  0.00    -0.358 N 
ATOM     22  H   UNL     1       9.486   0.960  -0.799  0.00  0.00    +0.142 HD
ATOM     23  H   UNL     1       9.062   2.228  -1.817  0.00  0.00    +0.142 HD
ENDBRANCH  18  21
ENDBRANCH  13  16
ENDBRANCH   1  13
TORSDOF 4
