REMARK  Name = ZINC15719201
REMARK  6 active torsions:
REMARK  status: ('A' for Active; 'I' for Inactive)
REMARK    1  A    between atoms: C_4  and  N_7
REMARK    2  A    between atoms: C_8  and  C_15
REMARK    3  A    between atoms: C_10  and  C_12
REMARK    4  A    between atoms: N_17  and  C_18
REMARK    5  A    between atoms: C_22  and  S_24
REMARK    6  A    between atoms: S_24  and  N_27
REMARK                            x       y       z     vdW  Elec       q    Type
REMARK                         _______ _______ _______ _____ _____    ______ ____
ROOT
ATOM      1  C   UNL     1       2.865  -2.252   1.655  0.00  0.00    +0.267 C 
ATOM      2  O   UNL     1       3.251  -2.841   2.647  0.00  0.00    -0.268 OA
ATOM      3  N   UNL     1       1.596  -2.408   1.229  0.00  0.00    -0.280 N 
ATOM      4  H   UNL     1       1.309  -1.997   0.399  0.00  0.00    +0.155 HD
ENDROOT
BRANCH   3   5
ATOM      5  C   UNL     1       0.693  -3.164   1.983  0.00  0.00    +0.036 A 
ATOM      6  C   UNL     1       1.120  -4.319   2.628  0.00  0.00    +0.023 A 
ATOM      7  C   UNL     1       0.227  -5.063   3.372  0.00  0.00    +0.004 A 
ATOM      8  C   UNL     1      -1.093  -4.661   3.475  0.00  0.00    +0.029 A 
ATOM      9  C   UNL     1      -1.521  -3.513   2.835  0.00  0.00    +0.114 A 
ATOM     10  C   UNL     1      -0.631  -2.760   2.094  0.00  0.00    +0.052 A 
BRANCH   9  11
ATOM     11  S   UNL     1      -3.203  -3.005   2.970  0.00  0.00    +0.100 S 
ATOM     12  O   UNL     1      -3.476  -2.197   1.833  0.00  0.00    -0.146 OA
ATOM     13  O   UNL     1      -3.956  -4.170   3.275  0.00  0.00    -0.146 OA
BRANCH  11  14
ATOM     14  N   UNL     1      -3.310  -2.013   4.292  0.00  0.00    -0.118 NA
ATOM     15  C   UNL     1      -4.448  -1.495   4.622  0.00  0.00    +0.117 C 
ATOM     16  C   UNL     1      -4.548  -0.575   5.836  0.00  0.00    +0.073 C 
ATOM     17  C   UNL     1      -4.816   0.822   5.321  0.00  0.00    +0.008 C 
ATOM     18  C   UNL     1      -6.303   1.131   5.141  0.00  0.00    +0.002 C 
ATOM     19  C   UNL     1      -7.082  -0.020   4.503  0.00  0.00    +0.019 C 
ATOM     20  C   UNL     1      -6.350  -0.665   3.346  0.00  0.00    +0.102 C 
ATOM     21  N   UNL     1      -5.525  -1.756   3.906  0.00  0.00    -0.331 N 
ATOM     22  H   UNL     1      -5.781  -2.677   3.745  0.00  0.00    +0.147 HD
ENDBRANCH  11  14
ENDBRANCH   9  11
ENDBRANCH   3   5
BRANCH   1  24
ATOM     23  N   UNL     1       5.098  -1.130   1.222  0.00  0.00    -0.227 N 
ATOM     24  C   UNL     1       3.783  -1.368   0.922  0.00  0.00    +0.130 A 
ATOM     25  C   UNL     1       3.483  -0.621  -0.200  0.00  0.00    +0.058 A 
ATOM     26  C   UNL     1       4.635   0.068  -0.570  0.00  0.00    +0.067 A 
ATOM     27  N   UNL     1       5.593  -0.226   0.274  0.00  0.00    -0.170 NA
BRANCH  23  31
ATOM     28  C   UNL     1       7.237  -2.785   4.393  0.00  0.00    +0.000 A 
ATOM     29  C   UNL     1       6.439  -3.592   3.603  0.00  0.00    +0.002 A 
ATOM     30  C   UNL     1       5.729  -3.047   2.551  0.00  0.00    +0.028 A 
ATOM     31  C   UNL     1       5.816  -1.686   2.288  0.00  0.00    +0.066 A 
ATOM     32  C   UNL     1       6.618  -0.878   3.083  0.00  0.00    +0.028 A 
ATOM     33  C   UNL     1       7.326  -1.429   4.133  0.00  0.00    +0.002 A 
ENDBRANCH  23  31
BRANCH  26  34
ATOM     34  C   UNL     1       4.758   1.004  -1.745  0.00  0.00    +0.040 C 
ATOM     35  C   UNL     1       3.463   1.522  -2.373  0.00  0.00    +0.010 C 
ATOM     36  C   UNL     1       4.335   2.460  -1.536  0.00  0.00    +0.010 C 
ENDBRANCH  26  34
ENDBRANCH   1  24
TORSDOF 6
