REMARK  Name = ZINC62825495
REMARK  7 active torsions:
REMARK  status: ('A' for Active; 'I' for Inactive)
REMARK    1  A    between atoms: C_1  and  C_2
REMARK    2  A    between atoms: C_2  and  C_4
REMARK    3  A    between atoms: C_2  and  N_7
REMARK    4  A    between atoms: C_4  and  O_5
REMARK    5  A    between atoms: O_5  and  C_6
REMARK    6  A    between atoms: N_10  and  C_11
REMARK    7  A    between atoms: C_12  and  C_19
REMARK                            x       y       z     vdW  Elec       q    Type
REMARK                         _______ _______ _______ _____ _____    ______ ____
ROOT
ATOM      1  N   UNL     1       0.667  -0.019  -1.681  0.00  0.00    -0.294 N 
ATOM      2  C   UNL     1       2.013  -0.087  -1.637  0.00  0.00    +0.304 C 
ATOM      3  O   UNL     1       2.641   0.718  -0.977  0.00  0.00    -0.252 OA
ATOM      4  N   UNL     1       2.662  -1.049  -2.323  0.00  0.00    -0.268 N 
ATOM      5  H   UNL     1       0.166  -0.661  -2.207  0.00  0.00    +0.151 HD
ATOM      6  H   UNL     1       2.159  -1.739  -2.784  0.00  0.00    +0.156 HD
ENDROOT
BRANCH   4   7
ATOM      7  C   UNL     1       4.053  -1.051  -2.372  0.00  0.00    +0.063 A 
ATOM      8  C   UNL     1       4.716  -1.070  -3.610  0.00  0.00    +0.086 A 
ATOM      9  C   UNL     1       6.114  -1.071  -3.645  0.00  0.00    +0.032 A 
ATOM     10  C   UNL     1       6.831  -1.054  -2.467  0.00  0.00    +0.020 A 
ATOM     11  C   UNL     1       6.173  -1.035  -1.247  0.00  0.00    +0.032 A 
ATOM     12  C   UNL     1       4.793  -1.028  -1.196  0.00  0.00    +0.041 A 
ATOM     13 BR   UNL     1       3.909  -0.994   0.475  0.00  0.00    -0.048 Br
ATOM     14 BR   UNL     1       8.721  -1.056  -2.517  0.00  0.00    -0.050 Br
BRANCH   8  15
ATOM     15  C   UNL     1       3.944  -1.090  -4.863  0.00  0.00    +0.388 C 
ATOM     16  O   UNL     1       4.521  -1.211  -5.935  0.00  0.00    -0.241 OA
ATOM     17  O   UNL     1       2.726  -0.985  -4.832  0.00  0.00    -0.241 OA
ENDBRANCH   8  15
ENDBRANCH   4   7
BRANCH   1  19
ATOM     18  C   UNL     1      -0.091   2.304  -1.773  0.00  0.00    +0.030 C 
ATOM     19  C   UNL     1      -0.038   1.026  -0.935  0.00  0.00    +0.097 C 
BRANCH  19  20
ATOM     20  C   UNL     1      -1.462   0.559  -0.625  0.00  0.00    +0.181 C 
BRANCH  20  21
ATOM     21  O   UNL     1      -2.189   0.409  -1.846  0.00  0.00    -0.381 OA
ATOM     22  C   UNL     1      -3.539  -0.026  -1.668  0.00  0.00    +0.194 C 
ENDBRANCH  20  21
ENDBRANCH  19  20
ENDBRANCH   1  19
TORSDOF 5
