REMARK  Name = ZINC17410574
REMARK  8 active torsions:
REMARK  status: ('A' for Active; 'I' for Inactive)
REMARK    1  A    between atoms: C_1  and  C_2
REMARK    2  A    between atoms: C_5  and  N_9
REMARK    3  A    between atoms: C_6  and  O_8
REMARK    4  A    between atoms: C_10  and  C_12
REMARK    5  A    between atoms: N_17  and  S_19
REMARK    6  A    between atoms: S_19  and  C_22
REMARK    7  A    between atoms: C_23  and  C_28
REMARK    8  A    between atoms: C_26  and  C_27
REMARK                            x       y       z     vdW  Elec       q    Type
REMARK                         _______ _______ _______ _____ _____    ______ ____
ROOT
ATOM      1  C   UNL     1      -0.136  -6.345  -1.203  0.00  0.00    +0.091 C 
ATOM      2  C   UNL     1      -1.379  -6.781  -0.424  0.00  0.00    +0.015 C 
ATOM      3  C   UNL     1      -1.458  -8.309  -0.399  0.00  0.00    +0.018 C 
ATOM      4  C   UNL     1      -1.577  -8.833  -1.834  0.00  0.00    +0.109 C 
ATOM      5  N   UNL     1      -0.462  -8.299  -2.627  0.00  0.00    -0.176 NA
ATOM      6  C   UNL     1      -0.240  -6.846  -2.646  0.00  0.00    +0.122 C 
ENDROOT
BRANCH   1   8
ATOM      7  N   UNL     1       0.057  -4.175  -0.031  0.00  0.00    -0.282 N 
ATOM      8  C   UNL     1      -0.042  -4.841  -1.198  0.00  0.00    +0.222 C 
ATOM      9  O   UNL     1      -0.055  -4.229  -2.246  0.00  0.00    -0.275 OA
ATOM     10  H   UNL     1       0.149  -4.665   0.801  0.00  0.00    +0.155 HD
BRANCH   7  15
ATOM     11  C   UNL     1      -0.066   1.502   0.017  0.00  0.00    +0.044 C 
ATOM     12  C   UNL     1      -0.032  -0.005   0.006  0.00  0.00    -0.047 A 
ATOM     13  C   UNL     1      -0.622  -0.701  -1.033  0.00  0.00    +0.005 A 
ATOM     14  C   UNL     1      -0.594  -2.082  -1.048  0.00  0.00    +0.027 A 
ATOM     15  C   UNL     1       0.028  -2.774  -0.018  0.00  0.00    +0.075 A 
ATOM     16  C   UNL     1       0.622  -2.072   1.028  0.00  0.00    +0.138 A 
ATOM     17  C   UNL     1       0.594  -0.687   1.032  0.00  0.00    +0.050 A 
BRANCH  16  18
ATOM     18  O   UNL     1       1.233  -2.745   2.040  0.00  0.00    -0.505 OA
ATOM     19  H   UNL     1       2.171  -2.919   1.886  0.00  0.00    +0.292 HD
ENDBRANCH  16  18
ENDBRANCH   7  15
ENDBRANCH   1   8
BRANCH   5  20
ATOM     20  S   UNL     1       0.526  -9.314  -3.484  0.00  0.00    +0.066 S 
ATOM     21  O   UNL     1       1.760  -8.630  -3.657  0.00  0.00    -0.153 OA
ATOM     22  O   UNL     1       0.443 -10.587  -2.857  0.00  0.00    -0.153 OA
BRANCH  20  23
ATOM     23  C   UNL     1      -0.178  -9.496  -5.088  0.00  0.00    +0.170 A 
ATOM     24  C   UNL     1      -1.115 -10.473  -5.473  0.00  0.00    +0.107 A 
ATOM     25  N   UNL     1      -1.398 -10.288  -6.731  0.00  0.00    -0.081 NA
ATOM     26  O   UNL     1      -0.644  -9.180  -7.189  0.00  0.00    -0.358 OA
ATOM     27  C   UNL     1       0.082  -8.722  -6.159  0.00  0.00    +0.161 A 
ATOM     28  C   UNL     1       1.027  -7.548  -6.194  0.00  0.00    +0.091 C 
ATOM     29  C   UNL     1      -1.690 -11.546  -4.584  0.00  0.00    +0.071 C 
ENDBRANCH  20  23
ENDBRANCH   5  20
TORSDOF 5
