REMARK  Name = ZINC59919807
REMARK  6 active torsions:
REMARK  status: ('A' for Active; 'I' for Inactive)
REMARK    1  A    between atoms: C_1  and  C_2
REMARK    2  A    between atoms: C_2  and  C_3
REMARK    3  A    between atoms: N_11  and  C_15
REMARK    4  A    between atoms: C_15  and  C_16
REMARK    5  A    between atoms: N_18  and  C_19
REMARK    6  A    between atoms: C_19  and  C_23
REMARK                            x       y       z     vdW  Elec       q    Type
REMARK                         _______ _______ _______ _____ _____    ______ ____
ROOT
ATOM      1  C   UNL     1       5.492  -4.329   1.086  0.00  0.00    +0.213 C 
ENDROOT
BRANCH   1  10
ATOM      2  C   UNL     1       0.771  -0.534   1.403  0.00  0.00    -0.011 C 
ATOM      3  C   UNL     1       2.240  -0.112   1.329  0.00  0.00    +0.006 C 
ATOM      4  C   UNL     1       2.986  -0.649   2.553  0.00  0.00    +0.035 C 
ATOM      5  C   UNL     1       2.878  -2.170   2.590  0.00  0.00    +0.113 C 
ATOM      6  C   UNL     1       1.418  -2.607   2.638  0.00  0.00    +0.035 C 
ATOM      7  C   UNL     1       0.678  -2.061   1.414  0.00  0.00    +0.006 C 
ATOM      8  C   UNL     1       3.572  -2.778   1.393  0.00  0.00    +0.247 C 
ATOM      9  O   UNL     1       3.300  -2.610   0.223  0.00  0.00    -0.273 OA
ATOM     10  N   UNL     1       4.559  -3.546   1.899  0.00  0.00    -0.215 N 
ATOM     11  C   UNL     1       4.579  -3.503   3.237  0.00  0.00    +0.310 C 
ATOM     12  O   UNL     1       5.377  -4.113   3.921  0.00  0.00    -0.252 OA
ATOM     13  N   UNL     1       3.614  -2.709   3.740  0.00  0.00    -0.285 N 
ATOM     14  H   UNL     1       3.441  -2.529   4.678  0.00  0.00    +0.151 HD
BRANCH   2  16
ATOM     15  C   UNL     1       0.007   1.542   0.243  0.00  0.00    +0.004 C 
ATOM     16  C   UNL     1       0.021   0.014   0.187  0.00  0.00    -0.000 C 
ENDBRANCH   2  16
ENDBRANCH   1  10
BRANCH   1  17
ATOM     17  C   UNL     1       6.700  -3.490   0.759  0.00  0.00    +0.232 C 
ATOM     18  O   UNL     1       6.774  -2.349   1.164  0.00  0.00    -0.274 OA
ATOM     19  N   UNL     1       7.698  -4.006   0.015  0.00  0.00    -0.304 N 
ATOM     20  H   UNL     1       7.675  -4.940  -0.246  0.00  0.00    +0.150 HD
BRANCH  19  21
ATOM     21  C   UNL     1       8.818  -3.157  -0.400  0.00  0.00    +0.060 C 
ATOM     22  C   UNL     1      10.070  -3.948  -0.814  0.00  0.00    +0.030 C 
ATOM     23  C   UNL     1      10.501  -3.887   0.661  0.00  0.00    +0.005 C 
ATOM     24  C   UNL     1       9.647  -2.613   0.776  0.00  0.00    +0.030 C 
BRANCH  21  25
ATOM     25  C   UNL     1       8.413  -2.099  -1.394  0.00  0.00    -0.023 A 
ATOM     26  C   UNL     1       9.261  -1.040  -1.660  0.00  0.00    +0.006 A 
ATOM     27  C   UNL     1       8.891  -0.070  -2.571  0.00  0.00    +0.001 A 
ATOM     28  C   UNL     1       7.672  -0.158  -3.218  0.00  0.00    +0.015 A 
ATOM     29  C   UNL     1       6.824  -1.217  -2.952  0.00  0.00    +0.018 A 
ATOM     30  C   UNL     1       7.197  -2.191  -2.044  0.00  0.00    +0.021 A 
ATOM     31 BR   UNL     1       5.156  -1.337  -3.836  0.00  0.00    -0.050 Br
ENDBRANCH  21  25
ENDBRANCH  19  21
ENDBRANCH   1  17
TORSDOF 5
