REMARK  Name = ZINC16801287
REMARK  6 active torsions:
REMARK  status: ('A' for Active; 'I' for Inactive)
REMARK    1  A    between atoms: C_3  and  C_13
REMARK    2  A    between atoms: C_4  and  N_10
REMARK    3  A    between atoms: C_6  and  C_7
REMARK    4  A    between atoms: C_13  and  S_14
REMARK    5  A    between atoms: S_14  and  C_15
REMARK    6  A    between atoms: N_28  and  C_29
REMARK                            x       y       z     vdW  Elec       q    Type
REMARK                         _______ _______ _______ _____ _____    ______ ____
ROOT
ATOM      1  C   UNL     1       4.520  -0.154  -1.280  0.00  0.00    +0.173 A 
ATOM      2  N   UNL     1       4.944  -0.245  -0.035  0.00  0.00    -0.216 NA
ATOM      3  C   UNL     1       6.068  -0.890   0.254  0.00  0.00    +0.117 A 
ATOM      4  C   UNL     1       6.855  -1.502  -0.736  0.00  0.00    +0.076 A 
ATOM      5  C   UNL     1       8.067  -2.175  -0.265  0.00  0.00    -0.023 A 
ATOM      6  C   UNL     1       8.308  -2.143   1.061  0.00  0.00    -0.004 A 
ATOM      7  S   UNL     1       6.956  -1.229   1.753  0.00  0.00    -0.073 S 
ATOM      8  C   UNL     1       9.469  -2.751   1.787  0.00  0.00    +0.043 C 
ATOM      9  C   UNL     1      10.167  -3.741   0.844  0.00  0.00    +0.005 C 
ATOM     10  C   UNL     1      10.374  -3.064  -0.514  0.00  0.00    +0.005 C 
ATOM     11  C   UNL     1       9.027  -2.885  -1.216  0.00  0.00    +0.037 C 
ATOM     12  C   UNL     1       6.370  -1.387  -2.078  0.00  0.00    +0.263 A 
ATOM     13  O   UNL     1       6.987  -1.886  -3.003  0.00  0.00    -0.267 OA
ATOM     14  N   UNL     1       5.221  -0.723  -2.303  0.00  0.00    -0.284 N 
ENDROOT
BRANCH  14  15
ATOM     15  C   UNL     1       4.715  -0.606  -3.673  0.00  0.00    +0.093 C 
ATOM     16  C   UNL     1       4.454  -2.008  -4.261  0.00  0.00    +0.025 C 
ATOM     17  C   UNL     1       4.874  -1.879  -5.747  0.00  0.00    +0.002 C 
ATOM     18  C   UNL     1       6.120  -0.963  -5.673  0.00  0.00    +0.002 C 
ATOM     19  C   UNL     1       5.774   0.058  -4.570  0.00  0.00    +0.025 C 
ENDBRANCH  14  15
BRANCH   1  20
ATOM     20  S   UNL     1       3.024   0.710  -1.626  0.00  0.00    -0.083 S 
BRANCH  20  21
ATOM     21  C   UNL     1       2.558   1.217   0.048  0.00  0.00    +0.114 C 
BRANCH  21  24
ATOM     22  C   UNL     1      -1.126   2.032   0.002  0.00  0.00    +0.013 A 
ATOM     23  C   UNL     1       0.059   1.326   0.053  0.00  0.00    +0.007 A 
ATOM     24  C   UNL     1       1.268   1.994  -0.003  0.00  0.00    -0.007 A 
ATOM     25  C   UNL     1       1.300   3.374  -0.104  0.00  0.00    +0.131 A 
ATOM     26  C   UNL     1       0.123   4.092  -0.151  0.00  0.00    +0.046 A 
ATOM     27  C   UNL     1      -1.102   3.424  -0.095  0.00  0.00    +0.039 A 
BRANCH  27  28
ATOM     28  C   UNL     1      -2.367   4.187  -0.144  0.00  0.00    +0.242 C 
ATOM     29  O   UNL     1      -2.343   5.399  -0.233  0.00  0.00    -0.270 OA
ATOM     30  N   UNL     1      -3.547   3.538  -0.090  0.00  0.00    -0.325 N 
ATOM     31  H   UNL     1      -3.567   2.571  -0.019  0.00  0.00    +0.145 HD
ATOM     32  H   UNL     1      -4.378   4.039  -0.122  0.00  0.00    +0.145 HD
ENDBRANCH  27  28
BRANCH  25  33
ATOM     33  N   UNL     1       2.599   4.081  -0.164  0.00  0.00    +0.057 N 
ATOM     34  O   UNL     1       2.735   5.153   0.399  0.00  0.00    -0.126 OA
ATOM     35  O   UNL     1       3.531   3.591  -0.775  0.00  0.00    -0.126 OA
ENDBRANCH  25  33
ENDBRANCH  21  24
ENDBRANCH  20  21
ENDBRANCH   1  20
TORSDOF 6
