REMARK  Name = ZINC12515016
REMARK  12 active torsions:
REMARK  status: ('A' for Active; 'I' for Inactive)
REMARK    1  A    between atoms: C_1  and  C_2
REMARK    2  A    between atoms: C_2  and  C_4
REMARK    3  A    between atoms: C_2  and  N_60
REMARK    4  A    between atoms: C_7  and  S_16
REMARK    5  A    between atoms: N_8  and  C_9
REMARK    6  A    between atoms: S_16  and  C_17
REMARK    7  A    between atoms: C_17  and  C_18
REMARK    8  A    between atoms: N_20  and  C_21
REMARK    9  A    between atoms: C_21  and  C_23
REMARK   10  A    between atoms: C_21  and  C_29
REMARK   11  A    between atoms: C_34  and  N_60
REMARK   12  A    between atoms: C_35  and  N_60
REMARK                            x       y       z     vdW  Elec       q    Type
REMARK                         _______ _______ _______ _____ _____    ______ ____
ROOT
ATOM      1  C   UNL     1       1.202   1.746   0.000  0.00  0.00    +0.125 A 
ATOM      2  N   UNL     1      -0.015   1.281   0.009  0.00  0.00    -0.135 NA
ATOM      3  N   UNL     1       0.002  -0.004   0.002  0.00  0.00    -0.122 NA
ATOM      4  C   UNL     1       1.242  -0.434  -0.012  0.00  0.00    +0.197 A 
ATOM      5  N   UNL     1       2.049   0.670  -0.014  0.00  0.00    -0.275 N 
ENDROOT
BRANCH   5   6
ATOM      6  C   UNL     1       3.452   0.696  -0.027  0.00  0.00    +0.050 A 
ATOM      7  C   UNL     1       4.148   1.216   1.055  0.00  0.00    +0.029 A 
ATOM      8  C   UNL     1       5.529   1.234   1.043  0.00  0.00    +0.040 A 
ATOM      9  C   UNL     1       6.219   0.746  -0.053  0.00  0.00    +0.124 A 
ATOM     10  C   UNL     1       5.526   0.232  -1.137  0.00  0.00    +0.040 A 
ATOM     11  C   UNL     1       4.146   0.206  -1.125  0.00  0.00    +0.029 A 
ATOM     12  F   UNL     1       7.570   0.770  -0.066  0.00  0.00    -0.205 F 
ENDBRANCH   5   6
BRANCH   1  14
ATOM     13  C   UNL     1       1.365   3.797  -1.384  0.00  0.00    -0.005 C 
ATOM     14  C   UNL     1       1.603   3.199   0.004  0.00  0.00    -0.003 C 
BRANCH  14  17
ATOM     15  C   UNL     1       1.243   5.322   1.112  0.00  0.00    -0.096 C 
ATOM     16  C   UNL     1      -0.631   3.855   0.668  0.00  0.00    -0.096 C 
ATOM     17  N   UNL     1       0.803   3.913   1.021  0.00  0.00    +0.382 N 
ATOM     18  H   UNL     1       0.941   3.461   1.932  0.00  0.00    -0.082 HD
ENDBRANCH  14  17
ENDBRANCH   1  14
BRANCH   4  19
ATOM     19  S   UNL     1       1.768  -2.116  -0.026  0.00  0.00    -0.076 S 
BRANCH  19  20
ATOM     20  C   UNL     1       0.161  -2.948  -0.015  0.00  0.00    +0.173 C 
BRANCH  20  21
ATOM     21  C   UNL     1       0.368  -4.441  -0.025  0.00  0.00    +0.224 C 
ATOM     22  O   UNL     1       1.491  -4.897  -0.037  0.00  0.00    -0.275 OA
ATOM     23  N   UNL     1      -0.696  -5.269  -0.019  0.00  0.00    -0.303 N 
ATOM     24  H   UNL     1      -1.595  -4.904  -0.009  0.00  0.00    +0.150 HD
BRANCH  23  25
ATOM     25  C   UNL     1      -0.495  -6.720  -0.029  0.00  0.00    +0.140 C 
BRANCH  25  26
ATOM     26  C   UNL     1      -1.707  -7.391  -0.621  0.00  0.00    -0.022 A 
ATOM     27  C   UNL     1      -2.973  -6.932  -0.310  0.00  0.00    +0.006 A 
ATOM     28  C   UNL     1      -4.085  -7.545  -0.857  0.00  0.00    +0.000 A 
ATOM     29  C   UNL     1      -3.930  -8.623  -1.708  0.00  0.00    +0.000 A 
ATOM     30  C   UNL     1      -2.664  -9.085  -2.016  0.00  0.00    +0.000 A 
ATOM     31  C   UNL     1      -1.553  -8.470  -1.472  0.00  0.00    +0.006 A 
ENDBRANCH  25  26
BRANCH  25  32
ATOM     32  C   UNL     1      -0.290  -7.207   1.383  0.00  0.00    +0.014 A 
ATOM     33  C   UNL     1       0.568  -8.150   1.844  0.00  0.00    +0.013 A 
ATOM     34  C   UNL     1       0.586  -8.436   3.196  0.00  0.00    +0.008 A 
ATOM     35  C   UNL     1      -0.262  -7.773   4.019  0.00  0.00    +0.045 A 
ATOM     36  S   UNL     1      -1.120  -6.700   2.879  0.00  0.00    -0.099 S 
ENDBRANCH  25  32
ENDBRANCH  23  25
ENDBRANCH  20  21
ENDBRANCH  19  20
ENDBRANCH   4  19
TORSDOF 9
