REMARK  Name = ZINC04063481
REMARK  7 active torsions:
REMARK  status: ('A' for Active; 'I' for Inactive)
REMARK    1  A    between atoms: C_1  and  C_2
REMARK    2  A    between atoms: P_7  and  C_10
REMARK    3  A    between atoms: C_10  and  C_12
REMARK    4  A    between atoms: C_10  and  N_21
REMARK    5  A    between atoms: C_15  and  N_18
REMARK    6  A    between atoms: N_21  and  C_22
REMARK    7  A    between atoms: C_25  and  O_28
REMARK                            x       y       z     vdW  Elec       q    Type
REMARK                         _______ _______ _______ _____ _____    ______ ____
ROOT
ATOM      1  C   UNL     1      -0.804   0.099   0.910  0.00  0.00    +0.216 C 
ENDROOT
BRANCH   1   7
ATOM      2  C   UNL     1       1.885   2.647   4.523  0.00  0.00    +0.038 C 
ATOM      3  C   UNL     1       0.426   2.359   4.166  0.00  0.00    +0.127 C 
ATOM      4  C   UNL     1      -0.147   1.331   5.143  0.00  0.00    +0.060 C 
ATOM      5  C   UNL     1      -1.627   1.079   4.858  0.00  0.00    +0.172 C 
ATOM      6  O   UNL     1      -1.762   0.510   3.542  0.00  0.00    -0.306 OA
ATOM      7  P   UNL     1      -1.073   1.270   2.281  0.00  0.00    +0.357 P 
ATOM      8  O   UNL     1      -1.923   2.395   1.832  0.00  0.00    -0.256 OA
ATOM      9  O   UNL     1       0.352   1.828   2.830  0.00  0.00    -0.303 OA
ENDBRANCH   1   7
BRANCH   1  10
ATOM     10  C   UNL     1      -2.135  -0.329   0.348  0.00  0.00    -0.016 A 
ATOM     11  C   UNL     1      -2.764   0.448  -0.607  0.00  0.00    +0.008 A 
ATOM     12  C   UNL     1      -3.982   0.053  -1.126  0.00  0.00    +0.033 A 
ATOM     13  C   UNL     1      -4.576  -1.115  -0.684  0.00  0.00    +0.126 A 
ATOM     14  C   UNL     1      -3.950  -1.889   0.275  0.00  0.00    +0.033 A 
ATOM     15  C   UNL     1      -2.729  -1.496   0.791  0.00  0.00    +0.008 A 
BRANCH  13  16
ATOM     16  N   UNL     1      -5.884  -1.535  -1.236  0.00  0.00    +0.056 N 
ATOM     17  O   UNL     1      -6.407  -2.563  -0.846  0.00  0.00    -0.126 OA
ATOM     18  O   UNL     1      -6.436  -0.853  -2.081  0.00  0.00    -0.126 OA
ENDBRANCH  13  16
ENDBRANCH   1  10
BRANCH   1  19
ATOM     19  N   UNL     1      -0.016   0.749  -0.140  0.00  0.00    -0.327 N 
ATOM     20  H   UNL     1      -0.431   1.404  -0.723  0.00  0.00    +0.147 HD
BRANCH  19  21
ATOM     21  C   UNL     1       1.337   0.430  -0.298  0.00  0.00    +0.028 A 
ATOM     22  C   UNL     1       2.058   0.966  -1.357  0.00  0.00    +0.026 A 
ATOM     23  C   UNL     1       3.395   0.656  -1.509  0.00  0.00    +0.047 A 
ATOM     24  C   UNL     1       4.015  -0.200  -0.611  0.00  0.00    +0.117 A 
ATOM     25  C   UNL     1       3.295  -0.740   0.445  0.00  0.00    +0.047 A 
ATOM     26  C   UNL     1       1.959  -0.426   0.601  0.00  0.00    +0.026 A 
BRANCH  24  27
ATOM     27  O   UNL     1       5.331  -0.509  -0.764  0.00  0.00    -0.507 OA
ATOM     28  H   UNL     1       5.490  -1.290  -1.313  0.00  0.00    +0.292 HD
ENDBRANCH  24  27
ENDBRANCH  19  21
ENDBRANCH   1  19
TORSDOF 6
