REMARK  Name = ZINC40400673
REMARK  10 active torsions:
REMARK  status: ('A' for Active; 'I' for Inactive)
REMARK    1  A    between atoms: C_1  and  C_2
REMARK    2  A    between atoms: C_3  and  C_29
REMARK    3  A    between atoms: C_4  and  C_22
REMARK    4  A    between atoms: C_7  and  C_12
REMARK    5  A    between atoms: C_13  and  N_15
REMARK    6  A    between atoms: N_15  and  C_16
REMARK    7  A    between atoms: C_16  and  C_17
REMARK    8  A    between atoms: C_29  and  O_31
REMARK    9  A    between atoms: O_31  and  C_32
REMARK   10  A    between atoms: C_32  and  C_33
REMARK                            x       y       z     vdW  Elec       q    Type
REMARK                         _______ _______ _______ _____ _____    ______ ____
ROOT
ATOM      1  C   UNL     1       0.333   1.170   0.882  0.00  0.00    +0.066 C 
ATOM      2  C   UNL     1       0.261  -0.287   0.503  0.00  0.00    +0.053 C 
ATOM      3  C   UNL     1      -0.965  -0.921   0.443  0.00  0.00    +0.082 C 
ATOM      4  C   UNL     1      -0.984  -2.384   0.057  0.00  0.00    +0.150 C 
ATOM      5  N   UNL     1       0.327  -3.026  -0.228  0.00  0.00    -0.267 N 
ATOM      6  C   UNL     1       0.547  -4.338  -0.596  0.00  0.00    +0.048 C 
ATOM      7  C   UNL     1       1.824  -4.723  -0.811  0.00  0.00    +0.072 C 
ATOM      8  S   UNL     1       2.722  -3.218  -0.491  0.00  0.00    -0.060 S 
ATOM      9  C   UNL     1       1.426  -2.221  -0.112  0.00  0.00    +0.166 C 
ATOM     10  N   UNL     1       1.373  -0.949   0.224  0.00  0.00    -0.230 NA
ENDROOT
BRANCH   4  11
ATOM     11  C   UNL     1      -1.641  -3.150   1.176  0.00  0.00    -0.022 A 
ATOM     12  C   UNL     1      -0.958  -3.367   2.358  0.00  0.00    +0.008 A 
ATOM     13  C   UNL     1      -1.560  -4.069   3.386  0.00  0.00    +0.038 A 
ATOM     14  C   UNL     1      -2.847  -4.555   3.231  0.00  0.00    +0.123 A 
ATOM     15  C   UNL     1      -3.530  -4.337   2.046  0.00  0.00    +0.038 A 
ATOM     16  C   UNL     1      -2.928  -3.630   1.022  0.00  0.00    +0.008 A 
ATOM     17  F   UNL     1      -3.436  -5.242   4.234  0.00  0.00    -0.205 F 
ENDBRANCH   4  11
BRANCH   6  18
ATOM     18  C   UNL     1      -0.569  -5.283  -0.747  0.00  0.00    +0.091 C 
ATOM     19  C   UNL     1      -0.321  -6.587  -0.979  0.00  0.00    +0.239 C 
ATOM     20  O   UNL     1       0.953  -7.050  -0.950  0.00  0.00    -0.271 OA
BRANCH  19  21
ATOM     21  N   UNL     1      -1.367  -7.454  -1.248  0.00  0.00    -0.305 N 
ATOM     22  H   UNL     1      -2.283  -7.139  -1.196  0.00  0.00    +0.149 HD
BRANCH  21  23
ATOM     23  C   UNL     1      -1.089  -8.846  -1.610  0.00  0.00    +0.179 C 
BRANCH  23  24
ATOM     24  C   UNL     1      -2.379  -9.538  -1.968  0.00  0.00    +0.122 A 
ATOM     25  C   UNL     1      -2.920  -9.607  -3.198  0.00  0.00    +0.046 A 
ATOM     26  C   UNL     1      -4.120 -10.344  -3.076  0.00  0.00    +0.041 A 
ATOM     27  C   UNL     1      -4.241 -10.682  -1.780  0.00  0.00    +0.195 A 
ATOM     28  O   UNL     1      -3.181 -10.196  -1.114  0.00  0.00    -0.466 OA
ENDBRANCH  23  24
ENDBRANCH  21  23
ENDBRANCH  19  21
ENDBRANCH   6  18
BRANCH   3  29
ATOM     29  C   UNL     1      -2.150  -0.233   0.730  0.00  0.00    +0.339 C 
ATOM     30  O   UNL     1      -2.111   0.945   1.039  0.00  0.00    -0.245 OA
BRANCH  29  31
ATOM     31  O   UNL     1      -3.337  -0.876   0.665  0.00  0.00    -0.457 OA
BRANCH  31  32
ATOM     32  C   UNL     1      -4.505  -0.112   0.970  0.00  0.00    +0.259 C 
BRANCH  32  33
ATOM     33  C   UNL     1      -5.725  -0.989   0.846  0.00  0.00    +0.006 C 
ATOM     34  C   UNL     1      -6.653  -0.955   1.770  0.00  0.00    +0.007 C 
ENDBRANCH  32  33
ENDBRANCH  31  32
ENDBRANCH  29  31
ENDBRANCH   3  29
TORSDOF 9
