REMARK  Name = ZINC65669324
REMARK  4 active torsions:
REMARK  status: ('A' for Active; 'I' for Inactive)
REMARK    1  A    between atoms: C_3  and  N_21
REMARK    2  A    between atoms: C_6  and  N_7
REMARK    3  A    between atoms: C_8  and  C_10
REMARK    4  A    between atoms: C_15  and  N_16
REMARK                            x       y       z     vdW  Elec       q    Type
REMARK                         _______ _______ _______ _____ _____    ______ ____
ROOT
ATOM      1  N   UNL     1      -0.871  -1.175   0.703  0.00  0.00    -0.281 N 
ATOM      2  C   UNL     1      -1.035  -2.306  -0.012  0.00  0.00    +0.251 C 
ATOM      3  O   UNL     1      -0.069  -2.872  -0.484  0.00  0.00    -0.270 OA
ATOM      4  H   UNL     1      -1.636  -0.751   1.123  0.00  0.00    +0.155 HD
ENDROOT
BRANCH   2   5
ATOM      5  C   UNL     1      -2.389  -2.857  -0.221  0.00  0.00    +0.070 A 
ATOM      6  C   UNL     1      -3.245  -3.046   0.867  0.00  0.00    +0.056 A 
ATOM      7  C   UNL     1      -4.509  -3.561   0.665  0.00  0.00    +0.159 A 
ATOM      8  C   UNL     1      -4.930  -3.891  -0.617  0.00  0.00    +0.161 A 
ATOM      9  C   UNL     1      -4.083  -3.705  -1.698  0.00  0.00    +0.074 A 
ATOM     10  C   UNL     1      -2.821  -3.185  -1.508  0.00  0.00    +0.141 A 
ATOM     11  F   UNL     1      -6.168  -4.396  -0.811  0.00  0.00    -0.202 F 
ATOM     12  F   UNL     1      -5.339  -3.745   1.715  0.00  0.00    -0.202 F 
BRANCH  10  13
ATOM     13  N   UNL     1      -1.921  -2.981  -2.666  0.00  0.00    +0.057 N 
ATOM     14  O   UNL     1      -2.262  -3.342  -3.768  0.00  0.00    -0.126 OA
ATOM     15  O   UNL     1      -0.845  -2.453  -2.509  0.00  0.00    -0.126 OA
ENDBRANCH  10  13
ENDBRANCH   2   5
BRANCH   1  21
ATOM     16  C   UNL     1       0.562   0.768   0.781  0.00  0.00    +0.025 A 
ATOM     17  C   UNL     1       1.819   1.324   0.915  0.00  0.00    +0.025 A 
ATOM     18  C   UNL     1       2.924   0.505   1.106  0.00  0.00    +0.038 A 
ATOM     19  C   UNL     1       2.765  -0.873   1.163  0.00  0.00    +0.025 A 
ATOM     20  C   UNL     1       1.508  -1.429   1.029  0.00  0.00    +0.025 A 
ATOM     21  C   UNL     1       0.403  -0.611   0.838  0.00  0.00    +0.034 A 
BRANCH  18  22
ATOM     22  N   UNL     1       4.199   1.069   1.242  0.00  0.00    -0.254 N 
ATOM     23  C   UNL     1       5.459   0.317   1.331  0.00  0.00    +0.134 C 
ATOM     24  C   UNL     1       6.535   1.412   1.467  0.00  0.00    +0.125 C 
ATOM     25  N   UNL     1       5.766   2.665   1.439  0.00  0.00    -0.297 N 
ATOM     26  C   UNL     1       4.464   2.381   1.305  0.00  0.00    +0.307 C 
ATOM     27  O   UNL     1       3.601   3.236   1.249  0.00  0.00    -0.252 OA
ATOM     28  H   UNL     1       6.143   3.557   1.504  0.00  0.00    +0.150 HD
ENDBRANCH  18  22
ENDBRANCH   1  21
TORSDOF 4
