REMARK  Name = ZINC39964419
REMARK  10 active torsions:
REMARK  status: ('A' for Active; 'I' for Inactive)
REMARK    1  A    between atoms: C_1  and  C_2
REMARK    2  A    between atoms: C_2  and  C_3
REMARK    3  A    between atoms: C_2  and  C_4
REMARK    4  A    between atoms: C_2  and  C_5
REMARK    5  A    between atoms: C_13  and  N_19
REMARK    6  A    between atoms: C_15  and  C_17
REMARK    7  A    between atoms: C_20  and  C_22
REMARK    8  A    between atoms: C_22  and  S_23
REMARK    9  A    between atoms: S_23  and  C_24
REMARK   10  A    between atoms: C_27  and  C_30
REMARK                            x       y       z     vdW  Elec       q    Type
REMARK                         _______ _______ _______ _____ _____    ______ ____
ROOT
ATOM      1  N   UNL     1       5.566  -1.552  -5.138  0.00  0.00    -0.301 N 
ATOM      2  C   UNL     1       6.866  -1.857  -5.325  0.00  0.00    +0.224 C 
ATOM      3  O   UNL     1       7.485  -2.433  -4.455  0.00  0.00    -0.275 OA
ATOM      4  H   UNL     1       5.052  -1.158  -5.859  0.00  0.00    +0.150 HD
ENDROOT
BRANCH   1  12
ATOM      5  C   UNL     1       0.572  -0.759  -1.383  0.00  0.00    -0.000 C 
ATOM      6  C   UNL     1       0.735  -2.281  -1.323  0.00  0.00    +0.009 C 
ATOM      7  C   UNL     1       1.299  -2.784  -2.651  0.00  0.00    +0.033 C 
ATOM      8  C   UNL     1       2.560  -1.993  -2.991  0.00  0.00    -0.041 C 
ATOM      9  C   UNL     1       2.818  -0.830  -2.405  0.00  0.00    -0.012 C 
ATOM     10  C   UNL     1       1.964  -0.117  -1.392  0.00  0.00    +0.046 C 
ATOM     11  S   UNL     1       4.382  -0.259  -3.029  0.00  0.00    -0.106 S 
ATOM     12  C   UNL     1       4.931  -1.817  -3.844  0.00  0.00    +0.156 C 
ATOM     13  C   UNL     1       3.548  -2.491  -4.017  0.00  0.00    +0.149 C 
BRANCH   5  15
ATOM     14  C   UNL     1      -0.360   1.244  -0.216  0.00  0.00    +0.011 C 
ATOM     15  C   UNL     1      -0.208  -0.277  -0.158  0.00  0.00    -0.035 C 
ATOM     16  C   UNL     1       0.548  -0.666   1.114  0.00  0.00    +0.011 C 
ATOM     17  C   UNL     1      -1.593  -0.928  -0.147  0.00  0.00    +0.011 C 
ENDBRANCH   5  15
BRANCH  13  18
ATOM     18  C   UNL     1       3.033  -2.196  -5.364  0.00  0.00    +0.073 C 
ATOM     19  N   UNL     1       2.636  -1.969  -6.404  0.00  0.00    -0.196 NA
ENDBRANCH  13  18
ENDBRANCH   1  12
BRANCH   2  20
ATOM     20  C   UNL     1       7.549  -1.482  -6.614  0.00  0.00    +0.173 C 
BRANCH  20  21
ATOM     21  S   UNL     1       9.280  -2.024  -6.561  0.00  0.00    -0.077 S 
BRANCH  21  22
ATOM     22  C   UNL     1       9.933  -1.520  -8.118  0.00  0.00    +0.185 A 
ATOM     23  N   UNL     1       9.271  -0.895  -9.067  0.00  0.00    -0.198 NA
ATOM     24  H   UNL     1      11.922  -2.133  -8.054  0.00  0.00    +0.191 HD
ATOM     25  C   UNL     1      10.084  -0.669 -10.110  0.00  0.00    +0.217 A 
ATOM     26  N   UNL     1      11.276  -1.151  -9.832  0.00  0.00    -0.148 NA
ATOM     27  N   UNL     1      11.203  -1.702  -8.543  0.00  0.00    -0.253 N 
BRANCH  25  28
ATOM     28  C   UNL     1       9.703   0.010 -11.367  0.00  0.00    +0.173 A 
ATOM     29  C   UNL     1      10.519   0.238 -12.430  0.00  0.00    +0.053 A 
ATOM     30  C   UNL     1       9.746   0.908 -13.399  0.00  0.00    +0.042 A 
ATOM     31  C   UNL     1       8.509   1.054 -12.885  0.00  0.00    +0.196 A 
ATOM     32  O   UNL     1       8.485   0.506 -11.659  0.00  0.00    -0.460 OA
ENDBRANCH  25  28
ENDBRANCH  21  22
ENDBRANCH  20  21
ENDBRANCH   2  20
TORSDOF 7
