REMARK  Name = ZINC08912120
REMARK  10 active torsions:
REMARK  status: ('A' for Active; 'I' for Inactive)
REMARK    1  A    between atoms: C_1  and  C_2
REMARK    2  A    between atoms: C_2  and  C_3
REMARK    3  A    between atoms: C_3  and  C_5
REMARK    4  A    between atoms: C_3  and  N_14
REMARK    5  A    between atoms: C_5  and  N_60
REMARK    6  A    between atoms: C_6  and  N_60
REMARK    7  A    between atoms: C_7  and  C_8
REMARK    8  A    between atoms: C_7  and  N_60
REMARK    9  A    between atoms: C_15  and  C_17
REMARK   10  A    between atoms: C_20  and  N_22
REMARK                            x       y       z     vdW  Elec       q    Type
REMARK                         _______ _______ _______ _____ _____    ______ ____
ROOT
ATOM      1  N   UNL     1       4.829   8.911  -0.778  0.00  0.00    -0.310 N 
ATOM      2  C   UNL     1       3.630   8.598  -1.307  0.00  0.00    +0.251 C 
ATOM      3  O   UNL     1       2.895   9.480  -1.714  0.00  0.00    -0.270 OA
ATOM      4  H   UNL     1       5.415   8.209  -0.454  0.00  0.00    +0.149 HD
ENDROOT
BRANCH   2   5
ATOM      5  C   UNL     1       3.224   7.243  -1.391  0.00  0.00    +0.076 A 
ATOM      6  C   UNL     1       2.043   6.715  -1.895  0.00  0.00    +0.022 A 
ATOM      7  C   UNL     1       1.899   5.355  -1.862  0.00  0.00    +0.032 A 
ATOM      8  C   UNL     1       2.917   4.593  -1.328  0.00  0.00    +0.073 A 
ATOM      9  S   UNL     1       4.099   5.777  -0.874  0.00  0.00    -0.069 S 
BRANCH   8  10
ATOM     10  N   UNL     1       2.982   3.215  -1.193  0.00  0.00    -0.288 N 
ATOM     11  C   UNL     1       2.061   2.493  -0.299  0.00  0.00    +0.152 C 
ATOM     12  C   UNL     1       2.877   1.427   0.446  0.00  0.00    +0.248 C 
ATOM     13  O   UNL     1       3.489   0.562  -0.513  0.00  0.00    -0.489 OA
ATOM     14  C   UNL     1       4.168   1.136  -1.542  0.00  0.00    +0.142 A 
ATOM     15  C   UNL     1       3.929   2.460  -1.903  0.00  0.00    +0.078 A 
ATOM     16  C   UNL     1       4.623   3.030  -2.957  0.00  0.00    +0.047 A 
ATOM     17  C   UNL     1       5.559   2.283  -3.651  0.00  0.00    +0.043 A 
ATOM     18  C   UNL     1       5.803   0.970  -3.289  0.00  0.00    +0.024 A 
ATOM     19  C   UNL     1       5.107   0.395  -2.242  0.00  0.00    +0.049 A 
ATOM     20 CL   UNL     1       6.431   2.995  -4.973  0.00  0.00    -0.083 Cl
ENDBRANCH   8  10
ENDBRANCH   2   5
BRANCH   1  21
ATOM     21  C   UNL     1       5.249  10.312  -0.692  0.00  0.00    +0.056 C 
BRANCH  21  23
ATOM     22  C   UNL     1       3.688  10.773   1.204  0.00  0.00    +0.005 C 
ATOM     23  C   UNL     1       5.152  10.785   0.760  0.00  0.00    +0.017 C 
ENDBRANCH  21  23
BRANCH  21  24
ATOM     24  C   UNL     1       6.695  10.443  -1.175  0.00  0.00    -0.056 C 
BRANCH  24  26
ATOM     25  C   UNL     1       8.201   9.625  -2.885  0.00  0.00    -0.096 C 
ATOM     26  N   UNL     1       6.788   9.891  -2.543  0.00  0.00    +0.382 N 
ATOM     27  H   UNL     1       6.264   9.009  -2.584  0.00  0.00    -0.082 HD
BRANCH  26  28
ATOM     28  C   UNL     1       6.205  10.842  -3.512  0.00  0.00    -0.043 C 
BRANCH  28  29
ATOM     29  C   UNL     1       6.112  10.170  -4.858  0.00  0.00    -0.064 A 
ATOM     30  C   UNL     1       7.156  10.276  -5.757  0.00  0.00    +0.002 A 
ATOM     31  C   UNL     1       7.073   9.655  -6.989  0.00  0.00    +0.000 A 
ATOM     32  C   UNL     1       5.941   8.937  -7.326  0.00  0.00    +0.000 A 
ATOM     33  C   UNL     1       4.894   8.835  -6.429  0.00  0.00    +0.000 A 
ATOM     34  C   UNL     1       4.980   9.451  -5.195  0.00  0.00    +0.002 A 
ENDBRANCH  28  29
ENDBRANCH  26  28
ENDBRANCH  24  26
ENDBRANCH  21  24
ENDBRANCH   1  21
TORSDOF 8
