REMARK  Name = ZINC35697282
REMARK  11 active torsions:
REMARK  status: ('A' for Active; 'I' for Inactive)
REMARK    1  A    between atoms: C_1  and  C_2
REMARK    2  A    between atoms: C_5  and  C_8
REMARK    3  A    between atoms: C_10  and  C_33
REMARK    4  A    between atoms: C_11  and  C_32
REMARK    5  A    between atoms: C_15  and  C_18
REMARK    6  A    between atoms: C_19  and  N_21
REMARK    7  A    between atoms: N_21  and  C_22
REMARK    8  A    between atoms: C_22  and  C_23
REMARK    9  A    between atoms: C_33  and  O_35
REMARK   10  A    between atoms: O_35  and  C_36
REMARK   11  A    between atoms: C_36  and  C_37
REMARK                            x       y       z     vdW  Elec       q    Type
REMARK                         _______ _______ _______ _____ _____    ______ ____
ROOT
ATOM      1  C   UNL     1       0.326  -4.339  -0.218  0.00  0.00    +0.150 C 
ATOM      2  C   UNL     1      -1.130  -4.670   0.022  0.00  0.00    +0.082 C 
ATOM      3  C   UNL     1      -1.469  -5.243   1.233  0.00  0.00    +0.053 C 
ATOM      4  N   UNL     1      -0.540  -5.487   2.143  0.00  0.00    -0.230 NA
ATOM      5  C   UNL     1       0.742  -5.224   1.997  0.00  0.00    +0.166 C 
ATOM      6  N   UNL     1       1.281  -4.658   0.876  0.00  0.00    -0.267 N 
ATOM      7  C   UNL     1       2.645  -4.444   0.878  0.00  0.00    +0.048 C 
ATOM      8  C   UNL     1       3.336  -4.808   1.981  0.00  0.00    +0.072 C 
ATOM      9  S   UNL     1       2.049  -5.459   3.024  0.00  0.00    -0.060 S 
ATOM     10  C   UNL     1      -2.907  -5.591   1.519  0.00  0.00    +0.066 C 
ENDROOT
BRANCH   1  15
ATOM     11  C   UNL     1       0.702   1.322  -1.315  0.00  0.00    +0.044 C 
ATOM     12  C   UNL     1       0.604  -0.154  -1.029  0.00  0.00    -0.050 A 
ATOM     13  C   UNL     1       0.631  -1.063  -2.070  0.00  0.00    +0.004 A 
ATOM     14  C   UNL     1       0.542  -2.417  -1.807  0.00  0.00    +0.006 A 
ATOM     15  C   UNL     1       0.425  -2.863  -0.504  0.00  0.00    -0.022 A 
ATOM     16  C   UNL     1       0.398  -1.954   0.537  0.00  0.00    +0.006 A 
ATOM     17  C   UNL     1       0.492  -0.600   0.275  0.00  0.00    +0.004 A 
ENDBRANCH   1  15
BRANCH   7  18
ATOM     18  C   UNL     1       3.322  -3.841  -0.280  0.00  0.00    +0.091 C 
ATOM     19  C   UNL     1       4.624  -3.506  -0.199  0.00  0.00    +0.239 C 
ATOM     20  O   UNL     1       5.339  -3.827   0.907  0.00  0.00    -0.271 OA
BRANCH  19  21
ATOM     21  N   UNL     1       5.231  -2.832  -1.245  0.00  0.00    -0.308 N 
ATOM     22  H   UNL     1       4.703  -2.537  -2.004  0.00  0.00    +0.149 HD
BRANCH  21  23
ATOM     23  C   UNL     1       6.671  -2.566  -1.207  0.00  0.00    +0.140 C 
BRANCH  23  24
ATOM     24  C   UNL     1       7.058  -1.722  -2.394  0.00  0.00    -0.027 A 
ATOM     25  C   UNL     1       7.430  -2.328  -3.580  0.00  0.00    +0.009 A 
ATOM     26  C   UNL     1       7.785  -1.559  -4.672  0.00  0.00    +0.050 A 
ATOM     27  C   UNL     1       7.769  -0.176  -4.580  0.00  0.00    +0.166 A 
ATOM     28  C   UNL     1       7.394   0.435  -3.386  0.00  0.00    +0.167 A 
ATOM     29  C   UNL     1       7.034  -0.343  -2.297  0.00  0.00    +0.054 A 
ATOM     30  O   UNL     1       7.459   1.788  -3.549  0.00  0.00    -0.453 OA
ATOM     31  C   UNL     1       8.268   1.996  -4.723  0.00  0.00    +0.466 C 
ATOM     32  O   UNL     1       8.069   0.795  -5.492  0.00  0.00    -0.453 OA
ENDBRANCH  23  24
ENDBRANCH  21  23
ENDBRANCH  19  21
ENDBRANCH   7  18
BRANCH   2  33
ATOM     33  C   UNL     1      -2.102  -4.405  -0.950  0.00  0.00    +0.339 C 
ATOM     34  O   UNL     1      -3.273  -4.661  -0.728  0.00  0.00    -0.245 OA
BRANCH  33  35
ATOM     35  O   UNL     1      -1.742  -3.864  -2.135  0.00  0.00    -0.457 OA
BRANCH  35  36
ATOM     36  C   UNL     1      -2.786  -3.620  -3.081  0.00  0.00    +0.259 C 
BRANCH  36  37
ATOM     37  C   UNL     1      -2.200  -3.020  -4.333  0.00  0.00    +0.006 C 
ATOM     38  C   UNL     1      -2.573  -3.462  -5.508  0.00  0.00    +0.007 C 
ENDBRANCH  36  37
ENDBRANCH  35  36
ENDBRANCH  33  35
ENDBRANCH   2  33
TORSDOF 9
