REMARK  Name = ZINC66160344
REMARK  4 active torsions:
REMARK  status: ('A' for Active; 'I' for Inactive)
REMARK    1  A    between atoms: C_3  and  C_21
REMARK    2  A    between atoms: C_5  and  N_7
REMARK    3  A    between atoms: C_13  and  N_16
REMARK    4  A    between atoms: N_23  and  C_24
REMARK                            x       y       z     vdW  Elec       q    Type
REMARK                         _______ _______ _______ _____ _____    ______ ____
ROOT
ATOM      1  C   UNL     1       2.548   0.736  -0.768  0.00  0.00    +0.003 A 
ATOM      2  C   UNL     1       2.050   1.912  -0.243  0.00  0.00    +0.013 A 
ATOM      3  C   UNL     1       0.857   1.902   0.481  0.00  0.00    +0.039 A 
ATOM      4  C   UNL     1       0.171   0.702   0.671  0.00  0.00    +0.036 A 
ATOM      5  C   UNL     1       0.679  -0.473   0.139  0.00  0.00    +0.035 A 
ATOM      6  C   UNL     1       1.869  -0.453  -0.580  0.00  0.00    +0.023 A 
ENDROOT
BRANCH   5   7
ATOM      7  N   UNL     1      -0.005  -1.679   0.327  0.00  0.00    -0.269 N 
ATOM      8  C   UNL     1      -1.351  -1.688   0.389  0.00  0.00    +0.306 C 
ATOM      9  O   UNL     1      -1.976  -0.665   0.185  0.00  0.00    -0.252 OA
ATOM     10  N   UNL     1      -2.005  -2.831   0.675  0.00  0.00    -0.287 N 
ATOM     11  C   UNL     1      -1.377  -4.132   0.948  0.00  0.00    +0.108 C 
ATOM     12  C   UNL     1      -2.511  -5.134   1.251  0.00  0.00    +0.005 C 
ATOM     13  C   UNL     1      -3.681  -4.213   1.687  0.00  0.00    -0.049 C 
ATOM     14  C   UNL     1      -3.468  -2.982   0.774  0.00  0.00    +0.094 C 
ATOM     15  H   UNL     1       0.490  -2.509   0.413  0.00  0.00    +0.156 HD
BRANCH  13  16
ATOM     16  N   UNL     1      -4.979  -4.849   1.424  0.00  0.00    +0.383 N 
ATOM     17  C   UNL     1      -5.120  -6.081   2.241  0.00  0.00    -0.078 C 
ATOM     18  C   UNL     1      -6.654  -6.296   2.297  0.00  0.00    -0.020 C 
ATOM     19  C   UNL     1      -7.201  -4.854   2.402  0.00  0.00    -0.020 C 
ATOM     20  C   UNL     1      -6.080  -3.956   1.846  0.00  0.00    -0.078 C 
ATOM     21  H   UNL     1      -5.066  -5.069   0.443  0.00  0.00    -0.081 HD
ENDBRANCH  13  16
ENDBRANCH   5   7
BRANCH   3  22
ATOM     22  C   UNL     1       0.321   3.159   1.045  0.00  0.00    +0.248 C 
ATOM     23  O   UNL     1      -0.718   3.149   1.675  0.00  0.00    -0.270 OA
ATOM     24  N   UNL     1       0.986   4.317   0.860  0.00  0.00    -0.281 N 
ATOM     25  H   UNL     1       1.775   4.339   0.297  0.00  0.00    +0.155 HD
BRANCH  24  26
ATOM     26  C   UNL     1       0.537   5.487   1.481  0.00  0.00    +0.036 A 
ATOM     27  C   UNL     1       0.678   6.713   0.841  0.00  0.00    +0.023 A 
ATOM     28  C   UNL     1       0.234   7.867   1.456  0.00  0.00    +0.005 A 
ATOM     29  C   UNL     1      -0.350   7.806   2.708  0.00  0.00    +0.038 A 
ATOM     30  C   UNL     1      -0.491   6.586   3.349  0.00  0.00    +0.125 A 
ATOM     31  C   UNL     1      -0.054   5.426   2.736  0.00  0.00    +0.061 A 
ATOM     32  F   UNL     1      -1.062   6.530   4.573  0.00  0.00    -0.205 F 
ENDBRANCH  24  26
ENDBRANCH   3  22
TORSDOF 4
