REMARK  Name = ZINC02749050
REMARK  4 active torsions:
REMARK  status: ('A' for Active; 'I' for Inactive)
REMARK    1  A    between atoms: C_1  and  C_2
REMARK    2  A    between atoms: C_9  and  N_14
REMARK    3  A    between atoms: C_10  and  C_11
REMARK    4  A    between atoms: C_15  and  C_17
REMARK                            x       y       z     vdW  Elec       q    Type
REMARK                         _______ _______ _______ _____ _____    ______ ____
ROOT
ATOM      1  C   UNL     1      -0.758   1.595  -1.227  0.00  0.00    +0.008 C 
ATOM      2  C   UNL     1      -0.013   1.086   0.008  0.00  0.00    -0.009 C 
ATOM      3  C   UNL     1      -0.714   1.583   1.276  0.00  0.00    +0.008 C 
ATOM      4  C   UNL     1      -0.129   0.880   2.502  0.00  0.00    +0.037 C 
ATOM      5  C   UNL     1       1.387   1.034   2.479  0.00  0.00    -0.023 A 
ATOM      6  C   UNL     1       2.035   1.365   1.342  0.00  0.00    -0.004 A 
ATOM      7  S   UNL     1       3.745   1.427   1.797  0.00  0.00    -0.077 S 
ATOM      8  C   UNL     1       3.602   1.019   3.475  0.00  0.00    +0.084 A 
ATOM      9  C   UNL     1       2.236   0.845   3.643  0.00  0.00    +0.068 A 
ATOM     10  C   UNL     1       1.427   1.620  -0.003  0.00  0.00    +0.046 C 
ENDROOT
BRANCH   9  11
ATOM     11  C   UNL     1       1.670   0.483   4.947  0.00  0.00    +0.244 C 
ATOM     12  O   UNL     1       1.335   1.355   5.727  0.00  0.00    -0.270 OA
ATOM     13  N   UNL     1       1.521  -0.814   5.280  0.00  0.00    -0.325 N 
ATOM     14  H   UNL     1       1.788  -1.508   4.658  0.00  0.00    +0.145 HD
ATOM     15  H   UNL     1       1.147  -1.053   6.143  0.00  0.00    +0.145 HD
ENDBRANCH   9  11
BRANCH   8  16
ATOM     16  N   UNL     1       4.609   0.897   4.420  0.00  0.00    -0.279 N 
ATOM     17  C   UNL     1       5.893   1.106   4.068  0.00  0.00    +0.221 C 
ATOM     18  O   UNL     1       6.168   1.401   2.925  0.00  0.00    -0.275 OA
ATOM     19  H   UNL     1       4.389   0.661   5.335  0.00  0.00    +0.155 HD
BRANCH  17  20
ATOM     20  C   UNL     1       6.987   0.974   5.096  0.00  0.00    +0.075 C 
ATOM     21  C   UNL     1       6.797   2.025   6.209  0.00  0.00    +0.013 C 
ATOM     22  C   UNL     1       8.239   2.460   6.571  0.00  0.00    +0.001 C 
ATOM     23  C   UNL     1       8.947   2.475   5.194  0.00  0.00    +0.001 C 
ATOM     24  C   UNL     1       8.354   1.260   4.450  0.00  0.00    +0.013 C 
ENDBRANCH  17  20
ENDBRANCH   8  16
TORSDOF 3
