REMARK  Name = ZINC35220034
REMARK  5 active torsions:
REMARK  status: ('A' for Active; 'I' for Inactive)
REMARK    1  A    between atoms: C_1  and  C_2
REMARK    2  A    between atoms: C_9  and  S_14
REMARK    3  A    between atoms: S_14  and  N_17
REMARK    4  A    between atoms: C_21  and  C_24
REMARK    5  A    between atoms: N_26  and  C_27
REMARK                            x       y       z     vdW  Elec       q    Type
REMARK                         _______ _______ _______ _____ _____    ______ ____
ROOT
ATOM      1  N   UNL     1       6.906   1.748   0.903  0.00  0.00    -0.176 NA
ATOM      2  C   UNL     1       7.063   2.316  -0.443  0.00  0.00    +0.109 C 
ATOM      3  C   UNL     1       6.108   3.505  -0.592  0.00  0.00    +0.018 C 
ATOM      4  C   UNL     1       6.360   4.500   0.543  0.00  0.00    +0.015 C 
ATOM      5  C   UNL     1       6.084   3.824   1.888  0.00  0.00    +0.091 C 
ATOM      6  C   UNL     1       7.032   2.640   2.064  0.00  0.00    +0.122 C 
ENDROOT
BRANCH   5   7
ATOM      7  C   UNL     1       6.300   4.815   3.003  0.00  0.00    +0.222 C 
ATOM      8  O   UNL     1       7.133   4.595   3.857  0.00  0.00    -0.275 OA
ATOM      9  N   UNL     1       5.568   5.945   3.051  0.00  0.00    -0.283 N 
ATOM     10  H   UNL     1       4.948   6.153   2.334  0.00  0.00    +0.155 HD
BRANCH   9  11
ATOM     11  C   UNL     1       5.702   6.821   4.136  0.00  0.00    +0.069 A 
ATOM     12  C   UNL     1       6.938   6.990   4.745  0.00  0.00    +0.027 A 
ATOM     13  C   UNL     1       7.069   7.854   5.815  0.00  0.00    +0.022 A 
ATOM     14  C   UNL     1       5.968   8.552   6.281  0.00  0.00    +0.044 A 
ATOM     15  C   UNL     1       4.734   8.387   5.677  0.00  0.00    +0.060 A 
ATOM     16  C   UNL     1       4.599   7.528   4.602  0.00  0.00    +0.146 A 
ATOM     17  F   UNL     1       3.396   7.371   4.009  0.00  0.00    -0.203 F 
ATOM     18 CL   UNL     1       6.137   9.636   7.626  0.00  0.00    -0.083 Cl
ENDBRANCH   9  11
ENDBRANCH   5   7
BRANCH   1  19
ATOM     19  S   UNL     1       6.587   0.137   1.107  0.00  0.00    +0.061 S 
ATOM     20  O   UNL     1       7.030  -0.203   2.414  0.00  0.00    -0.153 OA
ATOM     21  O   UNL     1       7.067  -0.523  -0.056  0.00  0.00    -0.153 OA
BRANCH  19  29
ATOM     22  C   UNL     1       0.014   1.519  -0.039  0.00  0.00    +0.062 C 
ATOM     23  C   UNL     1       0.042  -0.011  -0.056  0.00  0.00    +0.256 C 
ATOM     24  C   UNL     1       0.753  -0.486  -1.297  0.00  0.00    +0.258 C 
ATOM     25  O   UNL     1       0.126  -0.711  -2.311  0.00  0.00    -0.271 OA
ATOM     26  N   UNL     1       2.093  -0.660  -1.276  0.00  0.00    -0.279 N 
ATOM     27  C   UNL     1       2.789  -0.427  -0.082  0.00  0.00    +0.078 A 
ATOM     28  C   UNL     1       4.167  -0.280  -0.083  0.00  0.00    +0.055 A 
ATOM     29  C   UNL     1       4.835  -0.052   1.106  0.00  0.00    +0.107 A 
ATOM     30  C   UNL     1       4.132   0.028   2.295  0.00  0.00    +0.032 A 
ATOM     31  C   UNL     1       2.756  -0.117   2.302  0.00  0.00    +0.049 A 
ATOM     32  C   UNL     1       2.081  -0.345   1.116  0.00  0.00    +0.143 A 
ATOM     33  O   UNL     1       0.729  -0.488   1.104  0.00  0.00    -0.478 OA
ATOM     34  H   UNL     1       2.565  -0.942  -2.075  0.00  0.00    +0.155 HD
ENDBRANCH  19  29
ENDBRANCH   1  19
TORSDOF 4
