REMARK  Name = ZINC11592735
REMARK  7 active torsions:
REMARK  status: ('A' for Active; 'I' for Inactive)
REMARK    1  A    between atoms: C_1  and  C_2
REMARK    2  A    between atoms: C_4  and  O_30
REMARK    3  A    between atoms: C_14  and  C_15
REMARK    4  A    between atoms: C_14  and  O_19
REMARK    5  A    between atoms: C_15  and  C_17
REMARK    6  A    between atoms: C_17  and  O_18
REMARK    7  A    between atoms: C_28  and  C_29
REMARK                            x       y       z     vdW  Elec       q    Type
REMARK                         _______ _______ _______ _____ _____    ______ ____
ROOT
ATOM      1  C   UNL     1      -2.612   0.126  -0.757  0.00  0.00    +0.015 C 
ATOM      2  C   UNL     1      -2.115   1.573  -0.753  0.00  0.00    +0.009 C 
ATOM      3  C   UNL     1      -3.005   2.429  -1.638  0.00  0.00    +0.041 C 
ATOM      4  C   UNL     1      -2.531   2.269  -3.089  0.00  0.00    +0.120 C 
ATOM      5  C   UNL     1      -1.923   0.879  -3.294  0.00  0.00    +0.035 C 
ATOM      6  C   UNL     1      -0.607   0.750  -2.544  0.00  0.00    -0.000 C 
ATOM      7  C   UNL     1      -0.670   1.638  -1.310  0.00  0.00    +0.002 C 
ATOM      8  C   UNL     1       0.156   1.108  -0.127  0.00  0.00    +0.008 C 
ATOM      9  C   UNL     1      -0.520   1.757   1.107  0.00  0.00    +0.043 C 
ATOM     10  C   UNL     1      -1.974   2.087   0.682  0.00  0.00    +0.131 C 
ATOM     11  C   UNL     1       0.564   1.176  -3.430  0.00  0.00    +0.008 C 
ATOM     12  C   UNL     1       0.718   0.120  -4.530  0.00  0.00    +0.032 C 
ATOM     13  C   UNL     1      -0.577   0.030  -5.292  0.00  0.00    -0.056 C 
ATOM     14  C   UNL     1      -0.551  -0.512  -6.527  0.00  0.00    +0.051 C 
ATOM     15  C   UNL     1      -1.865  -0.588  -7.219  0.00  0.00    +0.179 C 
ATOM     16  O   UNL     1      -1.991  -0.367  -8.409  0.00  0.00    -0.288 OA
ATOM     17  C   UNL     1      -3.013  -0.954  -6.348  0.00  0.00    +0.047 C 
ATOM     18  C   UNL     1      -3.006  -0.410  -5.118  0.00  0.00    -0.012 C 
ATOM     19  C   UNL     1      -1.876   0.520  -4.751  0.00  0.00    +0.013 C 
ATOM     20  C   UNL     1      -2.168   1.826  -5.492  0.00  0.00    +0.020 C 
ENDROOT
BRANCH  10  21
ATOM     21  C   UNL     1      -2.203   3.575   0.726  0.00  0.00    +0.190 C 
ATOM     22  O   UNL     1      -1.280   4.334   0.547  0.00  0.00    -0.292 OA
BRANCH  21  23
ATOM     23  C   UNL     1      -3.583   4.118   0.994  0.00  0.00    +0.233 C 
BRANCH  23  24
ATOM     24  O   UNL     1      -3.544   5.546   0.986  0.00  0.00    -0.387 OA
ATOM     25  H   UNL     1      -4.400   5.964   1.152  0.00  0.00    +0.210 HD
ENDBRANCH  23  24
ENDBRANCH  21  23
ENDBRANCH  10  21
BRANCH  10  26
ATOM     26  O   UNL     1      -2.902   1.418   1.539  0.00  0.00    -0.380 OA
ATOM     27  H   UNL     1      -2.859   1.702   2.462  0.00  0.00    +0.211 HD
ENDBRANCH  10  26
BRANCH   4  28
ATOM     28  O   UNL     1      -1.547   3.264  -3.378  0.00  0.00    -0.391 OA
ATOM     29  H   UNL     1      -1.862   4.172  -3.270  0.00  0.00    +0.210 HD
ENDBRANCH   4  28
TORSDOF 5
