REMARK  Name = ZINC42027150
REMARK  4 active torsions:
REMARK  status: ('A' for Active; 'I' for Inactive)
REMARK    1  A    between atoms: C_6  and  N_7
REMARK    2  A    between atoms: C_8  and  C_12
REMARK    3  A    between atoms: C_14  and  N_19
REMARK    4  A    between atoms: C_16  and  N_18
REMARK                            x       y       z     vdW  Elec       q    Type
REMARK                         _______ _______ _______ _____ _____    ______ ____
ROOT
ATOM      1  N   UNL     1      -1.286  -0.621  -0.153  0.00  0.00    -0.193 N 
ATOM      2  C   UNL     1      -1.494  -1.859  -0.685  0.00  0.00    +0.187 A 
ATOM      3  N   UNL     1      -2.650  -2.286  -0.221  0.00  0.00    -0.108 NA
ATOM      4  N   UNL     1      -3.175  -1.409   0.556  0.00  0.00    -0.022 NA
ATOM      5  N   UNL     1      -2.410  -0.376   0.655  0.00  0.00    -0.039 NA
ENDROOT
BRANCH   1  11
ATOM      6  C   UNL     1       0.328   0.392  -1.640  0.00  0.00    +0.029 A 
ATOM      7  C   UNL     1       1.411   1.224  -1.843  0.00  0.00    +0.017 A 
ATOM      8  C   UNL     1       1.983   1.890  -0.774  0.00  0.00    +0.018 A 
ATOM      9  C   UNL     1       1.472   1.725   0.501  0.00  0.00    +0.017 A 
ATOM     10  C   UNL     1       0.389   0.893   0.710  0.00  0.00    +0.029 A 
ATOM     11  C   UNL     1      -0.186   0.224  -0.362  0.00  0.00    +0.069 A 
ATOM     12 BR   UNL     1       3.467   3.029  -1.055  0.00  0.00    -0.050 Br
ENDBRANCH   1  11
BRANCH   2  13
ATOM     13  C   UNL     1      -0.592  -2.585  -1.607  0.00  0.00    +0.025 A 
ATOM     14  C   UNL     1       0.787  -2.396  -1.527  0.00  0.00    +0.034 A 
ATOM     15  C   UNL     1       1.630  -3.079  -2.393  0.00  0.00    +0.027 A 
ATOM     16  C   UNL     1       1.102  -3.949  -3.337  0.00  0.00    +0.045 A 
ATOM     17  C   UNL     1      -0.271  -4.139  -3.418  0.00  0.00    +0.027 A 
ATOM     18  C   UNL     1      -1.119  -3.464  -2.552  0.00  0.00    +0.034 A 
BRANCH  17  19
ATOM     19  N   UNL     1      -0.799  -5.015  -4.370  0.00  0.00    -0.358 N 
ATOM     20  H   UNL     1      -0.207  -5.490  -4.973  0.00  0.00    +0.142 HD
ATOM     21  H   UNL     1      -1.758  -5.148  -4.427  0.00  0.00    +0.142 HD
ENDBRANCH  17  19
BRANCH  15  22
ATOM     22  N   UNL     1       3.012  -2.890  -2.314  0.00  0.00    -0.358 N 
ATOM     23  H   UNL     1       3.382  -2.282  -1.655  0.00  0.00    +0.142 HD
ATOM     24  H   UNL     1       3.602  -3.367  -2.919  0.00  0.00    +0.142 HD
ENDBRANCH  15  22
ENDBRANCH   2  13
TORSDOF 4
