REMARK  Name = ZINC39665956
REMARK  9 active torsions:
REMARK  status: ('A' for Active; 'I' for Inactive)
REMARK    1  A    between atoms: C_1  and  C_2
REMARK    2  A    between atoms: C_5  and  O_8
REMARK    3  A    between atoms: O_8  and  C_9
REMARK    4  A    between atoms: C_9  and  C_11
REMARK    5  A    between atoms: C_9  and  C_12
REMARK    6  A    between atoms: C_12  and  N_13
REMARK    7  A    between atoms: C_14  and  C_16
REMARK    8  A    between atoms: C_27  and  C_29
REMARK    9  A    between atoms: C_32  and  C_35
REMARK                            x       y       z     vdW  Elec       q    Type
REMARK                         _______ _______ _______ _____ _____    ______ ____
ROOT
ATOM      1  C   UNL     1       4.660  -6.547   0.316  0.00  0.00    +0.100 C 
ATOM      2  C   UNL     1       4.939  -5.632  -0.897  0.00  0.00    +0.121 C 
ATOM      3  N   UNL     1       6.230  -6.113  -1.441  0.00  0.00    -0.296 N 
ATOM      4  C   UNL     1       6.154  -7.589  -1.321  0.00  0.00    +0.115 C 
ATOM      5  C   UNL     1       5.459  -7.831   0.034  0.00  0.00    -0.004 C 
ATOM      6  C   UNL     1       6.499  -8.057   1.128  0.00  0.00    -0.010 C 
ATOM      7  C   UNL     1       7.241  -9.368   0.856  0.00  0.00    -0.082 C 
ATOM      8  N   UNL     1       6.282 -10.479   0.827  0.00  0.00    +0.379 N 
ATOM      9  C   UNL     1       5.341 -10.300  -0.285  0.00  0.00    -0.082 C 
ATOM     10  C   UNL     1       4.519  -9.028  -0.062  0.00  0.00    -0.010 C 
ATOM     11  C   UNL     1       7.245  -5.376  -1.933  0.00  0.00    +0.247 C 
ATOM     12  O   UNL     1       7.136  -4.168  -2.015  0.00  0.00    -0.270 OA
ATOM     13  H   UNL     1       6.780 -11.349   0.709  0.00  0.00    -0.086 HD
ATOM     14  H   UNL     1       5.771 -10.503   1.697  0.00  0.00    -0.086 HD
ENDROOT
BRANCH  11  15
ATOM     15  C   UNL     1       8.492  -6.037  -2.374  0.00  0.00    +0.037 A 
ATOM     16  C   UNL     1       8.459  -7.344  -2.861  0.00  0.00    +0.013 A 
ATOM     17  C   UNL     1       9.626  -7.955  -3.271  0.00  0.00    +0.013 A 
ATOM     18  C   UNL     1      10.828  -7.274  -3.200  0.00  0.00    +0.055 A 
ATOM     19  C   UNL     1      10.869  -5.978  -2.717  0.00  0.00    +0.013 A 
ATOM     20  C   UNL     1       9.708  -5.354  -2.310  0.00  0.00    +0.013 A 
BRANCH  18  21
ATOM     21  C   UNL     1      12.100  -7.947  -3.649  0.00  0.00    +0.417 C 
ATOM     22  F   UNL     1      12.305  -7.695  -5.010  0.00  0.00    -0.166 F 
ATOM     23  F   UNL     1      13.178  -7.444  -2.914  0.00  0.00    -0.166 F 
ATOM     24  F   UNL     1      11.995  -9.326  -3.441  0.00  0.00    -0.166 F 
ENDBRANCH  18  21
ENDBRANCH  11  15
BRANCH   1  26
ATOM     25  N   UNL     1       2.628  -7.092   1.617  0.00  0.00    -0.312 N 
ATOM     26  C   UNL     1       3.188  -6.856   0.414  0.00  0.00    +0.218 C 
ATOM     27  O   UNL     1       2.508  -6.891  -0.590  0.00  0.00    -0.275 OA
ATOM     28  H   UNL     1       3.171  -7.064   2.419  0.00  0.00    +0.149 HD
BRANCH  25  29
ATOM     29  C   UNL     1       1.197  -7.392   1.712  0.00  0.00    +0.148 C 
BRANCH  29  30
ATOM     30  C   UNL     1       0.819  -7.618   3.177  0.00  0.00    +0.187 C 
ATOM     31  C   UNL     1      -0.645  -8.053   3.265  0.00  0.00    +0.053 C 
BRANCH  30  32
ATOM     32  O   UNL     1       1.000  -6.404   3.908  0.00  0.00    -0.488 OA
BRANCH  32  37
ATOM     33  C   UNL     1       2.273  -6.877   9.374  0.00  0.00    +0.044 C 
ATOM     34  C   UNL     1       1.932  -6.750   7.912  0.00  0.00    -0.050 A 
ATOM     35  C   UNL     1       1.636  -7.880   7.172  0.00  0.00    +0.007 A 
ATOM     36  C   UNL     1       1.323  -7.767   5.831  0.00  0.00    +0.046 A 
ATOM     37  C   UNL     1       1.307  -6.518   5.227  0.00  0.00    +0.121 A 
ATOM     38  C   UNL     1       1.604  -5.386   5.972  0.00  0.00    +0.046 A 
ATOM     39  C   UNL     1       1.911  -5.504   7.314  0.00  0.00    +0.007 A 
ENDBRANCH  32  37
ENDBRANCH  30  32
ENDBRANCH  29  30
ENDBRANCH  25  29
ENDBRANCH   1  26
TORSDOF 7
