REMARK  Name = ZINC08300371
REMARK  3 active torsions:
REMARK  status: ('A' for Active; 'I' for Inactive)
REMARK    1  A    between atoms: C_6  and  N_7
REMARK    2  A    between atoms: C_19  and  N_26
REMARK    3  A    between atoms: C_27  and  C_29
REMARK                            x       y       z     vdW  Elec       q    Type
REMARK                         _______ _______ _______ _____ _____    ______ ____
ROOT
ATOM      1  N   UNL     1      -3.346   1.765   0.095  0.00  0.00    -0.269 N 
ATOM      2  C   UNL     1      -3.398   3.108   0.194  0.00  0.00    +0.306 C 
ATOM      3  O   UNL     1      -2.369   3.754   0.241  0.00  0.00    -0.252 OA
ATOM      4  N   UNL     1      -4.590   3.734   0.243  0.00  0.00    -0.284 N 
ATOM      5  C   UNL     1      -5.839   2.966   0.303  0.00  0.00    +0.114 C 
ATOM      6  C   UNL     1      -6.716   3.474   1.439  0.00  0.00    +0.027 C 
ATOM      7  C   UNL     1      -6.869   4.995   1.377  0.00  0.00    +0.018 C 
ATOM      8  C   UNL     1      -5.478   5.625   1.474  0.00  0.00    +0.055 C 
ATOM      9  C   UNL     1      -4.668   5.204   0.242  0.00  0.00    +0.119 C 
ATOM     10  C   UNL     1      -4.762   5.095   2.695  0.00  0.00    +0.048 A 
ATOM     11  C   UNL     1      -3.781   5.873   3.236  0.00  0.00    +0.054 A 
ATOM     12  C   UNL     1      -2.993   5.391   4.293  0.00  0.00    +0.030 A 
ATOM     13  C   UNL     1      -3.210   4.124   4.750  0.00  0.00    +0.072 A 
ATOM     14  C   UNL     1      -4.231   3.355   4.176  0.00  0.00    +0.252 A 
ATOM     15  O   UNL     1      -4.399   2.204   4.546  0.00  0.00    -0.268 OA
ATOM     16  N   UNL     1      -5.034   3.873   3.214  0.00  0.00    -0.310 N 
ATOM     17  C   UNL     1      -6.181   3.064   2.799  0.00  0.00    +0.130 C 
ATOM     18  H   UNL     1      -4.163   1.255  -0.019  0.00  0.00    +0.156 HD
ENDROOT
BRANCH   1  24
ATOM     19  C   UNL     1      -1.908  -0.057  -0.577  0.00  0.00    +0.026 A 
ATOM     20  C   UNL     1      -0.692  -0.709  -0.512  0.00  0.00    +0.040 A 
ATOM     21  C   UNL     1       0.327  -0.199   0.275  0.00  0.00    +0.124 A 
ATOM     22  C   UNL     1       0.127   0.963   1.002  0.00  0.00    +0.040 A 
ATOM     23  C   UNL     1      -1.089   1.615   0.943  0.00  0.00    +0.026 A 
ATOM     24  C   UNL     1      -2.112   1.105   0.155  0.00  0.00    +0.035 A 
ATOM     25  F   UNL     1       1.517  -0.836   0.334  0.00  0.00    -0.205 F 
ENDBRANCH   1  24
BRANCH  11  26
ATOM     26  N   UNL     1      -3.558   7.164   2.733  0.00  0.00    -0.280 N 
ATOM     27  C   UNL     1      -3.618   8.229   3.557  0.00  0.00    +0.248 C 
ATOM     28  O   UNL     1      -3.776   8.064   4.752  0.00  0.00    -0.270 OA
ATOM     29  H   UNL     1      -3.360   7.290   1.791  0.00  0.00    +0.155 HD
BRANCH  27  30
ATOM     30  C   UNL     1      -3.492   9.594   3.010  0.00  0.00    +0.041 A 
ATOM     31  C   UNL     1      -3.304   9.784   1.639  0.00  0.00    +0.017 A 
ATOM     32  C   UNL     1      -3.193  11.059   1.130  0.00  0.00    +0.050 A 
ATOM     33  C   UNL     1      -3.254  12.158   1.976  0.00  0.00    +0.166 A 
ATOM     34  C   UNL     1      -3.435  11.974   3.348  0.00  0.00    +0.167 A 
ATOM     35  C   UNL     1      -3.554  10.698   3.864  0.00  0.00    +0.062 A 
ATOM     36  O   UNL     1      -3.460  13.199   3.952  0.00  0.00    -0.453 OA
ATOM     37  C   UNL     1      -2.885  14.109   2.996  0.00  0.00    +0.466 C 
ATOM     38  O   UNL     1      -3.167  13.495   1.725  0.00  0.00    -0.453 OA
ENDBRANCH  27  30
ENDBRANCH  11  26
TORSDOF 3
