REMARK  Name = ZINC57531382
REMARK  8 active torsions:
REMARK  status: ('A' for Active; 'I' for Inactive)
REMARK    1  A    between atoms: C_1  and  N_2
REMARK    2  A    between atoms: N_2  and  C_3
REMARK    3  A    between atoms: N_2  and  C_4
REMARK    4  A    between atoms: C_7  and  C_10
REMARK    5  A    between atoms: C_12  and  C_24
REMARK    6  A    between atoms: C_14  and  C_19
REMARK    7  A    between atoms: C_14  and  O_23
REMARK    8  A    between atoms: C_24  and  C_26
REMARK                            x       y       z     vdW  Elec       q    Type
REMARK                         _______ _______ _______ _____ _____    ______ ____
ROOT
ATOM      1  C   UNL     1      -0.010  -2.814  -4.914  0.00  0.00    +0.117 C 
ATOM      2  C   UNL     1      -1.447  -2.968  -5.423  0.00  0.00    +0.144 C 
ATOM      3  C   UNL     1      -1.406  -3.621  -6.809  0.00  0.00    +0.241 C 
ATOM      4  N   UNL     1      -0.551  -2.824  -7.690  0.00  0.00    -0.291 N 
ATOM      5  C   UNL     1       0.473  -2.106  -7.206  0.00  0.00    +0.133 C 
ATOM      6  S   UNL     1       1.439  -1.210  -8.299  0.00  0.00    -0.019 S 
ATOM      7  N   UNL     1       0.771  -2.062  -5.898  0.00  0.00    -0.319 N 
ATOM      8  H   UNL     1      -0.728  -2.816  -8.644  0.00  0.00    +0.151 HD
ATOM      9  H   UNL     1       1.518  -1.520  -5.598  0.00  0.00    +0.148 HD
ENDROOT
BRANCH   1  13
ATOM     10  C   UNL     1      -0.031  -0.708  -1.195  0.00  0.00    +0.029 A 
ATOM     11  C   UNL     1       0.071  -0.009  -2.390  0.00  0.00    +0.023 A 
ATOM     12  C   UNL     1       0.078  -0.692  -3.591  0.00  0.00    +0.007 A 
ATOM     13  C   UNL     1      -0.017  -2.071  -3.603  0.00  0.00    -0.026 A 
ATOM     14  C   UNL     1      -0.119  -2.771  -2.415  0.00  0.00    +0.007 A 
ATOM     15  C   UNL     1      -0.121  -2.095  -1.211  0.00  0.00    +0.023 A 
BRANCH  10  17
ATOM     16  C   UNL     1      -0.140  -0.761   1.281  0.00  0.00    +0.129 C 
ATOM     17  N   UNL     1      -0.038  -0.020   0.021  0.00  0.00    -0.336 N 
ATOM     18  C   UNL     1       0.056   1.442   0.035  0.00  0.00    +0.129 C 
ENDBRANCH  10  17
ENDBRANCH   1  13
BRANCH   3  19
ATOM     19  C   UNL     1      -0.840  -5.037  -6.691  0.00  0.00    +0.436 C 
ATOM     20  F   UNL     1      -1.654  -5.796  -5.843  0.00  0.00    -0.166 F 
ATOM     21  F   UNL     1      -0.803  -5.632  -7.957  0.00  0.00    -0.166 F 
ATOM     22  F   UNL     1       0.455  -4.980  -6.165  0.00  0.00    -0.166 F 
ENDBRANCH   3  19
BRANCH   3  23
ATOM     23  O   UNL     1      -2.728  -3.677  -7.349  0.00  0.00    -0.364 OA
ATOM     24  H   UNL     1      -2.777  -4.080  -8.227  0.00  0.00    +0.212 HD
ENDBRANCH   3  23
BRANCH   2  25
ATOM     25  C   UNL     1      -2.099  -1.613  -5.517  0.00  0.00    +0.173 C 
ATOM     26  O   UNL     1      -1.444  -0.646  -5.845  0.00  0.00    -0.292 OA
BRANCH  25  27
ATOM     27  C   UNL     1      -3.531  -1.462  -5.210  0.00  0.00    +0.018 A 
ATOM     28  C   UNL     1      -4.288  -2.574  -4.826  0.00  0.00    +0.011 A 
ATOM     29  C   UNL     1      -5.628  -2.424  -4.540  0.00  0.00    +0.001 A 
ATOM     30  C   UNL     1      -6.225  -1.179  -4.632  0.00  0.00    +0.000 A 
ATOM     31  C   UNL     1      -5.482  -0.074  -5.012  0.00  0.00    +0.001 A 
ATOM     32  C   UNL     1      -4.139  -0.206  -5.296  0.00  0.00    +0.011 A 
ENDBRANCH  25  27
ENDBRANCH   2  25
TORSDOF 6
