REMARK  Name = ZINC15277227
REMARK  11 active torsions:
REMARK  status: ('A' for Active; 'I' for Inactive)
REMARK    1  A    between atoms: C_1  and  C_2
REMARK    2  A    between atoms: C_2  and  C_3
REMARK    3  A    between atoms: C_3  and  O_4
REMARK    4  A    between atoms: O_4  and  C_5
REMARK    5  A    between atoms: C_5  and  C_7
REMARK    6  A    between atoms: C_8  and  C_36
REMARK    7  A    between atoms: C_12  and  C_14
REMARK    8  A    between atoms: C_16  and  N_22
REMARK    9  A    between atoms: C_18  and  O_20
REMARK   10  A    between atoms: O_20  and  C_21
REMARK   11  A    between atoms: C_28  and  C_31
REMARK                            x       y       z     vdW  Elec       q    Type
REMARK                         _______ _______ _______ _____ _____    ______ ____
ROOT
ATOM      1  C   UNL     1       5.054   4.701   0.792  0.00  0.00    +0.154 C 
ATOM      2  C   UNL     1       5.567   4.731   2.034  0.00  0.00    +0.031 C 
ATOM      3  N   UNL     1       6.105   3.603   2.589  0.00  0.00    -0.260 NA
ATOM      4  C   UNL     1       6.497   2.556   1.798  0.00  0.00    +0.049 C 
ATOM      5  C   UNL     1       6.027   2.434   0.539  0.00  0.00    +0.025 C 
ATOM      6  C   UNL     1       5.046   3.436  -0.017  0.00  0.00    +0.074 C 
ATOM      7  C   UNL     1       6.436   1.374  -0.289  0.00  0.00    +0.162 C 
ATOM      8  O   UNL     1       5.988   1.290  -1.415  0.00  0.00    -0.292 OA
ATOM      9  C   UNL     1       7.418   0.342   0.194  0.00  0.00    +0.088 C 
ATOM     10  C   UNL     1       8.334   0.978   1.245  0.00  0.00    +0.039 C 
ATOM     11  C   UNL     1       7.463   1.547   2.368  0.00  0.00    +0.065 C 
ATOM     12  C   UNL     1       5.548   6.016   2.821  0.00  0.00    +0.061 C 
ENDROOT
BRANCH   6  13
ATOM     13  C   UNL     1       3.663   2.837   0.002  0.00  0.00    -0.033 A 
ATOM     14  C   UNL     1       3.088   2.468   1.204  0.00  0.00    +0.041 A 
ATOM     15  C   UNL     1       1.817   1.923   1.227  0.00  0.00    +0.177 A 
ATOM     16  C   UNL     1       1.123   1.736   0.043  0.00  0.00    +0.250 A 
ATOM     17  C   UNL     1       1.702   2.107  -1.167  0.00  0.00    +0.169 A 
ATOM     18  C   UNL     1       2.973   2.658  -1.182  0.00  0.00    +0.054 A 
ATOM     19  O   UNL     1      -0.125   1.195   0.063  0.00  0.00    -0.282 OA
BRANCH  15  20
ATOM     20  N   UNL     1       1.202   1.535   2.516  0.00  0.00    +0.060 N 
ATOM     21  O   UNL     1       1.813   1.700   3.556  0.00  0.00    -0.126 OA
ATOM     22  O   UNL     1       0.085   1.051   2.535  0.00  0.00    -0.126 OA
ENDBRANCH  15  20
BRANCH  17  23
ATOM     23  O   UNL     1       1.022   1.930  -2.331  0.00  0.00    -0.491 OA
ATOM     24  C   UNL     1       1.679   2.334  -3.534  0.00  0.00    +0.277 C 
ENDBRANCH  17  23
ENDBRANCH   6  13
BRANCH  10  25
ATOM     25  C   UNL     1       9.264  -0.067   1.805  0.00  0.00    -0.006 A 
ATOM     26  C   UNL     1      10.619  -0.093   1.803  0.00  0.00    +0.011 A 
ATOM     27  C   UNL     1      11.270  -1.166   2.382  0.00  0.00    +0.008 A 
ATOM     28  C   UNL     1      10.534  -2.160   2.936  0.00  0.00    +0.045 A 
ATOM     29  S   UNL     1       8.867  -1.588   2.651  0.00  0.00    -0.101 S 
ENDBRANCH  10  25
BRANCH   1  30
ATOM     30  C   UNL     1       4.508   5.883   0.239  0.00  0.00    +0.317 C 
ATOM     31  O   UNL     1       4.409   6.885   0.921  0.00  0.00    -0.250 OA
BRANCH  30  32
ATOM     32  O   UNL     1       4.098   5.898  -1.047  0.00  0.00    -0.464 OA
BRANCH  32  33
ATOM     33  C   UNL     1       3.557   7.125  -1.540  0.00  0.00    +0.232 C 
BRANCH  33  35
ATOM     34  C   UNL     1       2.571   8.265  -3.533  0.00  0.00    +0.007 C 
ATOM     35  C   UNL     1       3.150   6.951  -3.005  0.00  0.00    +0.038 C 
ENDBRANCH  33  35
ENDBRANCH  32  33
ENDBRANCH  30  32
ENDBRANCH   1  30
TORSDOF 8
