REMARK  Name = ZINC31170046
REMARK  9 active torsions:
REMARK  status: ('A' for Active; 'I' for Inactive)
REMARK    1  A    between atoms: C_1  and  C_2
REMARK    2  A    between atoms: C_2  and  C_29
REMARK    3  A    between atoms: C_3  and  C_4
REMARK    4  A    between atoms: C_4  and  C_5
REMARK    5  A    between atoms: C_9  and  O_12
REMARK    6  A    between atoms: C_10  and  O_11
REMARK    7  A    between atoms: C_24  and  O_27
REMARK    8  A    between atoms: C_25  and  O_26
REMARK    9  A    between atoms: O_27  and  C_28
REMARK                            x       y       z     vdW  Elec       q    Type
REMARK                         _______ _______ _______ _____ _____    ______ ____
ROOT
ATOM      1  C   UNL     1       1.867  -0.014  -0.768  0.00  0.00    +0.002 A 
ATOM      2  C   UNL     1       0.719  -0.651  -1.212  0.00  0.00    +0.018 A 
ATOM      3  C   UNL     1      -0.372   0.088  -1.585  0.00  0.00    +0.039 A 
ATOM      4  C   UNL     1      -0.361   1.488  -1.512  0.00  0.00    +0.172 A 
ATOM      5  C   UNL     1       0.795   2.122  -1.075  0.00  0.00    +0.201 A 
ATOM      6  C   UNL     1       1.904   1.371  -0.705  0.00  0.00    +0.166 A 
ATOM      7  O   UNL     1      -1.463   2.208  -1.836  0.00  0.00    -0.487 OA
ATOM      8  C   UNL     1      -2.422   1.743  -2.794  0.00  0.00    +0.241 C 
ATOM      9  C   UNL     1      -1.963   0.418  -3.350  0.00  0.00    +0.105 C 
ATOM     10  C   UNL     1      -1.640  -0.495  -2.116  0.00  0.00    +0.218 C 
ATOM     11  O   UNL     1      -1.603  -1.770  -2.745  0.00  0.00    -0.479 OA
ATOM     12  C   UNL     1      -2.610  -1.768  -3.665  0.00  0.00    +0.170 A 
ATOM     13  C   UNL     1      -2.921  -0.453  -4.072  0.00  0.00    +0.008 A 
ATOM     14  C   UNL     1      -3.924  -0.193  -4.981  0.00  0.00    +0.011 A 
ATOM     15  C   UNL     1      -4.617  -1.280  -5.499  0.00  0.00    +0.050 A 
ATOM     16  C   UNL     1      -4.315  -2.576  -5.119  0.00  0.00    +0.165 A 
ATOM     17  C   UNL     1      -3.307  -2.851  -4.194  0.00  0.00    +0.201 A 
ENDROOT
BRANCH   6  18
ATOM     18  O   UNL     1       3.033   1.998  -0.278  0.00  0.00    -0.503 OA
ATOM     19  H   UNL     1       3.066   3.096  -0.227  0.00  0.00    +0.292 HD
ENDBRANCH   6  18
BRANCH   5  20
ATOM     20  O   UNL     1       0.842   3.480  -1.010  0.00  0.00    -0.501 OA
ATOM     21  H   UNL     1       1.757   3.983  -0.664  0.00  0.00    +0.292 HD
ENDBRANCH   5  20
BRANCH  17  22
ATOM     22  O   UNL     1      -3.015  -4.129  -3.826  0.00  0.00    -0.501 OA
ATOM     23  H   UNL     1      -3.579  -4.968  -4.258  0.00  0.00    +0.292 HD
ENDBRANCH  17  22
BRANCH  16  24
ATOM     24  O   UNL     1      -5.019  -3.606  -5.659  0.00  0.00    -0.491 OA
ATOM     25  C   UNL     1      -6.040  -3.271  -6.600  0.00  0.00    +0.277 C 
ENDBRANCH  16  24
BRANCH   1  26
ATOM     26  C   UNL     1       3.070  -0.822  -0.356  0.00  0.00    +0.066 C 
BRANCH  26  29
ATOM     27  C   UNL     1       4.220  -3.258  -1.197  0.00  0.00    +0.038 C 
ATOM     28  C   UNL     1       4.549  -1.976  -1.918  0.00  0.00    -0.079 C 
ATOM     29  C   UNL     1       4.074  -0.837  -1.479  0.00  0.00    -0.023 C 
ATOM     30  C   UNL     1       5.425  -2.005  -3.144  0.00  0.00    +0.038 C 
ENDBRANCH  26  29
ENDBRANCH   1  26
TORSDOF 6
