REMARK  Name = ZINC42692971
REMARK  7 active torsions:
REMARK  status: ('A' for Active; 'I' for Inactive)
REMARK    1  A    between atoms: C_3  and  C_6
REMARK    2  A    between atoms: C_6  and  N_7
REMARK    3  A    between atoms: N_7  and  C_8
REMARK    4  A    between atoms: N_7  and  C_19
REMARK    5  A    between atoms: C_10  and  N_18
REMARK    6  A    between atoms: C_12  and  S_14
REMARK    7  A    between atoms: S_14  and  N_17
REMARK                            x       y       z     vdW  Elec       q    Type
REMARK                         _______ _______ _______ _____ _____    ______ ____
ROOT
ATOM      1  C   UNL     1       4.505  -0.626   1.865  0.00  0.00    +0.034 A 
ATOM      2  C   UNL     1       4.146  -1.802   1.222  0.00  0.00    +0.046 A 
ATOM      3  C   UNL     1       4.550  -3.024   1.740  0.00  0.00    +0.028 A 
ATOM      4  C   UNL     1       5.312  -3.067   2.901  0.00  0.00    +0.051 A 
ATOM      5  C   UNL     1       5.668  -1.895   3.539  0.00  0.00    +0.108 A 
ATOM      6  C   UNL     1       5.272  -0.675   3.023  0.00  0.00    +0.051 A 
ENDROOT
BRANCH   5   7
ATOM      7  S   UNL     1       6.634  -1.953   5.012  0.00  0.00    +0.056 S 
ATOM      8  O   UNL     1       6.373  -0.748   5.717  0.00  0.00    -0.153 OA
ATOM      9  O   UNL     1       6.420  -3.235   5.587  0.00  0.00    -0.153 OA
BRANCH   7  10
ATOM     10  N   UNL     1       8.225  -1.900   4.555  0.00  0.00    -0.204 NA
ATOM     11  H   UNL     1       8.458  -1.846   3.615  0.00  0.00    +0.144 HD
ATOM     12  H   UNL     1       8.924  -1.922   5.228  0.00  0.00    +0.144 HD
ENDBRANCH   7  10
ENDBRANCH   5   7
BRANCH   3  13
ATOM     13  N   UNL     1       4.190  -4.210   1.095  0.00  0.00    -0.358 N 
ATOM     14  H   UNL     1       3.658  -4.179   0.285  0.00  0.00    +0.142 HD
ATOM     15  H   UNL     1       4.473  -5.064   1.458  0.00  0.00    +0.142 HD
ENDBRANCH   3  13
BRANCH   1  16
ATOM     16  N   UNL     1       4.101   0.607   1.347  0.00  0.00    -0.319 N 
BRANCH  16  17
ATOM     17  C   UNL     1       4.386   1.840   2.084  0.00  0.00    +0.074 C 
ATOM     18  C   UNL     1       3.856   3.151   1.499  0.00  0.00    +0.024 C 
ATOM     19  C   UNL     1       5.353   2.838   1.443  0.00  0.00    +0.024 C 
ENDBRANCH  16  17
BRANCH  16  20
ATOM     20  C   UNL     1       3.391   0.665   0.066  0.00  0.00    +0.179 C 
BRANCH  20  23
ATOM     21  C   UNL     1      -0.219   1.053   0.699  0.00  0.00    +0.041 A 
ATOM     22  C   UNL     1       1.073   1.599   0.519  0.00  0.00    +0.046 A 
ATOM     23  C   UNL     1       1.907   0.565   0.309  0.00  0.00    +0.122 A 
ATOM     24  O   UNL     1       1.194  -0.572   0.352  0.00  0.00    -0.466 OA
ATOM     25  C   UNL     1      -0.097  -0.282   0.589  0.00  0.00    +0.195 A 
ENDBRANCH  20  23
ENDBRANCH  16  20
ENDBRANCH   1  16
TORSDOF 7
