REMARK  Name = ZINC13205340
REMARK  8 active torsions:
REMARK  status: ('A' for Active; 'I' for Inactive)
REMARK    1  A    between atoms: C_1  and  C_2
REMARK    2  A    between atoms: C_5  and  C_8
REMARK    3  A    between atoms: C_11  and  S_16
REMARK    4  A    between atoms: N_12  and  C_13
REMARK    5  A    between atoms: C_13  and  C_14
REMARK    6  A    between atoms: S_16  and  C_17
REMARK    7  A    between atoms: C_17  and  C_18
REMARK    8  A    between atoms: N_20  and  C_21
REMARK                            x       y       z     vdW  Elec       q    Type
REMARK                         _______ _______ _______ _____ _____    ______ ____
ROOT
ATOM      1  S   UNL     1       0.992   3.444   2.261  0.00  0.00    -0.077 S 
ENDROOT
BRANCH   1   5
ATOM      2  C   UNL     1      -1.917   0.855   2.572  0.00  0.00    +0.165 A 
ATOM      3  N   UNL     1      -2.317   1.832   3.352  0.00  0.00    -0.128 NA
ATOM      4  N   UNL     1      -1.448   2.779   3.349  0.00  0.00    -0.122 NA
ATOM      5  C   UNL     1      -0.437   2.462   2.571  0.00  0.00    +0.193 A 
ATOM      6  N   UNL     1      -0.703   1.229   2.045  0.00  0.00    -0.291 N 
BRANCH   2  11
ATOM      7  C   UNL     1      -4.717  -4.068   1.550  0.00  0.00    +0.044 C 
ATOM      8  C   UNL     1      -3.984  -2.779   1.818  0.00  0.00    -0.050 A 
ATOM      9  C   UNL     1      -4.314  -2.015   2.923  0.00  0.00    +0.004 A 
ATOM     10  C   UNL     1      -3.647  -0.834   3.174  0.00  0.00    +0.012 A 
ATOM     11  C   UNL     1      -2.636  -0.410   2.310  0.00  0.00    +0.019 A 
ATOM     12  C   UNL     1      -2.312  -1.182   1.193  0.00  0.00    +0.012 A 
ATOM     13  C   UNL     1      -2.983  -2.364   0.957  0.00  0.00    +0.004 A 
ENDBRANCH   2  11
BRANCH   6  14
ATOM     14  C   UNL     1       0.134   0.463   1.119  0.00  0.00    +0.250 C 
BRANCH  14  15
ATOM     15  C   UNL     1      -0.230   0.820  -0.299  0.00  0.00    +0.375 C 
ATOM     16  O   UNL     1      -1.100   1.631  -0.514  0.00  0.00    -0.244 OA
ATOM     17  O   UNL     1       0.411   0.236  -1.324  0.00  0.00    -0.244 OA
ENDBRANCH  14  15
ENDBRANCH   6  14
ENDBRANCH   1   5
BRANCH   1  18
ATOM     18  C   UNL     1       0.612   4.885   3.289  0.00  0.00    +0.173 C 
BRANCH  18  19
ATOM     19  C   UNL     1       1.730   5.890   3.178  0.00  0.00    +0.227 C 
ATOM     20  O   UNL     1       2.689   5.655   2.474  0.00  0.00    -0.275 OA
ATOM     21  N   UNL     1       1.663   7.049   3.862  0.00  0.00    -0.285 N 
ATOM     22  H   UNL     1       0.936   7.204   4.485  0.00  0.00    +0.155 HD
BRANCH  21  23
ATOM     23  C   UNL     1       2.645   8.031   3.673  0.00  0.00    +0.037 A 
ATOM     24  C   UNL     1       3.236   8.191   2.427  0.00  0.00    +0.027 A 
ATOM     25  C   UNL     1       4.204   9.159   2.239  0.00  0.00    +0.051 A 
ATOM     26  C   UNL     1       4.588   9.972   3.293  0.00  0.00    +0.173 A 
ATOM     27  C   UNL     1       3.997   9.814   4.544  0.00  0.00    +0.174 A 
ATOM     28  C   UNL     1       3.022   8.847   4.730  0.00  0.00    +0.073 A 
ATOM     29  O   UNL     1       4.541  10.725   5.402  0.00  0.00    -0.395 OA
ATOM     30  C   UNL     1       5.173  11.712   4.566  0.00  0.00    +0.589 C 
ATOM     31  O   UNL     1       5.502  10.984   3.368  0.00  0.00    -0.395 OA
ATOM     32  F   UNL     1       4.286  12.755   4.279  0.00  0.00    -0.125 F 
ATOM     33  F   UNL     1       6.330  12.207   5.177  0.00  0.00    -0.125 F 
ENDBRANCH  21  23
ENDBRANCH  18  19
ENDBRANCH   1  18
TORSDOF 7
