REMARK  Name = ZINC15709097
REMARK  11 active torsions:
REMARK  status: ('A' for Active; 'I' for Inactive)
REMARK    1  A    between atoms: C_1  and  C_2
REMARK    2  A    between atoms: C_10  and  C_12
REMARK    3  A    between atoms: N_16  and  C_17
REMARK    4  A    between atoms: C_19  and  C_39
REMARK    5  A    between atoms: C_22  and  O_38
REMARK    6  A    between atoms: C_24  and  C_28
REMARK    7  A    between atoms: C_28  and  C_30
REMARK    8  A    between atoms: C_28  and  C_31
REMARK    9  A    between atoms: N_33  and  C_34
REMARK   10  A    between atoms: N_33  and  C_35
REMARK   11  A    between atoms: C_35  and  C_36
REMARK                            x       y       z     vdW  Elec       q    Type
REMARK                         _______ _______ _______ _____ _____    ______ ____
ROOT
ATOM      1  C   UNL     1      -0.063   3.641   3.521  0.00  0.00    +0.014 C 
ATOM      2  C   UNL     1       0.947   2.628   2.978  0.00  0.00    +0.042 C 
ATOM      3  C   UNL     1       1.020   1.453   3.931  0.00  0.00    +0.057 A 
ATOM      4  C   UNL     1       2.217   0.878   4.217  0.00  0.00    +0.015 A 
ATOM      5  S   UNL     1       1.764  -0.439   5.314  0.00  0.00    -0.057 S 
ATOM      6  C   UNL     1       0.052  -0.136   5.314  0.00  0.00    +0.165 A 
ATOM      7  N   UNL     1      -0.044   0.904   4.511  0.00  0.00    -0.229 NA
ATOM      8  N   UNL     1      -0.955  -0.816   5.986  0.00  0.00    -0.259 N 
ATOM      9  C   UNL     1      -0.650  -1.869   6.770  0.00  0.00    +0.266 C 
ATOM     10  O   UNL     1       0.514  -2.161   6.971  0.00  0.00    -0.268 OA
ATOM     11  C   UNL     1       3.560   1.279   3.720  0.00  0.00    +0.051 C 
ATOM     12  C   UNL     1       3.389   2.239   2.526  0.00  0.00    -0.022 C 
ATOM     13  C   UNL     1       2.329   3.286   2.880  0.00  0.00    +0.033 C 
ATOM     14  C   UNL     1       2.267   4.361   1.787  0.00  0.00    +0.123 C 
ATOM     15  C   UNL     1       3.632   5.016   1.589  0.00  0.00    +0.029 C 
ATOM     16  C   UNL     1       4.638   3.941   1.165  0.00  0.00    +0.007 C 
ATOM     17  C   UNL     1       4.747   2.904   2.281  0.00  0.00    +0.008 C 
ATOM     18  C   UNL     1       2.957   1.458   1.284  0.00  0.00    +0.012 C 
ATOM     19  H   UNL     1      -1.878  -0.533   5.892  0.00  0.00    +0.157 HD
ENDROOT
BRANCH   9  20
ATOM     20  C   UNL     1      -1.720  -2.662   7.382  0.00  0.00    +0.105 A 
ATOM     21  C   UNL     1      -3.074  -2.507   7.168  0.00  0.00    +0.032 A 
ATOM     22  C   UNL     1      -3.726  -3.468   7.947  0.00  0.00    +0.020 A 
ATOM     23  C   UNL     1      -2.780  -4.178   8.608  0.00  0.00    +0.086 A 
ATOM     24  N   UNL     1      -1.557  -3.702   8.269  0.00  0.00    -0.346 N 
ATOM     25  C   UNL     1      -0.276  -4.208   8.766  0.00  0.00    +0.149 C 
ENDBRANCH   9  20
BRANCH  15  26
ATOM     26  C   UNL     1       4.089   5.656   2.901  0.00  0.00    +0.078 C 
ATOM     27  C   UNL     1       3.158   6.818   3.253  0.00  0.00    +0.017 C 
BRANCH  26  28
ATOM     28  C   UNL     1       5.497   6.170   2.746  0.00  0.00    +0.219 C 
ATOM     29  O   UNL     1       5.922   6.453   1.645  0.00  0.00    -0.275 OA
ATOM     30  N   UNL     1       6.285   6.317   3.830  0.00  0.00    -0.301 N 
ATOM     31  C   UNL     1       5.747   6.054   5.167  0.00  0.00    +0.132 C 
BRANCH  30  32
ATOM     32  C   UNL     1       7.678   6.740   3.671  0.00  0.00    +0.134 C 
BRANCH  32  33
ATOM     33  C   UNL     1       7.756   8.244   3.723  0.00  0.00    -0.016 C 
ATOM     34  C   UNL     1       8.551   8.829   4.584  0.00  0.00    +0.005 C 
ENDBRANCH  32  33
ENDBRANCH  30  32
ENDBRANCH  26  28
ENDBRANCH  15  26
BRANCH  14  35
ATOM     35  O   UNL     1       1.315   5.357   2.163  0.00  0.00    -0.391 OA
ATOM     36  H   UNL     1       1.203   6.061   1.509  0.00  0.00    +0.210 HD
ENDBRANCH  14  35
TORSDOF 6
