REMARK  Name = ZINC10753199
REMARK  8 active torsions:
REMARK  status: ('A' for Active; 'I' for Inactive)
REMARK    1  A    between atoms: C_1  and  C_2
REMARK    2  A    between atoms: N_11  and  C_15
REMARK    3  A    between atoms: C_15  and  C_16
REMARK    4  A    between atoms: C_16  and  O_18
REMARK    5  A    between atoms: O_18  and  C_19
REMARK    6  A    between atoms: C_19  and  C_20
REMARK    7  A    between atoms: N_22  and  C_23
REMARK    8  A    between atoms: C_26  and  N_30
REMARK                            x       y       z     vdW  Elec       q    Type
REMARK                         _______ _______ _______ _____ _____    ______ ____
ROOT
ATOM      1  C   UNL     1       2.897   1.235  -1.439  0.00  0.00    +0.326 C 
ATOM      2  O   UNL     1       2.153   1.520  -2.349  0.00  0.00    -0.249 OA
ENDROOT
BRANCH   1   3
ATOM      3  C   UNL     1       2.441   1.404  -0.013  0.00  0.00    +0.238 C 
BRANCH   3  13
ATOM      4  C   UNL     1      -0.739   3.229   2.524  0.00  0.00    +0.010 C 
ATOM      5  C   UNL     1      -1.245   3.987   1.294  0.00  0.00    +0.018 C 
ATOM      6  C   UNL     1      -2.776   4.008   1.304  0.00  0.00    +0.006 C 
ATOM      7  C   UNL     1      -3.282   4.748   0.064  0.00  0.00    +0.000 C 
ATOM      8  C   UNL     1      -2.799   4.024  -1.195  0.00  0.00    +0.003 C 
ATOM      9  C   UNL     1      -1.269   4.003  -1.215  0.00  0.00    +0.035 C 
ATOM     10  C   UNL     1      -0.751   3.292   0.030  0.00  0.00    +0.115 C 
ATOM     11  C   UNL     1       0.759   3.236   0.016  0.00  0.00    +0.247 C 
ATOM     12  O   UNL     1       1.528   4.174   0.015  0.00  0.00    -0.273 OA
ATOM     13  N   UNL     1       1.072   1.924   0.004  0.00  0.00    -0.213 N 
ATOM     14  C   UNL     1      -0.025   1.156   0.010  0.00  0.00    +0.310 C 
ATOM     15  O   UNL     1       0.001  -0.059   0.001  0.00  0.00    -0.252 OA
ATOM     16  N   UNL     1      -1.160   1.881   0.019  0.00  0.00    -0.285 N 
ATOM     17  H   UNL     1      -2.067   1.539   0.021  0.00  0.00    +0.151 HD
ENDBRANCH   3  13
ENDBRANCH   1   3
BRANCH   1  18
ATOM     18  O   UNL     1       4.128   0.768  -1.700  0.00  0.00    -0.454 OA
BRANCH  18  19
ATOM     19  C   UNL     1       4.499   0.631  -3.097  0.00  0.00    +0.328 C 
BRANCH  19  20
ATOM     20  C   UNL     1       5.905   0.097  -3.194  0.00  0.00    +0.255 C 
ATOM     21  O   UNL     1       6.532  -0.144  -2.184  0.00  0.00    -0.272 OA
ATOM     22  N   UNL     1       6.465  -0.112  -4.402  0.00  0.00    -0.282 N 
ATOM     23  H   UNL     1       5.941   0.019  -5.208  0.00  0.00    +0.155 HD
BRANCH  22  24
ATOM     24  C   UNL     1       7.801  -0.518  -4.493  0.00  0.00    +0.048 A 
ATOM     25  C   UNL     1       8.339  -1.363  -3.531  0.00  0.00    +0.026 A 
ATOM     26  C   UNL     1       9.658  -1.761  -3.623  0.00  0.00    +0.034 A 
ATOM     27  C   UNL     1      10.443  -1.321  -4.673  0.00  0.00    +0.127 A 
ATOM     28  C   UNL     1       9.912  -0.479  -5.633  0.00  0.00    +0.049 A 
ATOM     29  C   UNL     1       8.591  -0.081  -5.549  0.00  0.00    +0.041 A 
ATOM     30 BR   UNL     1       7.862   1.063  -6.866  0.00  0.00    -0.048 Br
BRANCH  27  31
ATOM     31  N   UNL     1      11.856  -1.751  -4.769  0.00  0.00    +0.056 N 
ATOM     32  O   UNL     1      12.326  -2.492  -3.924  0.00  0.00    -0.126 OA
ATOM     33  O   UNL     1      12.549  -1.364  -5.692  0.00  0.00    -0.126 OA
ENDBRANCH  27  31
ENDBRANCH  22  24
ENDBRANCH  19  20
ENDBRANCH  18  19
ENDBRANCH   1  18
TORSDOF 7
