REMARK  Name = ZINC20974596
REMARK  7 active torsions:
REMARK  status: ('A' for Active; 'I' for Inactive)
REMARK    1  A    between atoms: C_1  and  C_2
REMARK    2  A    between atoms: C_2  and  O_3
REMARK    3  A    between atoms: O_3  and  C_4
REMARK    4  A    between atoms: C_4  and  C_6
REMARK    5  A    between atoms: N_15  and  C_16
REMARK    6  A    between atoms: C_16  and  N_18
REMARK    7  A    between atoms: C_19  and  C_21
REMARK                            x       y       z     vdW  Elec       q    Type
REMARK                         _______ _______ _______ _____ _____    ______ ____
ROOT
ATOM      1  C   UNL     1      -8.797  -1.608   0.037  0.00  0.00    +0.060 A 
ATOM      2  C   UNL     1      -7.735  -2.524   0.027  0.00  0.00    +0.017 A 
ATOM      3  C   UNL     1      -6.444  -2.110   0.023  0.00  0.00    +0.027 A 
ATOM      4  C   UNL     1      -6.118  -0.731   0.028  0.00  0.00    +0.055 A 
ATOM      5  C   UNL     1      -7.208   0.174   0.038  0.00  0.00    +0.039 A 
ATOM      6  C   UNL     1      -8.511  -0.238   0.043  0.00  0.00    +0.032 A 
ATOM      7  S   UNL     1      -6.388   1.751   0.049  0.00  0.00    -0.052 S 
ATOM      8  C   UNL     1      -4.713   1.130   0.030  0.00  0.00    +0.163 A 
ATOM      9  N   UNL     1      -4.898  -0.172   0.025  0.00  0.00    -0.335 N 
ATOM     10  N   UNL     1      -3.525   1.837   0.029  0.00  0.00    -0.169 NA
ATOM     11  H   UNL     1      -4.001  -0.809   0.017  0.00  0.00    +0.168 HD
ENDROOT
BRANCH   1  12
ATOM     12  C   UNL     1     -10.192  -2.081   0.043  0.00  0.00    +0.339 C 
ATOM     13  O   UNL     1     -11.106  -1.280   0.052  0.00  0.00    -0.245 OA
BRANCH  12  14
ATOM     14  O   UNL     1     -10.456  -3.403   0.037  0.00  0.00    -0.461 OA
BRANCH  14  16
ATOM     15  C   UNL     1     -11.953  -5.323   0.035  0.00  0.00    +0.048 C 
ATOM     16  C   UNL     1     -11.853  -3.797   0.043  0.00  0.00    +0.229 C 
ENDBRANCH  14  16
ENDBRANCH  12  14
ENDBRANCH   1  12
BRANCH  10  17
ATOM     17  C   UNL     1      -2.349   1.179   0.020  0.00  0.00    +0.163 C 
ATOM     18  S   UNL     1      -2.325  -0.532   0.010  0.00  0.00    -0.016 S 
BRANCH  17  19
ATOM     19  N   UNL     1      -1.191   1.869   0.018  0.00  0.00    -0.262 N 
ATOM     20  C   UNL     1      -0.014   1.211   0.009  0.00  0.00    +0.250 C 
ATOM     21  O   UNL     1       0.002  -0.004   0.002  0.00  0.00    -0.270 OA
ATOM     22  H   UNL     1      -1.206   2.969   0.024  0.00  0.00    +0.157 HD
BRANCH  20  23
ATOM     23  C   UNL     1       1.255   1.967   0.001  0.00  0.00    +0.038 A 
ATOM     24  C   UNL     1       1.240   3.364   0.003  0.00  0.00    +0.013 A 
ATOM     25  C   UNL     1       2.428   4.064   0.000  0.00  0.00    +0.002 A 
ATOM     26  C   UNL     1       3.634   3.385  -0.014  0.00  0.00    +0.014 A 
ATOM     27  C   UNL     1       3.657   2.002  -0.022  0.00  0.00    +0.014 A 
ATOM     28  C   UNL     1       2.475   1.289  -0.015  0.00  0.00    +0.027 A 
ATOM     29  I   UNL     1       5.490   0.986  -0.046  0.00  0.00    -0.044 I 
ENDBRANCH  20  23
ENDBRANCH  17  19
ENDBRANCH  10  17
TORSDOF 6
