REMARK  Name = ZINC02096283
REMARK  9 active torsions:
REMARK  status: ('A' for Active; 'I' for Inactive)
REMARK    1  A    between atoms: C_1  and  C_2
REMARK    2  A    between atoms: C_2  and  C_3
REMARK    3  A    between atoms: C_2  and  C_4
REMARK    4  A    between atoms: C_7  and  N_10
REMARK    5  A    between atoms: C_11  and  C_13
REMARK    6  A    between atoms: C_13  and  C_15
REMARK    7  A    between atoms: C_13  and  N_18
REMARK    8  A    between atoms: C_15  and  C_16
REMARK    9  A    between atoms: C_15  and  C_17
REMARK                            x       y       z     vdW  Elec       q    Type
REMARK                         _______ _______ _______ _____ _____    ______ ____
ROOT
ATOM      1  N   UNL     1      -1.690   1.447   1.864  0.00  0.00    -0.288 N 
ATOM      2  C   UNL     1      -1.763   0.339   2.628  0.00  0.00    +0.303 C 
ATOM      3  O   UNL     1      -0.825  -0.433   2.670  0.00  0.00    -0.253 OA
ATOM      4  N   UNL     1      -2.876   0.088   3.345  0.00  0.00    -0.285 N 
ATOM      5  C   UNL     1      -4.058   0.948   3.222  0.00  0.00    +0.114 C 
ATOM      6  C   UNL     1      -4.543   1.379   4.600  0.00  0.00    +0.027 C 
ATOM      7  C   UNL     1      -4.687   0.176   5.532  0.00  0.00    +0.018 C 
ATOM      8  C   UNL     1      -3.323  -0.509   5.653  0.00  0.00    +0.054 C 
ATOM      9  C   UNL     1      -2.934  -1.059   4.266  0.00  0.00    +0.119 C 
ATOM     10  C   UNL     1      -2.279   0.505   6.059  0.00  0.00    +0.027 A 
ATOM     11  C   UNL     1      -1.174   0.041   6.700  0.00  0.00    +0.022 A 
ATOM     12  C   UNL     1      -0.105   0.898   6.986  0.00  0.00    +0.007 A 
ATOM     13  C   UNL     1      -0.186   2.203   6.599  0.00  0.00    +0.070 A 
ATOM     14  C   UNL     1      -1.345   2.653   5.952  0.00  0.00    +0.251 A 
ATOM     15  O   UNL     1      -1.410   3.807   5.562  0.00  0.00    -0.268 OA
ATOM     16  N   UNL     1      -2.396   1.819   5.755  0.00  0.00    -0.312 N 
ATOM     17  C   UNL     1      -3.625   2.412   5.229  0.00  0.00    +0.130 C 
ATOM     18  H   UNL     1      -2.466   2.021   1.766  0.00  0.00    +0.151 HD
ENDROOT
BRANCH   1  19
ATOM     19  C   UNL     1      -0.439   1.785   1.181  0.00  0.00    +0.163 C 
BRANCH  19  21
ATOM     20  N   UNL     1       0.783   3.863   0.629  0.00  0.00    -0.284 N 
ATOM     21  C   UNL     1      -0.389   3.269   0.928  0.00  0.00    +0.238 C 
ATOM     22  O   UNL     1      -1.404   3.930   0.994  0.00  0.00    -0.273 OA
ATOM     23  H   UNL     1       1.583   3.327   0.512  0.00  0.00    +0.155 HD
BRANCH  20  27
ATOM     24  C   UNL     1       0.973   8.004   0.206  0.00  0.00    -0.045 A 
ATOM     25  C   UNL     1       0.083   7.442   1.103  0.00  0.00    +0.006 A 
ATOM     26  C   UNL     1       0.018   6.070   1.245  0.00  0.00    +0.023 A 
ATOM     27  C   UNL     1       0.847   5.254   0.486  0.00  0.00    +0.033 A 
ATOM     28  C   UNL     1       1.743   5.821  -0.410  0.00  0.00    +0.023 A 
ATOM     29  C   UNL     1       1.800   7.194  -0.552  0.00  0.00    +0.006 A 
BRANCH  24  31
ATOM     30  C   UNL     1       2.452   9.985   0.398  0.00  0.00    +0.012 C 
ATOM     31  C   UNL     1       1.042   9.501   0.052  0.00  0.00    +0.013 C 
ATOM     32  C   UNL     1       0.712   9.882  -1.392  0.00  0.00    +0.012 C 
ENDBRANCH  24  31
ENDBRANCH  20  27
ENDBRANCH  19  21
BRANCH  19  33
ATOM     33  C   UNL     1      -0.367   1.038  -0.153  0.00  0.00    +0.012 C 
ATOM     34  C   UNL     1      -1.603   1.372  -0.991  0.00  0.00    +0.009 C 
ATOM     35  C   UNL     1      -0.321  -0.469   0.109  0.00  0.00    +0.009 C 
ENDBRANCH  19  33
ENDBRANCH   1  19
TORSDOF 5
