REMARK  Name = ZINC21353397
REMARK  7 active torsions:
REMARK  status: ('A' for Active; 'I' for Inactive)
REMARK    1  A    between atoms: C_1  and  O_2
REMARK    2  A    between atoms: O_2  and  C_3
REMARK    3  A    between atoms: C_5  and  N_22
REMARK    4  A    between atoms: C_10  and  N_12
REMARK    5  A    between atoms: N_12  and  S_13
REMARK    6  A    between atoms: S_13  and  C_16
REMARK    7  A    between atoms: C_23  and  C_25
REMARK                            x       y       z     vdW  Elec       q    Type
REMARK                         _______ _______ _______ _____ _____    ______ ____
ROOT
ATOM      1  C   UNL     1       0.599  -0.617  -1.063  0.00  0.00    +0.148 A 
ATOM      2  C   UNL     1       1.161   0.155  -2.051  0.00  0.00    +0.071 A 
ATOM      3  C   UNL     1       1.788  -0.421  -3.153  0.00  0.00    +0.038 A 
ATOM      4  C   UNL     1       1.845  -1.806  -3.253  0.00  0.00    +0.040 A 
ATOM      5  C   UNL     1       1.285  -2.581  -2.268  0.00  0.00    +0.046 A 
ATOM      6  C   UNL     1       0.646  -2.032  -1.135  0.00  0.00    +0.122 A 
ATOM      7  N   UNL     1       0.149  -2.929  -0.250  0.00  0.00    -0.218 NA
ATOM      8  C   UNL     1       0.256  -4.225  -0.427  0.00  0.00    +0.202 A 
ATOM      9  S   UNL     1       1.124  -4.328  -1.985  0.00  0.00    -0.049 S 
ENDROOT
BRANCH   3  10
ATOM     10  N   UNL     1       2.354   0.385  -4.148  0.00  0.00    -0.281 N 
ATOM     11  C   UNL     1       3.481  -0.009  -4.774  0.00  0.00    +0.248 C 
ATOM     12  O   UNL     1       3.959  -1.101  -4.536  0.00  0.00    -0.270 OA
ATOM     13  H   UNL     1       1.935   1.226  -4.387  0.00  0.00    +0.155 HD
BRANCH  11  14
ATOM     14  C   UNL     1       4.136   0.887  -5.751  0.00  0.00    +0.037 A 
ATOM     15  C   UNL     1       3.592   2.144  -6.022  0.00  0.00    +0.013 A 
ATOM     16  C   UNL     1       4.209   2.976  -6.934  0.00  0.00    +0.001 A 
ATOM     17  C   UNL     1       5.362   2.567  -7.579  0.00  0.00    +0.000 A 
ATOM     18  C   UNL     1       5.906   1.323  -7.314  0.00  0.00    +0.001 A 
ATOM     19  C   UNL     1       5.303   0.483  -6.401  0.00  0.00    +0.013 A 
ENDBRANCH  11  14
ENDBRANCH   3  10
BRANCH   1  21
ATOM     20  C   UNL     1      -0.021   1.411   0.011  0.00  0.00    +0.277 C 
ATOM     21  O   UNL     1      -0.005  -0.017  -0.003  0.00  0.00    -0.493 OA
ENDBRANCH   1  21
BRANCH   8  22
ATOM     22  N   UNL     1      -0.198  -5.249   0.382  0.00  0.00    -0.070 NA
BRANCH  22  23
ATOM     23  S   UNL     1       0.059  -6.825  -0.056  0.00  0.00    +0.093 S 
ATOM     24  O   UNL     1      -0.704  -7.048  -1.234  0.00  0.00    -0.148 OA
ATOM     25  O   UNL     1       1.463  -7.038  -0.006  0.00  0.00    -0.148 OA
BRANCH  23  26
ATOM     26  C   UNL     1      -0.649  -7.838   1.201  0.00  0.00    +0.110 A 
ATOM     27  C   UNL     1       0.113  -8.225   2.287  0.00  0.00    +0.029 A 
ATOM     28  C   UNL     1      -0.442  -9.019   3.273  0.00  0.00    +0.002 A 
ATOM     29  C   UNL     1      -1.759  -9.425   3.173  0.00  0.00    +0.000 A 
ATOM     30  C   UNL     1      -2.522  -9.037   2.087  0.00  0.00    +0.002 A 
ATOM     31  C   UNL     1      -1.968  -8.240   1.103  0.00  0.00    +0.029 A 
ENDBRANCH  23  26
ENDBRANCH  22  23
ENDBRANCH   8  22
TORSDOF 6
