REMARK  Name = ZINC08977311
REMARK  7 active torsions:
REMARK  status: ('A' for Active; 'I' for Inactive)
REMARK    1  A    between atoms: C_1  and  C_2
REMARK    2  A    between atoms: C_4  and  N_29
REMARK    3  A    between atoms: C_7  and  S_8
REMARK    4  A    between atoms: S_8  and  N_11
REMARK    5  A    between atoms: N_11  and  C_12
REMARK    6  A    between atoms: C_22  and  C_24
REMARK    7  A    between atoms: C_30  and  C_32
REMARK                            x       y       z     vdW  Elec       q    Type
REMARK                         _______ _______ _______ _____ _____    ______ ____
ROOT
ATOM      1  N   UNL     1      -2.948   5.744  -5.666  0.00  0.00    -0.216 N 
ATOM      2  H   UNL     1      -3.568   6.344  -5.222  0.00  0.00    +0.174 HD
ENDROOT
BRANCH   1   3
ATOM      3  C   UNL     1      -2.060   4.973  -4.913  0.00  0.00    +0.048 A 
ATOM      4  C   UNL     1      -0.735   4.845  -5.310  0.00  0.00    +0.025 A 
ATOM      5  C   UNL     1       0.132   4.079  -4.562  0.00  0.00    +0.006 A 
ATOM      6  C   UNL     1      -0.305   3.432  -3.412  0.00  0.00    -0.041 A 
ATOM      7  C   UNL     1      -1.616   3.565  -3.012  0.00  0.00    -0.025 A 
ATOM      8  C   UNL     1      -2.495   4.331  -3.764  0.00  0.00    +0.030 A 
ATOM      9  C   UNL     1      -2.147   2.912  -1.764  0.00  0.00    +0.143 C 
ATOM     10  N   UNL     1      -1.166   1.952  -1.247  0.00  0.00    -0.292 N 
ATOM     11  C   UNL     1       0.243   2.377  -1.214  0.00  0.00    +0.113 C 
ATOM     12  C   UNL     1       0.700   2.604  -2.654  0.00  0.00    +0.054 C 
ATOM     13  C   UNL     1      -1.539   0.727  -0.825  0.00  0.00    +0.254 C 
ATOM     14  O   UNL     1      -0.694  -0.098  -0.532  0.00  0.00    -0.269 OA
BRANCH  13  15
ATOM     15  C   UNL     1      -2.962   0.390  -0.719  0.00  0.00    +0.074 A 
ATOM     16  C   UNL     1      -3.551  -0.836  -0.457  0.00  0.00    +0.021 A 
ATOM     17  C   UNL     1      -4.923  -0.874  -0.413  0.00  0.00    +0.008 A 
ATOM     18  C   UNL     1      -5.625   0.271  -0.624  0.00  0.00    +0.046 A 
ATOM     19  S   UNL     1      -4.385   1.453  -0.887  0.00  0.00    -0.092 S 
ENDBRANCH  13  15
ENDBRANCH   1   3
BRANCH   1  20
ATOM     20  S   UNL     1      -2.945   5.634  -7.319  0.00  0.00    +0.073 S 
ATOM     21  O   UNL     1      -4.005   6.458  -7.783  0.00  0.00    -0.150 OA
ATOM     22  O   UNL     1      -1.598   5.818  -7.735  0.00  0.00    -0.150 OA
BRANCH  20  29
ATOM     23  C   UNL     1      -5.589   4.348  -6.622  0.00  0.00    +0.046 C 
ATOM     24  C   UNL     1      -4.613   3.475  -7.369  0.00  0.00    -0.022 A 
ATOM     25  C   UNL     1      -4.957   2.178  -7.695  0.00  0.00    +0.028 A 
ATOM     26  C   UNL     1      -4.055   1.373  -8.379  0.00  0.00    +0.034 A 
ATOM     27  C   UNL     1      -2.812   1.878  -8.737  0.00  0.00    +0.025 A 
ATOM     28  C   UNL     1      -2.476   3.178  -8.412  0.00  0.00    +0.031 A 
ATOM     29  C   UNL     1      -3.377   3.977  -7.731  0.00  0.00    +0.111 A 
BRANCH  26  30
ATOM     30  N   UNL     1      -4.398   0.057  -8.706  0.00  0.00    -0.286 N 
ATOM     31  C   UNL     1      -3.452  -0.902  -8.722  0.00  0.00    +0.214 C 
ATOM     32  O   UNL     1      -2.323  -0.646  -8.360  0.00  0.00    -0.276 OA
ATOM     33  C   UNL     1      -3.796  -2.293  -9.189  0.00  0.00    +0.109 C 
ATOM     34  H   UNL     1      -5.318  -0.165  -8.921  0.00  0.00    +0.155 HD
ENDBRANCH  26  30
ENDBRANCH  20  29
ENDBRANCH   1  20
TORSDOF 5
