REMARK  Name = ZINC13352313
REMARK  8 active torsions:
REMARK  status: ('A' for Active; 'I' for Inactive)
REMARK    1  A    between atoms: C_1  and  C_2
REMARK    2  A    between atoms: C_2  and  C_4
REMARK    3  A    between atoms: C_2  and  S_19
REMARK    4  A    between atoms: N_6  and  C_7
REMARK    5  A    between atoms: C_10  and  N_13
REMARK    6  A    between atoms: S_19  and  C_20
REMARK    7  A    between atoms: C_23  and  C_32
REMARK    8  A    between atoms: N_24  and  C_25
REMARK                            x       y       z     vdW  Elec       q    Type
REMARK                         _______ _______ _______ _____ _____    ______ ____
ROOT
ATOM      1  C   UNL     1       2.439   7.707   1.368  0.00  0.00    +0.029 C 
ATOM      2  C   UNL     1       1.480   7.824   0.181  0.00  0.00    +0.137 C 
ENDROOT
BRANCH   2   3
ATOM      3  C   UNL     1       0.992   9.245   0.068  0.00  0.00    +0.230 C 
ATOM      4  O   UNL     1      -0.060   9.567   0.578  0.00  0.00    -0.274 OA
ATOM      5  N   UNL     1       1.725  10.158  -0.599  0.00  0.00    -0.285 N 
ATOM      6  H   UNL     1       2.601   9.921  -0.941  0.00  0.00    +0.155 HD
BRANCH   5   7
ATOM      7  C   UNL     1       1.220  11.450  -0.800  0.00  0.00    +0.034 A 
ATOM      8  C   UNL     1      -0.143  11.643  -0.979  0.00  0.00    +0.025 A 
ATOM      9  C   UNL     1      -0.641  12.917  -1.171  0.00  0.00    +0.025 A 
ATOM     10  C   UNL     1       0.224  14.004  -1.196  0.00  0.00    +0.030 A 
ATOM     11  C   UNL     1       1.588  13.810  -1.022  0.00  0.00    +0.025 A 
ATOM     12  C   UNL     1       2.085  12.537  -0.825  0.00  0.00    +0.025 A 
BRANCH  10  13
ATOM     13  N   UNL     1      -0.280  15.293  -1.396  0.00  0.00    -0.330 N 
ATOM     14  C   UNL     1       0.120  16.189  -0.303  0.00  0.00    +0.105 C 
ATOM     15  C   UNL     1      -0.322  17.618  -0.626  0.00  0.00    +0.019 C 
ATOM     16  C   UNL     1      -1.843  17.649  -0.805  0.00  0.00    +0.003 C 
ATOM     17  C   UNL     1      -2.237  16.671  -1.916  0.00  0.00    +0.019 C 
ATOM     18  C   UNL     1      -1.739  15.270  -1.556  0.00  0.00    +0.105 C 
ENDBRANCH  10  13
ENDBRANCH   5   7
ENDBRANCH   2   3
BRANCH   2  19
ATOM     19  S   UNL     1       0.069   6.719   0.434  0.00  0.00    -0.075 S 
BRANCH  19  20
ATOM     20  C   UNL     1       0.888   5.160   0.379  0.00  0.00    +0.175 A 
ATOM     21  N   UNL     1       2.182   4.980   0.198  0.00  0.00    -0.229 NA
ATOM     22  C   UNL     1       2.467   3.681   0.217  0.00  0.00    +0.147 A 
ATOM     23  C   UNL     1       1.290   2.988   0.412  0.00  0.00    +0.156 A 
ATOM     24  N   UNL     1       0.287   3.947   0.518  0.00  0.00    -0.282 N 
BRANCH  24  25
ATOM     25  C   UNL     1      -1.078   3.710   0.728  0.00  0.00    +0.049 A 
ATOM     26  C   UNL     1      -2.002   4.053  -0.250  0.00  0.00    +0.029 A 
ATOM     27  C   UNL     1      -3.346   3.813  -0.044  0.00  0.00    +0.040 A 
ATOM     28  C   UNL     1      -3.775   3.241   1.143  0.00  0.00    +0.124 A 
ATOM     29  C   UNL     1      -2.855   2.904   2.122  0.00  0.00    +0.040 A 
ATOM     30  C   UNL     1      -1.510   3.137   1.917  0.00  0.00    +0.029 A 
ATOM     31  F   UNL     1      -5.090   3.013   1.345  0.00  0.00    -0.205 F 
ENDBRANCH  24  25
BRANCH  23  32
ATOM     32  C   UNL     1       1.135   1.582   0.493  0.00  0.00    +0.405 C 
ATOM     33  O   UNL     1       2.104   0.855   0.382  0.00  0.00    -0.239 OA
ATOM     34  O   UNL     1      -0.089   1.049   0.695  0.00  0.00    -0.239 OA
ENDBRANCH  23  32
ENDBRANCH  19  20
ENDBRANCH   2  19
TORSDOF 7
