REMARK  Name = ZINC02866159
REMARK  12 active torsions:
REMARK  status: ('A' for Active; 'I' for Inactive)
REMARK    1  A    between atoms: C_1  and  C_2
REMARK    2  A    between atoms: C_2  and  C_3
REMARK    3  A    between atoms: C_2  and  C_4
REMARK    4  A    between atoms: C_2  and  C_5
REMARK    5  A    between atoms: C_8  and  O_12
REMARK    6  A    between atoms: O_12  and  C_13
REMARK    7  A    between atoms: C_13  and  C_14
REMARK    8  A    between atoms: N_16  and  N_17
REMARK    9  A    between atoms: N_17  and  C_18
REMARK   10  A    between atoms: C_18  and  N_20
REMARK   11  A    between atoms: C_21  and  C_23
REMARK   12  A    between atoms: C_28  and  N_29
REMARK                            x       y       z     vdW  Elec       q    Type
REMARK                         _______ _______ _______ _____ _____    ______ ____
ROOT
ATOM      1  C   UNL     1       3.934  -4.794  -6.902  0.00  0.00    +0.267 C 
ATOM      2  O   UNL     1       5.111  -4.577  -7.097  0.00  0.00    -0.271 OA
ATOM      3  N   UNL     1       3.152  -5.229  -7.909  0.00  0.00    -0.232 N 
ATOM      4  H   UNL     1       2.211  -5.403  -7.753  0.00  0.00    +0.173 HD
ENDROOT
BRANCH   3   5
ATOM      5  N   UNL     1       3.700  -5.432  -9.183  0.00  0.00    -0.245 N 
ATOM      6  H   UNL     1       4.641  -5.258  -9.340  0.00  0.00    +0.172 HD
BRANCH   5   7
ATOM      7  C   UNL     1       2.918  -5.867 -10.191  0.00  0.00    +0.153 C 
ATOM      8  S   UNL     1       3.586  -6.115 -11.747  0.00  0.00    -0.017 S 
BRANCH   7   9
ATOM      9  N   UNL     1       1.610  -6.108  -9.973  0.00  0.00    -0.263 N 
ATOM     10  C   UNL     1       0.828  -6.544 -10.981  0.00  0.00    +0.252 C 
ATOM     11  O   UNL     1       1.302  -6.720 -12.086  0.00  0.00    -0.270 OA
ATOM     12  H   UNL     1       1.231  -5.968  -9.091  0.00  0.00    +0.157 HD
BRANCH  10  13
ATOM     13  C   UNL     1      -0.606  -6.808 -10.742  0.00  0.00    +0.067 A 
ATOM     14  C   UNL     1      -0.999  -7.678  -9.723  0.00  0.00    +0.015 A 
ATOM     15  C   UNL     1      -2.340  -7.920  -9.506  0.00  0.00    +0.001 A 
ATOM     16  C   UNL     1      -3.294  -7.303 -10.295  0.00  0.00    +0.002 A 
ATOM     17  C   UNL     1      -2.912  -6.441 -11.307  0.00  0.00    +0.033 A 
ATOM     18  C   UNL     1      -1.575  -6.185 -11.531  0.00  0.00    +0.138 A 
BRANCH  18  19
ATOM     19  N   UNL     1      -1.168  -5.256 -12.610  0.00  0.00    +0.057 N 
ATOM     20  O   UNL     1      -1.996  -4.813 -13.370  0.00  0.00    -0.126 OA
ATOM     21  O   UNL     1      -0.007  -4.941 -12.730  0.00  0.00    -0.126 OA
ENDBRANCH  18  19
ENDBRANCH  10  13
ENDBRANCH   7   9
ENDBRANCH   5   7
ENDBRANCH   3   5
BRANCH   1  22
ATOM     22  C   UNL     1       3.346  -4.576  -5.531  0.00  0.00    +0.326 C 
BRANCH  22  23
ATOM     23  O   UNL     1       4.366  -4.117  -4.642  0.00  0.00    -0.482 OA
BRANCH  23  27
ATOM     24  C   UNL     1       3.253  -3.370  -0.740  0.00  0.00    -0.041 A 
ATOM     25  C   UNL     1       2.314  -3.816  -1.653  0.00  0.00    +0.008 A 
ATOM     26  C   UNL     1       2.685  -4.067  -2.960  0.00  0.00    +0.047 A 
ATOM     27  C   UNL     1       3.999  -3.870  -3.357  0.00  0.00    +0.135 A 
ATOM     28  C   UNL     1       4.939  -3.422  -2.439  0.00  0.00    +0.060 A 
ATOM     29  C   UNL     1       4.562  -3.168  -1.134  0.00  0.00    +0.023 A 
ATOM     30 BR   UNL     1       6.732  -3.154  -2.976  0.00  0.00    -0.047 Br
BRANCH  24  32
ATOM     31  C   UNL     1       3.111  -1.629   1.020  0.00  0.00    +0.015 C 
ATOM     32  C   UNL     1       2.846  -3.098   0.685  0.00  0.00    -0.013 C 
ATOM     33  C   UNL     1       3.658  -3.990   1.627  0.00  0.00    +0.015 C 
ATOM     34  C   UNL     1       1.355  -3.400   0.857  0.00  0.00    +0.015 C 
ENDBRANCH  24  32
ENDBRANCH  23  27
ENDBRANCH  22  23
ENDBRANCH   1  22
TORSDOF 9
