REMARK  Name = ZINC11865478
REMARK  9 active torsions:
REMARK  status: ('A' for Active; 'I' for Inactive)
REMARK    1  A    between atoms: C_1  and  C_2
REMARK    2  A    between atoms: C_12  and  C_13
REMARK    3  A    between atoms: C_13  and  C_14
REMARK    4  A    between atoms: C_14  and  C_15
REMARK    5  A    between atoms: N_17  and  CA_18
REMARK    6  A    between atoms: CA_18  and  CB_20
REMARK    7  A    between atoms: CA_18  and  C_23
REMARK    8  A    between atoms: CB_20  and  CG1_21
REMARK    9  A    between atoms: CB_20  and  CG2_22
REMARK                            x       y       z     vdW  Elec       q    Type
REMARK                         _______ _______ _______ _____ _____    ______ ____
ROOT
ATOM      1  C   UNK A   0      -1.277  -0.801   0.009  0.00  0.00    +0.045 C 
ATOM      2  C   UNK A   0       0.002  -0.004   0.002  0.00  0.00    -0.030 A 
ATOM      3  C   UNK A   0       1.310  -0.669  -0.014  0.00  0.00    +0.022 A 
ATOM      4  C   UNK A   0       1.399  -2.061  -0.021  0.00  0.00    +0.023 A 
ATOM      5  C   UNK A   0       2.649  -2.664  -0.036  0.00  0.00    +0.024 A 
ATOM      6  C   UNK A   0       3.819  -1.875  -0.043  0.00  0.00    +0.139 A 
ATOM      7  C   UNK A   0       3.721  -0.493  -0.036  0.00  0.00    +0.093 A 
ATOM      8  C   UNK A   0       2.478   0.120  -0.021  0.00  0.00    +0.143 A 
ATOM      9  O   UNK A   0       2.393   1.467  -0.013  0.00  0.00    -0.422 OA
ATOM     10  C   UNK A   0       1.199   2.067   0.002  0.00  0.00    +0.341 A 
ATOM     11  O   UNK A   0       1.160   3.284   0.008  0.00  0.00    -0.245 OA
ATOM     12  C   UNK A   0      -0.016   1.354   0.009  0.00  0.00    +0.041 A 
ATOM     13  O   UNK A   0       4.871  -2.721  -0.058  0.00  0.00    -0.459 OA
ATOM     14  C   UNK A   0       4.462  -4.001  -0.057  0.00  0.00    +0.109 A 
ATOM     15  C   UNK A   0       3.120  -4.049  -0.045  0.00  0.00    +0.001 A 
ATOM     16  C   UNK A   0       2.303  -5.314  -0.044  0.00  0.00    +0.039 C 
ATOM     17  C   UNK A   0       3.209  -6.478  -0.464  0.00  0.00    +0.005 C 
ATOM     18  C   UNK A   0       4.499  -6.436   0.361  0.00  0.00    +0.008 C 
ATOM     19  C   UNK A   0       5.342  -5.230  -0.069  0.00  0.00    +0.075 C 
ENDROOT
BRANCH  12  20
ATOM     20  C   UNK A   0      -1.329   2.094   0.020  0.00  0.00    +0.052 C 
BRANCH  20  21
ATOM     21  C   UNK A   0      -1.767   2.336   1.466  0.00  0.00    +0.100 C 
BRANCH  21  22
ATOM     22  C   UNK A   0      -3.079   3.076   1.476  0.00  0.00    +0.214 C 
ATOM     23  O   UNK A   0      -3.613   3.379   0.430  0.00  0.00    -0.276 OA
ATOM     24  N   VAL A   1      -3.661   3.400   2.648  0.00  0.00    -0.302 N 
ATOM     25  H   VAL A   1      -3.235   3.158   3.484  0.00  0.00    +0.150 HD
BRANCH  24  26
ATOM     26  CA  VAL A   1      -4.937   4.120   2.658  0.00  0.00    +0.189 C 
BRANCH  26  27
ATOM     27  CB  VAL A   1      -5.076   4.894   3.970  0.00  0.00    +0.014 C 
ATOM     28  CG1 VAL A   1      -6.409   5.645   3.980  0.00  0.00    +0.009 C 
ATOM     29  CG2 VAL A   1      -5.032   3.916   5.146  0.00  0.00    +0.009 C 
ENDBRANCH  26  27
BRANCH  26  30
ATOM     30  C   VAL A   1      -6.071   3.134   2.534  0.00  0.00    +0.376 C 
ATOM     31  O   VAL A   1      -5.836   1.952   2.446  0.00  0.00    -0.244 OA
ATOM     32  OXT VAL A   1      -7.340   3.569   2.521  0.00  0.00    -0.244 OA
ENDBRANCH  26  30
ENDBRANCH  24  26
ENDBRANCH  21  22
ENDBRANCH  20  21
ENDBRANCH  12  20
TORSDOF 6
