REMARK  Name = ZINC08411495
REMARK  10 active torsions:
REMARK  status: ('A' for Active; 'I' for Inactive)
REMARK    1  A    between atoms: C_1  and  C_2
REMARK    2  A    between atoms: C_2  and  C_3
REMARK    3  A    between atoms: C_2  and  C_4
REMARK    4  A    between atoms: C_2  and  O_5
REMARK    5  A    between atoms: O_5  and  C_6
REMARK    6  A    between atoms: C_15  and  C_27
REMARK    7  A    between atoms: C_17  and  C_23
REMARK    8  A    between atoms: C_17  and  C_25
REMARK    9  A    between atoms: C_18  and  N_22
REMARK   10  A    between atoms: C_19  and  C_20
REMARK                            x       y       z     vdW  Elec       q    Type
REMARK                         _______ _______ _______ _____ _____    ______ ____
ROOT
ATOM      1  C   UNL     1      -0.302  -2.651   3.783  0.00  0.00    +0.404 C 
ATOM      2  O   UNL     1      -0.771  -1.554   3.551  0.00  0.00    -0.226 OA
ATOM      3  N   UNL     1       0.903  -2.988   3.283  0.00  0.00    -0.263 N 
ATOM      4  C   UNL     1       1.501  -4.310   3.544  0.00  0.00    +0.138 C 
ATOM      5  C   UNL     1       1.801  -4.934   2.205  0.00  0.00    -0.003 C 
ATOM      6  C   UNL     1       2.017  -4.193   1.155  0.00  0.00    -0.026 C 
ATOM      7  C   UNL     1       2.078  -2.694   1.144  0.00  0.00    +0.048 C 
ATOM      8  C   UNL     1       1.675  -2.056   2.454  0.00  0.00    +0.120 C 
ATOM      9  C   UNL     1       1.228  -2.186  -0.022  0.00  0.00    +0.068 C 
ATOM     10  C   UNL     1       1.837  -2.683  -1.334  0.00  0.00    +0.188 C 
ATOM     11  C   UNL     1       2.094  -4.160  -1.300  0.00  0.00    +0.054 C 
ATOM     12  C   UNL     1       2.191  -4.879  -0.154  0.00  0.00    +0.074 C 
ENDROOT
BRANCH   9  13
ATOM     13  C   UNL     1       1.208  -0.679  -0.014  0.00  0.00    -0.040 A 
ATOM     14  C   UNL     1       0.019  -0.003  -0.212  0.00  0.00    +0.004 A 
ATOM     15  C   UNL     1       0.001   1.379  -0.204  0.00  0.00    +0.001 A 
ATOM     16  C   UNL     1       1.171   2.086   0.002  0.00  0.00    +0.015 A 
ATOM     17  C   UNL     1       2.361   1.409   0.201  0.00  0.00    +0.018 A 
ATOM     18  C   UNL     1       2.379   0.026   0.193  0.00  0.00    +0.019 A 
ATOM     19 BR   UNL     1       3.962   2.374   0.485  0.00  0.00    -0.050 Br
ENDBRANCH   9  13
BRANCH  11  20
ATOM     20  N   UNL     1       2.235  -4.818  -2.489  0.00  0.00    -0.358 N 
ATOM     21  H   UNL     1       2.424  -5.901  -2.499  0.00  0.00    +0.142 HD
ATOM     22  H   UNL     1       2.159  -4.264  -3.437  0.00  0.00    +0.142 HD
ENDBRANCH  11  20
BRANCH  12  23
ATOM     23  C   UNL     1       2.459  -6.285  -0.203  0.00  0.00    +0.101 C 
ATOM     24  N   UNL     1       2.671  -7.400  -0.242  0.00  0.00    -0.191 NA
ENDBRANCH  12  23
BRANCH  10  25
ATOM     25  C   UNL     1       0.911  -2.379  -2.438  0.00  0.00    +0.091 C 
ATOM     26  N   UNL     1       0.197  -2.145  -3.290  0.00  0.00    -0.194 NA
ENDBRANCH  10  25
BRANCH  10  27
ATOM     27  C   UNL     1       3.109  -1.981  -1.570  0.00  0.00    +0.091 C 
ATOM     28  N   UNL     1       4.091  -1.440  -1.751  0.00  0.00    -0.194 NA
ENDBRANCH  10  27
BRANCH   1  29
ATOM     29  O   UNL     1      -0.987  -3.529   4.540  0.00  0.00    -0.445 OA
BRANCH  29  31
ATOM     30  C   UNL     1      -3.199  -2.762   3.871  0.00  0.00    +0.055 C 
ATOM     31  C   UNL     1      -2.278  -3.097   5.046  0.00  0.00    +0.107 C 
ATOM     32  C   UNL     1      -2.900  -4.220   5.878  0.00  0.00    +0.055 C 
ATOM     33  C   UNL     1      -2.094  -1.856   5.921  0.00  0.00    +0.055 C 
ENDBRANCH  29  31
ENDBRANCH   1  29
TORSDOF 7
