REMARK  Name = ZINC64590223
REMARK  9 active torsions:
REMARK  status: ('A' for Active; 'I' for Inactive)
REMARK    1  A    between atoms: C_1  and  C_2
REMARK    2  A    between atoms: C_6  and  N_9
REMARK    3  A    between atoms: C_7  and  C_8
REMARK    4  A    between atoms: N_12  and  C_15
REMARK    5  A    between atoms: C_18  and  N_24
REMARK    6  A    between atoms: C_19  and  C_21
REMARK    7  A    between atoms: C_25  and  C_27
REMARK    8  A    between atoms: C_30  and  O_33
REMARK    9  A    between atoms: O_33  and  C_34
REMARK                            x       y       z     vdW  Elec       q    Type
REMARK                         _______ _______ _______ _____ _____    ______ ____
ROOT
ATOM      1  C   UNL     1       0.244  -5.573   5.028  0.00  0.00    +0.031 A 
ATOM      2  C   UNL     1      -0.965  -5.802   5.680  0.00  0.00    +0.025 A 
ATOM      3  C   UNL     1      -0.999  -6.531   6.850  0.00  0.00    +0.026 A 
ATOM      4  C   UNL     1       0.174  -7.044   7.387  0.00  0.00    +0.048 A 
ATOM      5  C   UNL     1       1.397  -6.818   6.736  0.00  0.00    +0.086 A 
ATOM      6  C   UNL     1       1.421  -6.082   5.547  0.00  0.00    +0.040 A 
ENDROOT
BRANCH   1  10
ATOM      7  N   UNL     1       0.345  -2.515   2.392  0.00  0.00    -0.327 N 
ATOM      8  C   UNL     1      -0.932  -2.868   3.029  0.00  0.00    +0.124 C 
ATOM      9  C   UNL     1      -0.985  -4.390   3.211  0.00  0.00    +0.124 C 
ATOM     10  N   UNL     1       0.267  -4.831   3.842  0.00  0.00    -0.327 N 
ATOM     11  C   UNL     1       1.544  -4.478   3.206  0.00  0.00    +0.124 C 
ATOM     12  C   UNL     1       1.597  -2.961   3.020  0.00  0.00    +0.124 C 
BRANCH   7  18
ATOM     13  C   UNL     1       0.503   1.847   0.135  0.00  0.00    +0.044 C 
ATOM     14  C   UNL     1       0.445   0.343   0.084  0.00  0.00    -0.046 A 
ATOM     15  C   UNL     1       0.414  -0.307  -1.137  0.00  0.00    +0.004 A 
ATOM     16  C   UNL     1       0.360  -1.687  -1.188  0.00  0.00    +0.002 A 
ATOM     17  C   UNL     1       0.337  -2.423  -0.019  0.00  0.00    +0.023 A 
ATOM     18  C   UNL     1       0.368  -1.774   1.208  0.00  0.00    +0.033 A 
ATOM     19  C   UNL     1       0.427  -0.387   1.256  0.00  0.00    -0.027 A 
ATOM     20  C   UNL     1       0.467   0.321   2.586  0.00  0.00    +0.046 C 
ENDBRANCH   7  18
ENDBRANCH   1  10
BRANCH   4  21
ATOM     21  N   UNL     1       0.138  -7.780   8.569  0.00  0.00    -0.281 N 
ATOM     22  C   UNL     1      -0.908  -8.589   8.827  0.00  0.00    +0.248 C 
ATOM     23  O   UNL     1      -1.857  -8.617   8.068  0.00  0.00    -0.270 OA
ATOM     24  H   UNL     1       0.866  -7.710   9.206  0.00  0.00    +0.155 HD
BRANCH  22  25
ATOM     25  C   UNL     1      -0.902  -9.441  10.032  0.00  0.00    +0.037 A 
ATOM     26  C   UNL     1       0.185  -9.406  10.910  0.00  0.00    +0.016 A 
ATOM     27  C   UNL     1       0.186 -10.203  12.033  0.00  0.00    +0.046 A 
ATOM     28  C   UNL     1      -0.891 -11.041  12.294  0.00  0.00    +0.120 A 
ATOM     29  C   UNL     1      -1.974 -11.079  11.424  0.00  0.00    +0.046 A 
ATOM     30  C   UNL     1      -1.987 -10.280  10.302  0.00  0.00    +0.016 A 
BRANCH  28  31
ATOM     31  O   UNL     1      -0.886 -11.824  13.402  0.00  0.00    -0.495 OA
ATOM     32  C   UNL     1      -2.025 -12.661  13.611  0.00  0.00    +0.277 C 
ENDBRANCH  28  31
ENDBRANCH  22  25
ENDBRANCH   4  21
BRANCH   5  33
ATOM     33  C   UNL     1       2.646  -7.357   7.297  0.00  0.00    +0.388 C 
ATOM     34  O   UNL     1       3.720  -7.075   6.783  0.00  0.00    -0.241 OA
ATOM     35  O   UNL     1       2.610  -8.087   8.278  0.00  0.00    -0.241 OA
ENDBRANCH   5  33
TORSDOF 6
