REMARK  Name = ZINC12384474
REMARK  7 active torsions:
REMARK  status: ('A' for Active; 'I' for Inactive)
REMARK    1  A    between atoms: C_1  and  C_2
REMARK    2  A    between atoms: C_2  and  C_22
REMARK    3  A    between atoms: C_3  and  C_10
REMARK    4  A    between atoms: C_7  and  C_8
REMARK    5  A    between atoms: C_7  and  C_9
REMARK    6  A    between atoms: N_12  and  N_13
REMARK    7  A    between atoms: C_14  and  C_16
REMARK                            x       y       z     vdW  Elec       q    Type
REMARK                         _______ _______ _______ _____ _____    ______ ____
ROOT
ATOM      1  C   UNL     1      -2.450   0.474  -0.196  0.00  0.00    +0.233 C 
ATOM      2  O   UNL     1      -2.799   1.327   0.593  0.00  0.00    -0.274 OA
ATOM      3  N   UNL     1      -2.978   0.446  -1.435  0.00  0.00    -0.234 N 
ATOM      4  H   UNL     1      -2.698  -0.236  -2.066  0.00  0.00    +0.173 HD
ENDROOT
BRANCH   1   7
ATOM      5  C   UNL     1       0.022   1.443  -0.302  0.00  0.00    +0.024 C 
ATOM      6  C   UNL     1      -0.006  -0.081  -0.172  0.00  0.00    +0.085 C 
ATOM      7  C   UNL     1      -1.425  -0.553   0.210  0.00  0.00    +0.094 C 
ATOM      8  C   UNL     1      -1.375  -0.694   1.752  0.00  0.00    +0.014 C 
ATOM      9  C   UNL     1       0.045  -1.261   1.998  0.00  0.00    +0.008 C 
ATOM     10  C   UNL     1       0.928  -0.531   0.965  0.00  0.00    -0.019 C 
ATOM     11  C   UNL     1       1.593   0.686   1.609  0.00  0.00    +0.012 C 
ATOM     12  C   UNL     1       1.994  -1.484   0.420  0.00  0.00    +0.012 C 
BRANCH   6  13
ATOM     13  C   UNL     1       0.417  -0.717  -1.471  0.00  0.00    +0.363 C 
ATOM     14  O   UNL     1       0.730  -0.017  -2.419  0.00  0.00    -0.246 OA
ATOM     15  O   UNL     1       0.448  -1.932  -1.574  0.00  0.00    -0.246 OA
ENDBRANCH   6  13
ENDBRANCH   1   7
BRANCH   3  16
ATOM     16  N   UNL     1      -3.930   1.401  -1.813  0.00  0.00    -0.230 N 
ATOM     17  C   UNL     1      -4.459   1.373  -3.053  0.00  0.00    +0.260 C 
ATOM     18  O   UNL     1      -4.108   0.518  -3.843  0.00  0.00    -0.269 OA
ATOM     19  H   UNL     1      -4.210   2.083  -1.182  0.00  0.00    +0.173 HD
BRANCH  17  20
ATOM     20  C   UNL     1      -5.464   2.381  -3.451  0.00  0.00    +0.038 A 
ATOM     21  C   UNL     1      -5.864   3.366  -2.548  0.00  0.00    +0.013 A 
ATOM     22  C   UNL     1      -6.803   4.304  -2.926  0.00  0.00    +0.001 A 
ATOM     23  C   UNL     1      -7.347   4.269  -4.197  0.00  0.00    +0.000 A 
ATOM     24  C   UNL     1      -6.955   3.294  -5.098  0.00  0.00    +0.001 A 
ATOM     25  C   UNL     1      -6.013   2.354  -4.734  0.00  0.00    +0.013 A 
ENDBRANCH  17  20
ENDBRANCH   3  16
TORSDOF 4
