REMARK  Name = ZINC40532897
REMARK  4 active torsions:
REMARK  status: ('A' for Active; 'I' for Inactive)
REMARK    1  A    between atoms: C_1  and  C_2
REMARK    2  A    between atoms: C_5  and  C_20
REMARK    3  A    between atoms: C_7  and  N_8
REMARK    4  A    between atoms: N_11  and  C_12
REMARK                            x       y       z     vdW  Elec       q    Type
REMARK                         _______ _______ _______ _____ _____    ______ ____
ROOT
ATOM      1  N   UNL     1       0.025  -0.006   2.417  0.00  0.00    -0.269 N 
ATOM      2  C   UNL     1      -0.057  -0.681   3.581  0.00  0.00    +0.304 C 
ATOM      3  O   UNL     1      -0.040  -1.897   3.582  0.00  0.00    -0.253 OA
ATOM      4  N   UNL     1      -0.156  -0.009   4.745  0.00  0.00    -0.295 N 
ATOM      5  H   UNL     1       0.078   0.962   2.421  0.00  0.00    +0.156 HD
ATOM      6  H   UNL     1      -0.169   0.961   4.745  0.00  0.00    +0.151 HD
ENDROOT
BRANCH   1  13
ATOM      7  C   UNL     1      -1.265   1.184   0.183  0.00  0.00    +0.045 C 
ATOM      8  C   UNL     1      -0.586  -0.158   0.085  0.00  0.00    -0.029 A 
ATOM      9  C   UNL     1      -0.576  -0.839  -1.118  0.00  0.00    +0.006 A 
ATOM     10  C   UNL     1       0.044  -2.067  -1.216  0.00  0.00    +0.015 A 
ATOM     11  C   UNL     1       0.664  -2.628  -0.096  0.00  0.00    +0.065 A 
ATOM     12  C   UNL     1       0.654  -1.939   1.118  0.00  0.00    +0.038 A 
ATOM     13  C   UNL     1       0.033  -0.703   1.204  0.00  0.00    +0.038 A 
BRANCH  11  14
ATOM     14  C   UNL     1       1.327  -3.942  -0.197  0.00  0.00    +0.387 C 
ATOM     15  O   UNL     1       1.335  -4.543  -1.262  0.00  0.00    -0.241 OA
ATOM     16  O   UNL     1       1.870  -4.430   0.784  0.00  0.00    -0.241 OA
ENDBRANCH  11  14
ENDBRANCH   1  13
BRANCH   4  17
ATOM     17  C   UNL     1      -0.245  -0.742   6.010  0.00  0.00    +0.097 C 
ATOM     18  C   UNL     1      -1.712  -1.101   6.300  0.00  0.00    +0.046 C 
ATOM     19  C   UNL     1      -1.857  -1.583   7.764  0.00  0.00    +0.168 C 
ATOM     20  S   UNL     1      -0.488  -0.700   8.618  0.00  0.00    -0.029 S 
ATOM     21  O   UNL     1      -1.041   0.276   9.490  0.00  0.00    -0.174 OA
ATOM     22  O   UNL     1       0.430  -1.655   9.131  0.00  0.00    -0.174 OA
ATOM     23  C   UNL     1       0.274   0.151   7.173  0.00  0.00    +0.188 C 
ENDBRANCH   4  17
TORSDOF 3
