REMARK  Name = ZINC12446477
REMARK  6 active torsions:
REMARK  status: ('A' for Active; 'I' for Inactive)
REMARK    1  A    between atoms: C_3  and  N_10
REMARK    2  A    between atoms: C_5  and  C_6
REMARK    3  A    between atoms: C_14  and  N_17
REMARK    4  A    between atoms: C_18  and  C_20
REMARK    5  A    between atoms: C_20  and  C_21
REMARK    6  A    between atoms: C_21  and  C_22
REMARK                            x       y       z     vdW  Elec       q    Type
REMARK                         _______ _______ _______ _____ _____    ______ ____
ROOT
ATOM      1  N   UNL     1      -2.561   5.590  -0.546  0.00  0.00    -0.315 N 
ATOM      2  C   UNL     1      -2.494   6.097   0.830  0.00  0.00    +0.106 C 
ATOM      3  C   UNL     1      -1.176   5.660   1.473  0.00  0.00    +0.021 C 
ATOM      4  C   UNL     1      -1.094   4.130   1.468  0.00  0.00    +0.025 C 
ATOM      5  C   UNL     1      -1.214   3.626   0.028  0.00  0.00    +0.090 C 
ATOM      6  C   UNL     1      -2.531   4.122  -0.573  0.00  0.00    +0.128 C 
ENDROOT
BRANCH   1   9
ATOM      7  C   UNL     1      -5.015   7.923  -1.942  0.00  0.00    +0.017 A 
ATOM      8  C   UNL     1      -3.893   7.451  -1.285  0.00  0.00    +0.042 A 
ATOM      9  C   UNL     1      -3.685   6.078  -1.203  0.00  0.00    +0.099 A 
ATOM     10  C   UNL     1      -5.626   5.653  -2.376  0.00  0.00    +0.096 A 
ATOM     11  C   UNL     1      -5.895   7.002  -2.496  0.00  0.00    +0.071 A 
ATOM     12  N   UNL     1      -4.531   5.154  -1.744  0.00  0.00    -0.349 N 
ATOM     13  H   UNL     1      -4.352   4.145  -1.677  0.00  0.00    +0.167 HD
BRANCH  11  14
ATOM     14  C   UNL     1      -7.130   7.471  -3.221  0.00  0.00    +0.419 C 
ATOM     15  F   UNL     1      -6.835   7.650  -4.577  0.00  0.00    -0.166 F 
ATOM     16  F   UNL     1      -8.141   6.514  -3.086  0.00  0.00    -0.166 F 
ATOM     17  F   UNL     1      -7.560   8.684  -2.673  0.00  0.00    -0.166 F 
ENDBRANCH  11  14
ENDBRANCH   1   9
BRANCH   5  18
ATOM     18  N   UNL     1      -1.195   2.161   0.019  0.00  0.00    -0.311 N 
ATOM     19  C   UNL     1      -0.018   1.503   0.010  0.00  0.00    +0.214 C 
ATOM     20  O   UNL     1       1.024   2.123   0.004  0.00  0.00    -0.276 OA
ATOM     21  H   UNL     1      -2.028   1.664   0.021  0.00  0.00    +0.149 HD
BRANCH  19  22
ATOM     22  C   UNL     1       0.002  -0.004   0.002  0.00  0.00    +0.102 C 
BRANCH  22  23
ATOM     23  C   UNL     1       1.451  -0.494  -0.015  0.00  0.00    +0.064 C 
BRANCH  23  24
ATOM     24  C   UNL     1       1.472  -2.001  -0.023  0.00  0.00    +0.040 A 
ATOM     25  C   UNL     1       1.372  -2.791  -1.108  0.00  0.00    -0.004 A 
ATOM     26  C   UNL     1       1.436  -4.128  -0.680  0.00  0.00    +0.066 A 
ATOM     27  N   UNL     1       1.563  -4.135   0.616  0.00  0.00    -0.178 NA
ATOM     28  N   UNL     1       1.587  -2.804   1.059  0.00  0.00    -0.281 N 
ATOM     29  H   UNL     1       1.675  -2.502   2.008  0.00  0.00    +0.189 HD
ATOM     30  C   UNL     1       1.355  -5.308  -1.618  0.00  0.00    +0.057 C 
ATOM     31  C   UNL     1       0.782  -4.816  -2.955  0.00  0.00    +0.007 C 
ATOM     32  C   UNL     1       1.569  -3.592  -3.430  0.00  0.00    +0.005 C 
ATOM     33  C   UNL     1       1.224  -2.382  -2.552  0.00  0.00    +0.039 C 
ENDBRANCH  23  24
ENDBRANCH  22  23
ENDBRANCH  19  22
ENDBRANCH   5  18
TORSDOF 6
