REMARK  Name = ZINC09381924
REMARK  4 active torsions:
REMARK  status: ('A' for Active; 'I' for Inactive)
REMARK    1  A    between atoms: C_3  and  S_22
REMARK    2  A    between atoms: C_6  and  C_7
REMARK    3  A    between atoms: N_9  and  N_10
REMARK    4  A    between atoms: S_22  and  N_25
REMARK                            x       y       z     vdW  Elec       q    Type
REMARK                         _______ _______ _______ _____ _____    ______ ____
ROOT
ATOM      1  C   UNL     1       1.250  -2.160  -0.021  0.00  0.00    +0.260 C 
ATOM      2  O   UNL     1       0.208  -2.788  -0.014  0.00  0.00    -0.269 OA
ATOM      3  N   UNL     1       2.429  -2.812  -0.036  0.00  0.00    -0.231 N 
ATOM      4  H   UNL     1       3.260  -2.312  -0.041  0.00  0.00    +0.173 HD
ENDROOT
BRANCH   3   5
ATOM      5  N   UNL     1       2.455  -4.213  -0.043  0.00  0.00    -0.242 N 
ATOM      6  C   UNL     1       3.664  -4.881  -0.058  0.00  0.00    +0.176 A 
ATOM      7  N   UNL     1       4.879  -4.385  -0.073  0.00  0.00    -0.221 NA
ATOM      8  C   UNL     1       5.983  -5.167  -0.083  0.00  0.00    +0.116 A 
ATOM      9  C   UNL     1       7.339  -4.762  -0.095  0.00  0.00    +0.152 A 
ATOM     10  C   UNL     1       8.348  -5.692  -0.109  0.00  0.00    +0.079 A 
ATOM     11  C   UNL     1       8.077  -7.055  -0.114  0.00  0.00    +0.127 A 
ATOM     12  C   UNL     1       6.761  -7.484  -0.102  0.00  0.00    +0.055 A 
ATOM     13  C   UNL     1       5.746  -6.559  -0.087  0.00  0.00    +0.046 A 
ATOM     14  S   UNL     1       3.971  -6.642  -0.070  0.00  0.00    -0.051 S 
ATOM     15  F   UNL     1       9.088  -7.952  -0.128  0.00  0.00    -0.205 F 
ATOM     16  F   UNL     1       7.644  -3.446  -0.092  0.00  0.00    -0.203 F 
ATOM     17  H   UNL     1       1.624  -4.714  -0.037  0.00  0.00    +0.172 HD
ENDBRANCH   3   5
BRANCH   1  23
ATOM     18  C   UNL     1       0.002  -0.004   0.002  0.00  0.00    +0.015 A 
ATOM     19  C   UNL     1      -0.017   1.375   0.010  0.00  0.00    +0.029 A 
ATOM     20  C   UNL     1       1.170   2.086   0.002  0.00  0.00    +0.106 A 
ATOM     21  C   UNL     1       2.383   1.420  -0.013  0.00  0.00    +0.029 A 
ATOM     22  C   UNL     1       2.416   0.041  -0.021  0.00  0.00    +0.015 A 
ATOM     23  C   UNL     1       1.222  -0.682  -0.013  0.00  0.00    +0.038 A 
BRANCH  20  24
ATOM     24  S   UNL     1       1.137   3.848   0.011  0.00  0.00    +0.061 S 
ATOM     25  O   UNL     1       2.370   4.280  -0.549  0.00  0.00    -0.153 OA
ATOM     26  O   UNL     1      -0.120   4.234  -0.526  0.00  0.00    -0.153 OA
BRANCH  24  27
ATOM     27  N   UNL     1       1.143   4.330   1.596  0.00  0.00    -0.177 NA
ATOM     28  C   UNL     1      -0.118   4.530   2.322  0.00  0.00    +0.109 C 
ATOM     29  C   UNL     1      -0.077   3.696   3.612  0.00  0.00    +0.017 C 
ATOM     30  C   UNL     1       1.174   4.067   4.412  0.00  0.00    +0.003 C 
ATOM     31  C   UNL     1       2.423   3.743   3.589  0.00  0.00    +0.017 C 
ATOM     32  C   UNL     1       2.410   4.571   2.300  0.00  0.00    +0.109 C 
ENDBRANCH  24  27
ENDBRANCH  20  24
ENDBRANCH   1  23
TORSDOF 4
