REMARK  Name = ZINC37588276
REMARK  3 active torsions:
REMARK  status: ('A' for Active; 'I' for Inactive)
REMARK    1  A    between atoms: C_3  and  C_8
REMARK    2  A    between atoms: C_19  and  N_22
REMARK    3  A    between atoms: N_25  and  C_26
REMARK                            x       y       z     vdW  Elec       q    Type
REMARK                         _______ _______ _______ _____ _____    ______ ____
ROOT
ATOM      1  C   UNL     1       3.784   2.402  -0.305  0.00  0.00    +0.247 C 
ATOM      2  O   UNL     1       3.801   3.608  -0.453  0.00  0.00    -0.270 OA
ATOM      3  N   UNL     1       4.942   1.722  -0.181  0.00  0.00    -0.295 N 
ATOM      4  C   UNL     1       4.944   0.254  -0.123  0.00  0.00    +0.127 C 
ATOM      5  C   UNL     1       5.870  -0.279  -1.223  0.00  0.00    +0.125 C 
ATOM      6  N   UNL     1       7.152   0.435  -1.145  0.00  0.00    -0.314 N 
ATOM      7  C   UNL     1       7.150   1.903  -1.203  0.00  0.00    +0.125 C 
ATOM      8  C   UNL     1       6.224   2.436  -0.108  0.00  0.00    +0.127 C 
ATOM      9  C   UNL     1       8.348  -0.267  -1.017  0.00  0.00    +0.099 A 
ATOM     10  C   UNL     1       8.342  -1.656  -1.099  0.00  0.00    +0.043 A 
ATOM     11  C   UNL     1       9.535  -2.343  -0.971  0.00  0.00    +0.028 A 
ATOM     12  C   UNL     1      10.703  -1.613  -0.763  0.00  0.00    +0.051 A 
ATOM     13  C   UNL     1      10.633  -0.230  -0.692  0.00  0.00    +0.107 A 
ATOM     14  N   UNL     1       9.477   0.394  -0.823  0.00  0.00    -0.348 N 
ATOM     15  H   UNL     1       9.455   1.363  -0.773  0.00  0.00    +0.167 HD
ENDROOT
BRANCH   1  18
ATOM     16  C   UNL     1       1.145  -0.118   0.584  0.00  0.00    +0.002 A 
ATOM     17  C   UNL     1       2.351   0.551   0.547  0.00  0.00    +0.013 A 
ATOM     18  C   UNL     1       2.495   1.680  -0.261  0.00  0.00    +0.038 A 
ATOM     19  C   UNL     1       1.416   2.125  -1.028  0.00  0.00    +0.033 A 
ATOM     20  C   UNL     1       0.215   1.446  -0.982  0.00  0.00    +0.042 A 
ATOM     21  C   UNL     1       0.079   0.327  -0.177  0.00  0.00    +0.020 A 
ATOM     22 CL   UNL     1      -1.129   1.997  -1.933  0.00  0.00    -0.084 Cl
ENDBRANCH   1  18
BRANCH  12  23
ATOM     23  N   UNL     1      11.935  -2.268  -0.627  0.00  0.00    -0.268 N 
ATOM     24  C   UNL     1      12.129  -3.467  -1.210  0.00  0.00    +0.308 C 
ATOM     25  O   UNL     1      11.266  -3.943  -1.923  0.00  0.00    -0.252 OA
ATOM     26  N   UNL     1      13.278  -4.140  -1.004  0.00  0.00    -0.267 N 
ATOM     27  H   UNL     1      12.649  -1.858  -0.113  0.00  0.00    +0.156 HD
ATOM     28  H   UNL     1      13.935  -3.797  -0.378  0.00  0.00    +0.156 HD
BRANCH  26  29
ATOM     29  C   UNL     1      13.525  -5.335  -1.694  0.00  0.00    +0.070 A 
ATOM     30  C   UNL     1      13.044  -5.504  -2.985  0.00  0.00    +0.029 A 
ATOM     31  C   UNL     1      13.288  -6.683  -3.663  0.00  0.00    +0.040 A 
ATOM     32  C   UNL     1      14.011  -7.696  -3.057  0.00  0.00    +0.126 A 
ATOM     33  C   UNL     1      14.493  -7.531  -1.769  0.00  0.00    +0.078 A 
ATOM     34  C   UNL     1      14.256  -6.351  -1.088  0.00  0.00    +0.147 A 
ATOM     35  F   UNL     1      14.730  -6.187   0.166  0.00  0.00    -0.203 F 
ATOM     36  F   UNL     1      14.248  -8.848  -3.723  0.00  0.00    -0.205 F 
ENDBRANCH  26  29
ENDBRANCH  12  23
TORSDOF 3
