REMARK  Name = ZINC35559487
REMARK  7 active torsions:
REMARK  status: ('A' for Active; 'I' for Inactive)
REMARK    1  A    between atoms: C_1  and  C_2
REMARK    2  A    between atoms: N_4  and  C_5
REMARK    3  A    between atoms: C_8  and  S_11
REMARK    4  A    between atoms: S_11  and  N_14
REMARK    5  A    between atoms: C_23  and  C_25
REMARK    6  A    between atoms: C_25  and  C_26
REMARK    7  A    between atoms: N_28  and  C_29
REMARK                            x       y       z     vdW  Elec       q    Type
REMARK                         _______ _______ _______ _____ _____    ______ ____
ROOT
ATOM      1  N   UNL     1      -2.200  -6.615  -1.048  0.00  0.00    -0.168 NA
ATOM      2  C   UNL     1      -3.167  -6.795   0.048  0.00  0.00    +0.115 C 
ATOM      3  C   UNL     1      -4.447  -6.049  -0.328  0.00  0.00    +0.052 C 
ATOM      4  C   UNL     1      -4.860  -6.370  -1.740  0.00  0.00    -0.041 A 
ATOM      5  C   UNL     1      -6.184  -6.135  -2.093  0.00  0.00    +0.004 A 
ATOM      6  C   UNL     1      -6.626  -6.398  -3.372  0.00  0.00    +0.000 A 
ATOM      7  C   UNL     1      -5.746  -6.899  -4.314  0.00  0.00    +0.000 A 
ATOM      8  C   UNL     1      -4.433  -7.138  -3.965  0.00  0.00    +0.005 A 
ATOM      9  C   UNL     1      -3.988  -6.879  -2.676  0.00  0.00    -0.025 A 
ATOM     10  C   UNL     1      -2.550  -7.181  -2.355  0.00  0.00    +0.119 C 
ENDROOT
BRANCH   1  11
ATOM     11  S   UNL     1      -0.778  -5.799  -0.816  0.00  0.00    +0.061 S 
ATOM     12  O   UNL     1       0.080  -6.166  -1.887  0.00  0.00    -0.153 OA
ATOM     13  O   UNL     1      -0.420  -5.987   0.546  0.00  0.00    -0.153 OA
BRANCH  11  17
ATOM     14  C   UNL     1      -1.666  -1.387  -1.322  0.00  0.00    +0.033 A 
ATOM     15  C   UNL     1      -1.669  -1.957  -0.056  0.00  0.00    +0.025 A 
ATOM     16  C   UNL     1      -1.397  -3.302   0.096  0.00  0.00    +0.030 A 
ATOM     17  C   UNL     1      -1.123  -4.083  -1.013  0.00  0.00    +0.106 A 
ATOM     18  C   UNL     1      -1.119  -3.519  -2.275  0.00  0.00    +0.030 A 
ATOM     19  C   UNL     1      -1.396  -2.175  -2.434  0.00  0.00    +0.025 A 
BRANCH  14  23
ATOM     20  C   UNL     1      -2.953   1.870  -2.707  0.00  0.00    +0.109 C 
ATOM     21  C   UNL     1      -2.639   0.404  -2.549  0.00  0.00    +0.214 C 
ATOM     22  O   UNL     1      -3.015  -0.390  -3.385  0.00  0.00    -0.276 OA
ATOM     23  N   UNL     1      -1.940  -0.024  -1.479  0.00  0.00    -0.286 N 
ATOM     24  H   UNL     1      -1.628   0.613  -0.817  0.00  0.00    +0.155 HD
ENDBRANCH  14  23
ENDBRANCH  11  17
ENDBRANCH   1  11
BRANCH  10  25
ATOM     25  C   UNL     1      -1.650  -6.571  -3.432  0.00  0.00    +0.121 C 
BRANCH  25  26
ATOM     26  C   UNL     1      -0.447  -7.455  -3.640  0.00  0.00    +0.215 C 
ATOM     27  O   UNL     1      -0.361  -8.511  -3.051  0.00  0.00    -0.276 OA
ATOM     28  N   UNL     1       0.533  -7.071  -4.482  0.00  0.00    -0.312 N 
ATOM     29  H   UNL     1       0.464  -6.226  -4.953  0.00  0.00    +0.149 HD
BRANCH  28  30
ATOM     30  C   UNL     1       1.702  -7.930  -4.684  0.00  0.00    +0.073 C 
ATOM     31  C   UNL     1       2.735  -7.652  -3.590  0.00  0.00    +0.022 C 
ATOM     32  C   UNL     1       3.956  -8.549  -3.802  0.00  0.00    +0.002 C 
ATOM     33  C   UNL     1       4.573  -8.256  -5.170  0.00  0.00    +0.000 C 
ATOM     34  C   UNL     1       3.541  -8.533  -6.265  0.00  0.00    +0.002 C 
ATOM     35  C   UNL     1       2.319  -7.636  -6.053  0.00  0.00    +0.022 C 
ENDBRANCH  28  30
ENDBRANCH  25  26
ENDBRANCH  10  25
TORSDOF 6
