REMARK  Name = ZINC30017796
REMARK  6 active torsions:
REMARK  status: ('A' for Active; 'I' for Inactive)
REMARK    1  A    between atoms: C_1  and  C_2
REMARK    2  A    between atoms: C_7  and  C_10
REMARK    3  A    between atoms: C_14  and  C_17
REMARK    4  A    between atoms: N_19  and  N_20
REMARK    5  A    between atoms: C_21  and  C_23
REMARK    6  A    between atoms: C_23  and  C_24
REMARK                            x       y       z     vdW  Elec       q    Type
REMARK                         _______ _______ _______ _____ _____    ______ ____
ROOT
ATOM      1  C   UNL     1       6.594   5.113   0.102  0.00  0.00    +0.262 C 
ATOM      2  O   UNL     1       6.807   6.309   0.057  0.00  0.00    -0.269 OA
ATOM      3  N   UNL     1       7.623   4.248   0.195  0.00  0.00    -0.230 N 
ATOM      4  H   UNL     1       7.431   3.165   0.235  0.00  0.00    +0.173 HD
ENDROOT
BRANCH   1  16
ATOM      5  C   UNL     1      -0.731   1.580   1.266  0.00  0.00    +0.039 C 
ATOM      6  C   UNL     1      -0.013   1.086   0.008  0.00  0.00    +0.133 C 
ATOM      7  C   UNL     1       1.423   1.617  -0.003  0.00  0.00    +0.137 C 
ATOM      8  N   UNL     1       1.397   3.085  -0.073  0.00  0.00    -0.310 N 
ATOM      9  C   UNL     1       0.683   3.537  -1.276  0.00  0.00    +0.137 C 
ATOM     10  C   UNL     1      -0.745   2.986  -1.252  0.00  0.00    +0.133 C 
ATOM     11  O   UNL     1      -0.700   1.560  -1.153  0.00  0.00    -0.371 OA
ATOM     12  C   UNL     1      -1.468   3.387  -2.540  0.00  0.00    +0.039 C 
ATOM     13  C   UNL     1       2.679   3.607  -0.030  0.00  0.00    +0.121 A 
ATOM     14  C   UNL     1       2.861   4.987  -0.091  0.00  0.00    +0.044 A 
ATOM     15  C   UNL     1       4.129   5.500  -0.044  0.00  0.00    +0.018 A 
ATOM     16  C   UNL     1       5.208   4.608   0.054  0.00  0.00    +0.056 A 
ATOM     17  C   UNL     1       4.952   3.237   0.104  0.00  0.00    +0.126 A 
ATOM     18  N   UNL     1       3.716   2.786   0.061  0.00  0.00    -0.240 NA
ENDBRANCH   1  16
BRANCH   3  19
ATOM     19  N   UNL     1       8.939   4.727   0.240  0.00  0.00    -0.234 N 
ATOM     20  C   UNL     1       9.969   3.862   0.333  0.00  0.00    +0.230 C 
ATOM     21  O   UNL     1       9.756   2.668   0.378  0.00  0.00    -0.274 OA
ATOM     22  H   UNL     1       9.132   5.809   0.200  0.00  0.00    +0.173 HD
BRANCH  20  23
ATOM     23  C   UNL     1      11.384   4.377   0.382  0.00  0.00    +0.104 C 
BRANCH  23  24
ATOM     24  C   UNL     1      12.353   3.198   0.486  0.00  0.00    -0.020 C 
ATOM     25  C   UNL     1      12.055   2.404   1.760  0.00  0.00    +0.011 C 
ATOM     26  C   UNL     1      13.024   1.225   1.865  0.00  0.00    -0.010 C 
ATOM     27  C   UNL     1      14.461   1.748   1.915  0.00  0.00    +0.007 C 
ATOM     28  C   UNL     1      14.759   2.542   0.641  0.00  0.00    -0.010 C 
ATOM     29  C   UNL     1      13.790   3.721   0.536  0.00  0.00    +0.011 C 
ATOM     30  C   UNL     1      14.589   1.632  -0.578  0.00  0.00    +0.007 C 
ATOM     31  C   UNL     1      13.152   1.109  -0.627  0.00  0.00    -0.010 C 
ATOM     32  C   UNL     1      12.854   0.316   0.646  0.00  0.00    +0.007 C 
ATOM     33  C   UNL     1      12.183   2.288  -0.732  0.00  0.00    +0.011 C 
ENDBRANCH  23  24
ENDBRANCH  20  23
ENDBRANCH   3  19
TORSDOF 4
