REMARK  Name = ZINC09104403
REMARK  5 active torsions:
REMARK  status: ('A' for Active; 'I' for Inactive)
REMARK    1  A    between atoms: C_1  and  S_2
REMARK    2  A    between atoms: S_2  and  C_3
REMARK    3  A    between atoms: C_8  and  N_9
REMARK    4  A    between atoms: C_10  and  C_12
REMARK    5  A    between atoms: C_23  and  C_25
REMARK                            x       y       z     vdW  Elec       q    Type
REMARK                         _______ _______ _______ _____ _____    ______ ____
ROOT
ATOM      1  C   UNL     1       3.685   1.383  -0.038  0.00  0.00    +0.125 C 
ATOM      2  C   UNL     1       4.429   0.135  -0.518  0.00  0.00    +0.019 C 
ATOM      3  C   UNL     1       4.002  -1.082   0.307  0.00  0.00    +0.006 C 
ATOM      4  C   UNL     1       2.554  -1.444  -0.059  0.00  0.00    +0.044 C 
ATOM      5  C   UNL     1       1.742  -0.193  -0.044  0.00  0.00    +0.015 A 
ATOM      6  C   UNL     1       2.189   1.090  -0.033  0.00  0.00    +0.066 A 
ATOM      7  N   UNL     1       1.251   2.034  -0.018  0.00  0.00    -0.229 NA
ATOM      8  C   UNL     1      -0.034   1.746  -0.014  0.00  0.00    +0.165 A 
ATOM      9  S   UNL     1      -0.019   0.008  -0.033  0.00  0.00    -0.057 S 
ATOM     10  N   UNL     1      -1.122   2.610  -0.004  0.00  0.00    -0.261 N 
ATOM     11  C   UNL     1      -2.376   2.114  -0.009  0.00  0.00    +0.250 C 
ATOM     12  O   UNL     1      -2.554   0.912  -0.021  0.00  0.00    -0.270 OA
ATOM     13  H   UNL     1      -0.980   3.569   0.005  0.00  0.00    +0.157 HD
ENDROOT
BRANCH  11  14
ATOM     14  C   UNL     1      -3.531   3.032   0.002  0.00  0.00    +0.041 A 
ATOM     15  C   UNL     1      -3.328   4.414   0.022  0.00  0.00    +0.017 A 
ATOM     16  C   UNL     1      -4.409   5.269   0.026  0.00  0.00    +0.050 A 
ATOM     17  C   UNL     1      -5.701   4.762   0.022  0.00  0.00    +0.166 A 
ATOM     18  C   UNL     1      -5.911   3.382   0.007  0.00  0.00    +0.167 A 
ATOM     19  C   UNL     1      -4.832   2.520  -0.002  0.00  0.00    +0.062 A 
ATOM     20  O   UNL     1      -7.256   3.146   0.006  0.00  0.00    -0.453 OA
ATOM     21  C   UNL     1      -7.863   4.389  -0.394  0.00  0.00    +0.466 C 
ATOM     22  O   UNL     1      -6.914   5.386   0.029  0.00  0.00    -0.453 OA
ENDBRANCH  11  14
BRANCH   1  24
ATOM     23  N   UNL     1       3.407   3.737  -0.745  0.00  0.00    -0.284 N 
ATOM     24  C   UNL     1       3.971   2.533  -0.968  0.00  0.00    +0.226 C 
ATOM     25  O   UNL     1       4.710   2.377  -1.917  0.00  0.00    -0.275 OA
ATOM     26  H   UNL     1       2.767   3.846  -0.024  0.00  0.00    +0.155 HD
BRANCH  23  32
ATOM     27  C   UNL     1       3.802   6.113  -1.007  0.00  0.00    +0.029 A 
ATOM     28  C   UNL     1       4.143   7.191  -1.812  0.00  0.00    +0.016 A 
ATOM     29  C   UNL     1       4.415   6.993  -3.153  0.00  0.00    +0.001 A 
ATOM     30  C   UNL     1       4.353   5.722  -3.695  0.00  0.00    +0.002 A 
ATOM     31  C   UNL     1       4.019   4.642  -2.899  0.00  0.00    +0.024 A 
ATOM     32  C   UNL     1       3.745   4.830  -1.553  0.00  0.00    +0.047 A 
BRANCH  27  34
ATOM     33  C   UNL     1       3.647   8.151   0.933  0.00  0.00    +0.090 C 
ATOM     34  S   UNL     1       3.448   6.363   0.701  0.00  0.00    -0.127 S 
ENDBRANCH  27  34
ENDBRANCH  23  32
ENDBRANCH   1  24
TORSDOF 4
