REMARK  Name = ZINC62027314
REMARK  2 active torsions:
REMARK  status: ('A' for Active; 'I' for Inactive)
REMARK    1  A    between atoms: C_6  and  C_7
REMARK    2  A    between atoms: N_9  and  C_10
REMARK                            x       y       z     vdW  Elec       q    Type
REMARK                         _______ _______ _______ _____ _____    ______ ____
ROOT
ATOM      1  C   UNL     1      -2.413  -2.876   0.101  0.00  0.00    +0.034 A 
ATOM      2  C   UNL     1      -3.655  -2.254   0.105  0.00  0.00    +0.025 A 
ATOM      3  C   UNL     1      -4.807  -3.005   0.202  0.00  0.00    +0.025 A 
ATOM      4  C   UNL     1      -4.735  -4.393   0.297  0.00  0.00    +0.038 A 
ATOM      5  C   UNL     1      -3.487  -5.008   0.290  0.00  0.00    -0.009 A 
ATOM      6  C   UNL     1      -2.336  -4.260   0.189  0.00  0.00    +0.029 A 
ATOM      7  C   UNL     1      -3.752  -6.484   0.400  0.00  0.00    +0.074 C 
ATOM      8  C   UNL     1      -3.093  -7.072   1.655  0.00  0.00    +0.021 C 
ATOM      9  C   UNL     1      -2.651  -8.493   1.217  0.00  0.00    +0.001 C 
ATOM     10  C   UNL     1      -2.192  -8.275  -0.247  0.00  0.00    +0.001 C 
ATOM     11  C   UNL     1      -3.192  -7.241  -0.808  0.00  0.00    +0.021 C 
ATOM     12  C   UNL     1      -5.252  -6.604   0.470  0.00  0.00    +0.228 C 
ATOM     13  O   UNL     1      -5.891  -7.630   0.568  0.00  0.00    -0.274 OA
ATOM     14  N   UNL     1      -5.745  -5.354   0.405  0.00  0.00    -0.284 N 
ATOM     15  H   UNL     1      -6.692  -5.143   0.430  0.00  0.00    +0.155 HD
ENDROOT
BRANCH   1  18
ATOM     16  C   UNL     1      -1.179  -0.901   0.594  0.00  0.00    +0.248 C 
ATOM     17  O   UNL     1      -2.162  -0.437   1.139  0.00  0.00    -0.270 OA
ATOM     18  N   UNL     1      -1.244  -2.111   0.003  0.00  0.00    -0.281 N 
ATOM     19  H   UNL     1      -0.481  -2.452  -0.490  0.00  0.00    +0.155 HD
BRANCH  16  25
ATOM     20  C   UNL     1       0.157   1.115   1.189  0.00  0.00    +0.014 A 
ATOM     21  C   UNL     1       1.341   1.821   1.172  0.00  0.00    +0.016 A 
ATOM     22  C   UNL     1       2.459   1.290   0.550  0.00  0.00    +0.018 A 
ATOM     23  C   UNL     1       2.395   0.048  -0.057  0.00  0.00    +0.016 A 
ATOM     24  C   UNL     1       1.217  -0.669  -0.047  0.00  0.00    +0.014 A 
ATOM     25  C   UNL     1       0.087  -0.139   0.578  0.00  0.00    +0.037 A 
ATOM     26 BR   UNL     1       4.079   2.266   0.531  0.00  0.00    -0.050 Br
ENDBRANCH  16  25
ENDBRANCH   1  18
TORSDOF 2
