REMARK  Name = ZINC47042155
REMARK  3 active torsions:
REMARK  status: ('A' for Active; 'I' for Inactive)
REMARK    1  A    between atoms: C_3  and  N_13
REMARK    2  A    between atoms: C_5  and  N_7
REMARK    3  A    between atoms: C_14  and  C_16
REMARK                            x       y       z     vdW  Elec       q    Type
REMARK                         _______ _______ _______ _____ _____    ______ ____
ROOT
ATOM      1  N   UNL     1       3.701   2.133  -0.133  0.00  0.00    -0.285 N 
ATOM      2  C   UNL     1       3.775   3.477  -0.065  0.00  0.00    +0.222 C 
ATOM      3  O   UNL     1       2.763   4.135   0.049  0.00  0.00    -0.275 OA
ATOM      4  H   UNL     1       4.513   1.603  -0.155  0.00  0.00    +0.155 HD
ENDROOT
BRANCH   2   5
ATOM      5  C   UNL     1       5.116   4.162  -0.130  0.00  0.00    +0.093 C 
ATOM      6  C   UNL     1       4.921   5.676  -0.031  0.00  0.00    +0.016 C 
ATOM      7  C   UNL     1       6.279   6.375  -0.130  0.00  0.00    +0.020 C 
ATOM      8  C   UNL     1       7.167   5.924   1.034  0.00  0.00    +0.109 C 
ATOM      9  N   UNL     1       7.241   4.457   1.031  0.00  0.00    -0.285 N 
ATOM     10  C   UNL     1       5.991   3.685   1.034  0.00  0.00    +0.122 C 
ATOM     11  C   UNL     1       8.434   3.829   1.027  0.00  0.00    +0.305 C 
ATOM     12  O   UNL     1       9.451   4.459   0.807  0.00  0.00    -0.252 OA
ATOM     13  N   UNL     1       8.500   2.505   1.266  0.00  0.00    -0.285 N 
ATOM     14  C   UNL     1       7.351   1.592   1.356  0.00  0.00    +0.109 C 
ATOM     15  C   UNL     1       7.905   0.186   1.666  0.00  0.00    +0.020 C 
ATOM     16  C   UNL     1       9.291   0.490   2.294  0.00  0.00    +0.020 C 
ATOM     17  C   UNL     1       9.736   1.729   1.474  0.00  0.00    +0.109 C 
ENDBRANCH   2   5
BRANCH   1  20
ATOM     18  C   UNL     1       0.130   1.527  -0.776  0.00  0.00    +0.004 A 
ATOM     19  C   UNL     1       1.363   2.150  -0.738  0.00  0.00    +0.023 A 
ATOM     20  C   UNL     1       2.452   1.502  -0.170  0.00  0.00    +0.035 A 
ATOM     21  C   UNL     1       2.301   0.229   0.361  0.00  0.00    +0.047 A 
ATOM     22  C   UNL     1       1.062  -0.393   0.322  0.00  0.00    +0.040 A 
ATOM     23  C   UNL     1      -0.024   0.260  -0.249  0.00  0.00    +0.024 A 
BRANCH  22  24
ATOM     24  N   UNL     1       0.906  -1.678   0.855  0.00  0.00    -0.254 N 
ATOM     25  C   UNL     1      -0.308  -2.501   0.752  0.00  0.00    +0.134 C 
ATOM     26  C   UNL     1       0.060  -3.797   1.500  0.00  0.00    +0.125 C 
ATOM     27  N   UNL     1       1.442  -3.566   1.946  0.00  0.00    -0.297 N 
ATOM     28  C   UNL     1       1.840  -2.354   1.536  0.00  0.00    +0.307 C 
ATOM     29  O   UNL     1       2.947  -1.907   1.765  0.00  0.00    -0.252 OA
ATOM     30  H   UNL     1       1.982  -4.193   2.453  0.00  0.00    +0.150 HD
ENDBRANCH  22  24
ENDBRANCH   1  20
TORSDOF 3
