REMARK  Name = ZINC12465906
REMARK  8 active torsions:
REMARK  status: ('A' for Active; 'I' for Inactive)
REMARK    1  A    between atoms: C_1  and  O_2
REMARK    2  A    between atoms: O_2  and  C_3
REMARK    3  A    between atoms: C_6  and  O_36
REMARK    4  A    between atoms: C_7  and  N_9
REMARK    5  A    between atoms: C_10  and  C_12
REMARK    6  A    between atoms: C_17  and  C_32
REMARK    7  A    between atoms: C_20  and  C_23
REMARK    8  A    between atoms: O_36  and  C_37
REMARK                            x       y       z     vdW  Elec       q    Type
REMARK                         _______ _______ _______ _____ _____    ______ ____
ROOT
ATOM      1  C   UNL     1       1.019  -6.220  -1.295  0.00  0.00    +0.149 A 
ATOM      2  C   UNL     1       0.581  -7.121  -0.298  0.00  0.00    +0.078 A 
ATOM      3  C   UNL     1       0.909  -8.364  -0.702  0.00  0.00    +0.119 A 
ATOM      4  N   UNL     1       1.533  -8.268  -1.913  0.00  0.00    -0.238 N 
ATOM      5  N   UNL     1       1.585  -6.919  -2.263  0.00  0.00    -0.164 NA
ATOM      6  C   UNL     1       2.031  -9.423  -2.666  0.00  0.00    +0.215 C 
ATOM      7  C   UNL     1       1.334 -10.688  -2.152  0.00  0.00    +0.063 C 
ATOM      8  C   UNL     1       1.422 -10.747  -0.623  0.00  0.00    +0.104 C 
ATOM      9  N   UNL     1       0.694  -9.590  -0.065  0.00  0.00    -0.322 N 
ATOM     10  H   UNL     1       0.102  -9.675   0.698  0.00  0.00    +0.148 HD
ENDROOT
BRANCH   8  11
ATOM     11  C   UNL     1       0.799 -12.028  -0.130  0.00  0.00    -0.024 A 
ATOM     12  C   UNL     1      -0.575 -12.130  -0.024  0.00  0.00    +0.009 A 
ATOM     13  C   UNL     1      -1.151 -13.303   0.428  0.00  0.00    +0.050 A 
ATOM     14  C   UNL     1      -0.351 -14.379   0.776  0.00  0.00    +0.166 A 
ATOM     15  C   UNL     1       1.033 -14.276   0.670  0.00  0.00    +0.167 A 
ATOM     16  C   UNL     1       1.603 -13.099   0.211  0.00  0.00    +0.055 A 
ATOM     17  O   UNL     1       1.591 -15.456   1.069  0.00  0.00    -0.453 OA
ATOM     18  C   UNL     1       0.559 -16.139   1.805  0.00  0.00    +0.466 C 
ATOM     19  O   UNL     1      -0.662 -15.624   1.241  0.00  0.00    -0.453 OA
ENDBRANCH   8  11
BRANCH   1  21
ATOM     20  N   UNL     1       1.324  -4.003  -2.285  0.00  0.00    -0.277 N 
ATOM     21  C   UNL     1       0.864  -4.751  -1.263  0.00  0.00    +0.268 C 
ATOM     22  O   UNL     1       0.323  -4.217  -0.314  0.00  0.00    -0.268 OA
ATOM     23  H   UNL     1       1.683  -4.432  -3.078  0.00  0.00    +0.155 HD
BRANCH  20  28
ATOM     24  C   UNL     1       1.228  -0.598  -0.888  0.00  0.00    +0.122 A 
ATOM     25  C   UNL     1       1.201   0.162  -2.048  0.00  0.00    +0.049 A 
ATOM     26  C   UNL     1       1.214  -0.457  -3.284  0.00  0.00    +0.051 A 
ATOM     27  C   UNL     1       1.255  -1.839  -3.367  0.00  0.00    +0.141 A 
ATOM     28  C   UNL     1       1.283  -2.605  -2.204  0.00  0.00    +0.079 A 
ATOM     29  C   UNL     1       1.274  -1.981  -0.966  0.00  0.00    +0.072 A 
BRANCH  24  31
ATOM     30  C   UNL     1       1.167   1.443   0.331  0.00  0.00    +0.277 C 
ATOM     31  O   UNL     1       1.215   0.015   0.326  0.00  0.00    -0.495 OA
ENDBRANCH  24  31
BRANCH  27  32
ATOM     32  O   UNL     1       1.268  -2.448  -4.584  0.00  0.00    -0.493 OA
ATOM     33  C   UNL     1       1.237  -1.600  -5.734  0.00  0.00    +0.277 C 
ENDBRANCH  27  32
ENDBRANCH  20  28
ENDBRANCH   1  21
BRANCH   6  34
ATOM     34  C   UNL     1       1.726  -9.235  -4.154  0.00  0.00    +0.412 C 
ATOM     35  F   UNL     1       2.353  -8.073  -4.616  0.00  0.00    -0.168 F 
ATOM     36  F   UNL     1       2.201 -10.339  -4.870  0.00  0.00    -0.168 F 
ATOM     37  F   UNL     1       0.343  -9.122  -4.335  0.00  0.00    -0.168 F 
ENDBRANCH   6  34
TORSDOF 6
