REMARK  Name = ZINC36836440
REMARK  6 active torsions:
REMARK  status: ('A' for Active; 'I' for Inactive)
REMARK    1  A    between atoms: C_1  and  C_2
REMARK    2  A    between atoms: N_11  and  C_15
REMARK    3  A    between atoms: C_15  and  C_16
REMARK    4  A    between atoms: N_18  and  C_19
REMARK    5  A    between atoms: C_22  and  S_25
REMARK    6  A    between atoms: S_25  and  C_28
REMARK                            x       y       z     vdW  Elec       q    Type
REMARK                         _______ _______ _______ _____ _____    ______ ____
ROOT
ATOM      1  C   UNL     1       3.329   1.547   2.921  0.00  0.00    +0.214 C 
ENDROOT
BRANCH   1  11
ATOM      2  C   UNL     1      -0.005   1.517  -0.003  0.00  0.00    +0.010 C 
ATOM      3  C   UNL     1       0.014  -0.013  -0.004  0.00  0.00    +0.018 C 
ATOM      4  C   UNL     1       0.736  -0.513  -1.257  0.00  0.00    +0.006 C 
ATOM      5  C   UNL     1       0.773  -2.043  -1.248  0.00  0.00    +0.000 C 
ATOM      6  C   UNL     1       1.529  -2.527  -0.008  0.00  0.00    +0.003 C 
ATOM      7  C   UNL     1       0.810  -2.036   1.251  0.00  0.00    +0.035 C 
ATOM      8  C   UNL     1       0.743  -0.513   1.239  0.00  0.00    +0.115 C 
ATOM      9  C   UNL     1       2.132   0.078   1.309  0.00  0.00    +0.247 C 
ATOM     10  O   UNL     1       3.031  -0.065   0.508  0.00  0.00    -0.273 OA
ATOM     11  N   UNL     1       2.162   0.797   2.450  0.00  0.00    -0.215 N 
ATOM     12  C   UNL     1       0.993   0.739   3.099  0.00  0.00    +0.310 C 
ATOM     13  O   UNL     1       0.775   1.306   4.152  0.00  0.00    -0.252 OA
ATOM     14  N   UNL     1       0.084  -0.018   2.455  0.00  0.00    -0.285 N 
ATOM     15  H   UNL     1      -0.826  -0.201   2.737  0.00  0.00    +0.151 HD
ENDBRANCH   1  11
BRANCH   1  16
ATOM     16  C   UNL     1       3.278   2.950   2.372  0.00  0.00    +0.235 C 
ATOM     17  O   UNL     1       2.358   3.289   1.658  0.00  0.00    -0.274 OA
ATOM     18  N   UNL     1       4.255   3.827   2.674  0.00  0.00    -0.284 N 
ATOM     19  H   UNL     1       4.955   3.578   3.298  0.00  0.00    +0.155 HD
BRANCH  18  20
ATOM     20  C   UNL     1       4.261   5.098   2.088  0.00  0.00    +0.034 A 
ATOM     21  C   UNL     1       5.465   5.708   1.761  0.00  0.00    +0.025 A 
ATOM     22  C   UNL     1       5.467   6.963   1.183  0.00  0.00    +0.029 A 
ATOM     23  C   UNL     1       4.272   7.611   0.930  0.00  0.00    +0.088 A 
ATOM     24  C   UNL     1       3.071   7.006   1.255  0.00  0.00    +0.029 A 
ATOM     25  C   UNL     1       3.062   5.749   1.828  0.00  0.00    +0.025 A 
BRANCH  23  26
ATOM     26  S   UNL     1       4.279   9.211   0.192  0.00  0.00    -0.006 S 
ATOM     27  O   UNL     1       3.067   9.815   0.624  0.00  0.00    -0.170 OA
ATOM     28  O   UNL     1       5.535   9.770   0.551  0.00  0.00    -0.170 OA
ATOM     29  C   UNL     1       4.220   8.901  -1.594  0.00  0.00    +0.200 C 
ENDBRANCH  23  26
ENDBRANCH  18  20
ENDBRANCH   1  16
TORSDOF 4
