REMARK  Name = ZINC38615384
REMARK  6 active torsions:
REMARK  status: ('A' for Active; 'I' for Inactive)
REMARK    1  A    between atoms: C_1  and  C_2
REMARK    2  A    between atoms: C_9  and  N_22
REMARK    3  A    between atoms: C_10  and  C_11
REMARK    4  A    between atoms: N_13  and  C_14
REMARK    5  A    between atoms: C_23  and  C_25
REMARK    6  A    between atoms: C_25  and  C_26
REMARK                            x       y       z     vdW  Elec       q    Type
REMARK                         _______ _______ _______ _____ _____    ______ ____
ROOT
ATOM      1  C   UNL     1      -0.019   1.526   0.010  0.00  0.00    +0.008 C 
ATOM      2  C   UNL     1       0.002  -0.004   0.002  0.00  0.00    -0.009 C 
ATOM      3  C   UNL     1      -1.434  -0.537   0.019  0.00  0.00    +0.008 C 
ATOM      4  C   UNL     1      -1.433  -2.045  -0.237  0.00  0.00    +0.037 C 
ATOM      5  C   UNL     1      -0.464  -2.704   0.734  0.00  0.00    -0.023 A 
ATOM      6  C   UNL     1       0.485  -1.986   1.374  0.00  0.00    -0.004 A 
ATOM      7  S   UNL     1       1.343  -3.167   2.373  0.00  0.00    -0.077 S 
ATOM      8  C   UNL     1       0.492  -4.557   1.968  0.00  0.00    +0.084 A 
ATOM      9  C   UNL     1      -0.459  -4.119   1.061  0.00  0.00    +0.069 A 
ATOM     10  C   UNL     1       0.739  -0.515   1.248  0.00  0.00    +0.046 C 
ENDROOT
BRANCH   9  11
ATOM     11  C   UNL     1      -1.421  -5.045   0.456  0.00  0.00    +0.247 C 
ATOM     12  O   UNL     1      -1.149  -5.611  -0.587  0.00  0.00    -0.270 OA
ATOM     13  N   UNL     1      -2.608  -5.271   1.055  0.00  0.00    -0.307 N 
ATOM     14  H   UNL     1      -2.825  -4.821   1.886  0.00  0.00    +0.149 HD
BRANCH  13  15
ATOM     15  C   UNL     1      -3.569  -6.197   0.450  0.00  0.00    +0.096 C 
ATOM     16  C   UNL     1      -3.247  -7.632   0.899  0.00  0.00    +0.046 C 
ATOM     17  C   UNL     1      -4.447  -8.542   0.509  0.00  0.00    +0.168 C 
ATOM     18  S   UNL     1      -5.859  -7.439   0.938  0.00  0.00    -0.029 S 
ATOM     19  O   UNL     1      -6.269  -7.711   2.272  0.00  0.00    -0.174 OA
ATOM     20  O   UNL     1      -6.817  -7.485  -0.111  0.00  0.00    -0.174 OA
ATOM     21  C   UNL     1      -5.001  -5.814   0.897  0.00  0.00    +0.188 C 
ENDBRANCH  13  15
ENDBRANCH   9  11
BRANCH   8  22
ATOM     22  N   UNL     1       0.696  -5.847   2.434  0.00  0.00    -0.279 N 
ATOM     23  C   UNL     1       1.677  -6.096   3.324  0.00  0.00    +0.222 C 
ATOM     24  O   UNL     1       2.383  -5.191   3.716  0.00  0.00    -0.275 OA
ATOM     25  H   UNL     1       0.131  -6.571   2.120  0.00  0.00    +0.155 HD
BRANCH  23  26
ATOM     26  C   UNL     1       1.898  -7.498   3.830  0.00  0.00    +0.131 C 
BRANCH  26  27
ATOM     27  C   UNL     1       3.047  -7.504   4.806  0.00  0.00    -0.039 A 
ATOM     28  C   UNL     1       4.337  -7.706   4.353  0.00  0.00    +0.005 A 
ATOM     29  C   UNL     1       5.391  -7.712   5.247  0.00  0.00    +0.020 A 
ATOM     30  C   UNL     1       5.154  -7.516   6.596  0.00  0.00    +0.041 A 
ATOM     31  C   UNL     1       3.862  -7.314   7.049  0.00  0.00    +0.020 A 
ATOM     32  C   UNL     1       2.810  -7.302   6.153  0.00  0.00    +0.005 A 
ATOM     33 CL   UNL     1       6.477  -7.524   7.721  0.00  0.00    -0.084 Cl
ENDBRANCH  26  27
ENDBRANCH  23  26
ENDBRANCH   8  22
TORSDOF 5
