REMARK  Name = ZINC59941741
REMARK  9 active torsions:
REMARK  status: ('A' for Active; 'I' for Inactive)
REMARK    1  A    between atoms: C_1  and  C_2
REMARK    2  A    between atoms: C_2  and  O_3
REMARK    3  A    between atoms: O_3  and  C_4
REMARK    4  A    between atoms: C_4  and  C_6
REMARK    5  A    between atoms: C_10  and  N_11
REMARK    6  A    between atoms: C_12  and  C_14
REMARK    7  A    between atoms: C_14  and  S_15
REMARK    8  A    between atoms: S_15  and  C_16
REMARK    9  A    between atoms: C_21  and  C_24
REMARK                            x       y       z     vdW  Elec       q    Type
REMARK                         _______ _______ _______ _____ _____    ______ ____
ROOT
ATOM      1  N   UNL     1      -3.209  -2.576   2.469  0.00  0.00    -0.279 N 
ATOM      2  C   UNL     1      -3.952  -2.908   3.543  0.00  0.00    +0.228 C 
ATOM      3  O   UNL     1      -5.058  -3.382   3.392  0.00  0.00    -0.275 OA
ATOM      4  H   UNL     1      -2.324  -2.197   2.589  0.00  0.00    +0.155 HD
ENDROOT
BRANCH   1   9
ATOM      5  C   UNL     1      -3.096  -2.502  -0.015  0.00  0.00    +0.091 A 
ATOM      6  C   UNL     1      -3.832  -2.807  -1.248  0.00  0.00    -0.021 A 
ATOM      7  C   UNL     1      -5.060  -3.303  -1.012  0.00  0.00    -0.004 A 
ATOM      8  S   UNL     1      -5.197  -3.411   0.752  0.00  0.00    -0.077 S 
ATOM      9  C   UNL     1      -3.708  -2.778   1.191  0.00  0.00    +0.086 A 
ATOM     10  C   UNL     1      -6.134  -3.642  -2.007  0.00  0.00    +0.043 C 
ATOM     11  C   UNL     1      -6.800  -2.318  -2.426  0.00  0.00    +0.005 C 
ATOM     12  C   UNL     1      -5.703  -1.364  -2.912  0.00  0.00    +0.000 C 
ATOM     13  C   UNL     1      -5.078  -2.039  -4.116  0.00  0.00    +0.000 C 
ATOM     14  C   UNL     1      -4.015  -3.063  -3.761  0.00  0.00    +0.005 C 
ATOM     15  C   UNL     1      -3.146  -2.607  -2.595  0.00  0.00    +0.037 C 
BRANCH   5  16
ATOM     16  C   UNL     1      -1.750  -1.927  -0.064  0.00  0.00    +0.342 C 
ATOM     17  O   UNL     1      -0.777  -2.658  -0.096  0.00  0.00    -0.245 OA
BRANCH  16  18
ATOM     18  O   UNL     1      -1.588  -0.588  -0.073  0.00  0.00    -0.461 OA
BRANCH  18  20
ATOM     19  C   UNL     1      -0.264   1.433  -0.125  0.00  0.00    +0.048 C 
ATOM     20  C   UNL     1      -0.247  -0.097  -0.121  0.00  0.00    +0.229 C 
ENDBRANCH  18  20
ENDBRANCH  16  18
ENDBRANCH   5  16
ENDBRANCH   1   9
BRANCH   2  21
ATOM     21  C   UNL     1      -3.409  -2.688   4.931  0.00  0.00    +0.173 C 
BRANCH  21  22
ATOM     22  S   UNL     1      -4.636  -3.229   6.153  0.00  0.00    -0.084 S 
BRANCH  22  23
ATOM     23  C   UNL     1      -3.907  -2.931   7.614  0.00  0.00    +0.147 C 
ATOM     24  N   UNL     1      -2.693  -2.403   7.651  0.00  0.00    -0.159 NA
ATOM     25  C   UNL     1      -2.058  -2.162   8.788  0.00  0.00    +0.240 C 
ATOM     26  O   UNL     1      -0.955  -1.651   8.757  0.00  0.00    -0.274 OA
ATOM     27  C   UNL     1      -2.674  -2.507  10.120  0.00  0.00    +0.125 C 
ATOM     28  C   UNL     1      -4.203  -2.468   9.985  0.00  0.00    +0.111 C 
ATOM     29  N   UNL     1      -4.564  -3.226   8.777  0.00  0.00    -0.318 N 
ATOM     30  H   UNL     1      -5.246  -3.915   8.806  0.00  0.00    +0.148 HD
BRANCH  28  31
ATOM     31  C   UNL     1      -4.667  -1.041   9.847  0.00  0.00    -0.027 A 
ATOM     32  C   UNL     1      -4.464  -0.359   8.662  0.00  0.00    +0.005 A 
ATOM     33  C   UNL     1      -4.890   0.950   8.536  0.00  0.00    +0.000 A 
ATOM     34  C   UNL     1      -5.520   1.577   9.595  0.00  0.00    +0.000 A 
ATOM     35  C   UNL     1      -5.724   0.894  10.780  0.00  0.00    +0.000 A 
ATOM     36  C   UNL     1      -5.302  -0.416  10.904  0.00  0.00    +0.005 A 
ENDBRANCH  28  31
ENDBRANCH  22  23
ENDBRANCH  21  22
ENDBRANCH   2  21
TORSDOF 8
