REMARK  Name = ZINC34955919
REMARK  3 active torsions:
REMARK  status: ('A' for Active; 'I' for Inactive)
REMARK    1  A    between atoms: C_2  and  S_9
REMARK    2  A    between atoms: S_9  and  N_12
REMARK    3  A    between atoms: N_12  and  N_13
REMARK                            x       y       z     vdW  Elec       q    Type
REMARK                         _______ _______ _______ _____ _____    ______ ____
ROOT
ATOM      1  C   UNL     1      -0.017   1.379   0.010  0.00  0.00    +0.044 A 
ATOM      2  C   UNL     1       1.171   2.087   0.002  0.00  0.00    +0.064 A 
ATOM      3  C   UNL     1       2.377   1.413  -0.013  0.00  0.00    +0.044 A 
ATOM      4  C   UNL     1       2.397   0.030  -0.021  0.00  0.00    +0.044 A 
ATOM      5  C   UNL     1       1.209  -0.679  -0.013  0.00  0.00    +0.040 A 
ATOM      6  C   UNL     1       0.002  -0.004   0.002  0.00  0.00    +0.044 A 
ATOM      7 CL   UNL     1      -1.489  -0.893   0.012  0.00  0.00    -0.083 Cl
ATOM      8 CL   UNL     1       3.913  -0.817  -0.040  0.00  0.00    -0.083 Cl
ENDROOT
BRANCH   2   9
ATOM      9  S   UNL     1       1.146   3.849   0.011  0.00  0.00    -0.096 S 
ATOM     10  O   UNL     1       2.380   4.275  -0.549  0.00  0.00    -0.195 OA
ATOM     11  O   UNL     1      -0.110   4.240  -0.526  0.00  0.00    -0.195 OA
BRANCH   9  12
ATOM     12  N   UNL     1       1.154   4.330   1.596  0.00  0.00    +0.409 NA
BRANCH  12  13
ATOM     13  N   UNL     1       1.138   5.661   1.905  0.00  0.00    +0.372 N 
ATOM     14  H   UNL     1       1.952   6.108   1.511  0.00  0.00    -0.137 HD
ATOM     15  H   UNL     1       0.305   6.084   1.526  0.00  0.00    -0.137 HD
ATOM     16  H   UNL     1       1.146   5.773   2.908  0.00  0.00    -0.137 HD
ENDBRANCH  12  13
ENDBRANCH   9  12
ENDBRANCH   2   9
TORSDOF 3
