REMARK  Name = ZINC31589223
REMARK  11 active torsions:
REMARK  status: ('A' for Active; 'I' for Inactive)
REMARK    1  A    between atoms: C_1  and  C_2
REMARK    2  A    between atoms: C_2  and  N_3
REMARK    3  A    between atoms: N_3  and  C_4
REMARK    4  A    between atoms: N_3  and  C_6
REMARK    5  A    between atoms: C_4  and  C_5
REMARK    6  A    between atoms: C_6  and  C_7
REMARK    7  A    between atoms: C_11  and  N_13
REMARK    8  A    between atoms: C_14  and  C_16
REMARK    9  A    between atoms: C_19  and  S_22
REMARK   10  A    between atoms: S_22  and  N_25
REMARK   11  A    between atoms: N_25  and  C_26
REMARK                            x       y       z     vdW  Elec       q    Type
REMARK                         _______ _______ _______ _____ _____    ______ ____
ROOT
ATOM      1  C   UNL     1       6.490  -1.800   0.590  0.00  0.00    +0.037 A 
ATOM      2  C   UNL     1       5.901  -3.020   0.926  0.00  0.00    +0.015 A 
ATOM      3  C   UNL     1       4.640  -3.326   0.457  0.00  0.00    +0.029 A 
ATOM      4  C   UNL     1       3.959  -2.426  -0.344  0.00  0.00    +0.109 A 
ATOM      5  C   UNL     1       4.539  -1.217  -0.684  0.00  0.00    +0.029 A 
ATOM      6  C   UNL     1       5.798  -0.896  -0.218  0.00  0.00    +0.015 A 
ENDROOT
BRANCH   1   8
ATOM      7  N   UNL     1       8.406  -0.286   0.763  0.00  0.00    -0.281 N 
ATOM      8  C   UNL     1       7.841  -1.465   1.089  0.00  0.00    +0.248 C 
ATOM      9  O   UNL     1       8.442  -2.254   1.792  0.00  0.00    -0.270 OA
ATOM     10  H   UNL     1       7.901   0.390   0.058  0.00  0.00    +0.155 HD
BRANCH   7  15
ATOM     11  C   UNL     1      11.695   1.299   1.194  0.00  0.00    -0.062 A 
ATOM     12  C   UNL     1      12.068   0.797   2.428  0.00  0.00    +0.002 A 
ATOM     13  C   UNL     1      11.228  -0.064   3.109  0.00  0.00    +0.002 A 
ATOM     14  C   UNL     1      10.013  -0.425   2.560  0.00  0.00    +0.023 A 
ATOM     15  C   UNL     1       9.636   0.078   1.322  0.00  0.00    +0.034 A 
ATOM     16  C   UNL     1      10.484   0.938   0.637  0.00  0.00    +0.025 A 
BRANCH  11  17
ATOM     17  C   UNL     1      12.614   2.237   0.454  0.00  0.00    -0.043 C 
BRANCH  17  18
ATOM     18  N   UNL     1      13.515   1.460  -0.409  0.00  0.00    +0.382 N 
ATOM     19  H   UNL     1      13.991   0.685   0.210  0.00  0.00    -0.081 HD
BRANCH  18  21
ATOM     20  C   UNL     1      12.154   1.834  -2.410  0.00  0.00    -0.017 C 
ATOM     21  C   UNL     1      12.767   0.786  -1.479  0.00  0.00    -0.082 C 
ENDBRANCH  18  21
BRANCH  18  22
ATOM     22  C   UNL     1      14.576   2.311  -0.963  0.00  0.00    -0.082 C 
ATOM     23  C   UNL     1      15.569   1.445  -1.742  0.00  0.00    -0.017 C 
ENDBRANCH  18  22
ENDBRANCH  17  18
ENDBRANCH  11  17
ENDBRANCH   7  15
ENDBRANCH   1   8
BRANCH   4  24
ATOM     24  S   UNL     1       2.349  -2.824  -0.938  0.00  0.00    +0.072 S 
ATOM     25  O   UNL     1       2.210  -4.234  -0.821  0.00  0.00    -0.150 OA
ATOM     26  O   UNL     1       2.192  -2.143  -2.175  0.00  0.00    -0.150 OA
BRANCH  24  27
ATOM     27  N   UNL     1       1.260  -2.153   0.114  0.00  0.00    -0.216 N 
ATOM     28  H   UNL     1       0.546  -1.396  -0.243  0.00  0.00    +0.174 HD
BRANCH  27  29
ATOM     29  C   UNL     1       1.246  -2.549   1.454  0.00  0.00    +0.048 A 
ATOM     30  C   UNL     1       1.171  -1.595   2.461  0.00  0.00    +0.027 A 
ATOM     31  C   UNL     1       1.158  -1.988   3.784  0.00  0.00    +0.040 A 
ATOM     32  C   UNL     1       1.222  -3.333   4.109  0.00  0.00    +0.124 A 
ATOM     33  C   UNL     1       1.298  -4.286   3.107  0.00  0.00    +0.040 A 
ATOM     34  C   UNL     1       1.310  -3.897   1.782  0.00  0.00    +0.027 A 
ATOM     35  F   UNL     1       1.210  -3.716   5.404  0.00  0.00    -0.205 F 
ENDBRANCH  27  29
ENDBRANCH  24  27
ENDBRANCH   4  24
TORSDOF 9
