REMARK  Name = ZINC33274678
REMARK  10 active torsions:
REMARK  status: ('A' for Active; 'I' for Inactive)
REMARK    1  A    between atoms: C_1  and  C_2
REMARK    2  A    between atoms: C_5  and  N_31
REMARK    3  A    between atoms: C_6  and  S_8
REMARK    4  A    between atoms: S_8  and  N_11
REMARK    5  A    between atoms: N_11  and  C_12
REMARK    6  A    between atoms: C_15  and  C_18
REMARK    7  A    between atoms: C_18  and  C_21
REMARK    8  A    between atoms: N_23  and  C_24
REMARK    9  A    between atoms: C_27  and  C_30
REMARK   10  A    between atoms: C_32  and  C_34
REMARK                            x       y       z     vdW  Elec       q    Type
REMARK                         _______ _______ _______ _____ _____    ______ ____
ROOT
ATOM      1  C   UNL     1      -1.281   4.680   3.389  0.00  0.00    +0.048 A 
ATOM      2  C   UNL     1      -1.296   3.783   2.328  0.00  0.00    +0.025 A 
ATOM      3  C   UNL     1      -0.160   3.061   2.020  0.00  0.00    +0.006 A 
ATOM      4  C   UNL     1       0.989   3.221   2.774  0.00  0.00    -0.032 A 
ATOM      5  C   UNL     1       1.005   4.109   3.834  0.00  0.00    +0.006 A 
ATOM      6  C   UNL     1      -0.126   4.839   4.144  0.00  0.00    +0.025 A 
ENDROOT
BRANCH   4   7
ATOM      7  C   UNL     1       2.225   2.427   2.439  0.00  0.00    +0.072 C 
ATOM      8  C   UNL     1       2.056   0.926   2.194  0.00  0.00    +0.022 C 
ATOM      9  C   UNL     1       2.722   1.422   3.479  0.00  0.00    +0.022 C 
BRANCH   7  10
ATOM     10  C   UNL     1       3.262   3.153   1.622  0.00  0.00    +0.224 C 
ATOM     11  O   UNL     1       4.361   3.367   2.089  0.00  0.00    -0.275 OA
ATOM     12  N   UNL     1       2.969   3.566   0.373  0.00  0.00    -0.312 N 
ATOM     13  H   UNL     1       1.948   3.446  -0.020  0.00  0.00    +0.149 HD
BRANCH  12  14
ATOM     14  C   UNL     1       4.009   4.173  -0.461  0.00  0.00    +0.073 C 
ATOM     15  C   UNL     1       4.105   5.667  -0.149  0.00  0.00    +0.022 C 
ATOM     16  C   UNL     1       5.191   6.302  -1.020  0.00  0.00    +0.005 C 
ATOM     17  C   UNL     1       4.837   6.111  -2.496  0.00  0.00    -0.014 C 
ATOM     18  C   UNL     1       4.740   4.617  -2.809  0.00  0.00    +0.005 C 
ATOM     19  C   UNL     1       3.654   3.982  -1.938  0.00  0.00    +0.022 C 
ATOM     20  C   UNL     1       5.923   6.746  -3.367  0.00  0.00    +0.007 C 
ENDBRANCH  12  14
ENDBRANCH   7  10
ENDBRANCH   4   7
BRANCH   1  21
ATOM     21  N   UNL     1      -2.427   5.416   3.699  0.00  0.00    -0.216 N 
ATOM     22  H   UNL     1      -2.764   5.495   4.743  0.00  0.00    +0.174 HD
BRANCH  21  23
ATOM     23  S   UNL     1      -3.278   6.170   2.495  0.00  0.00    +0.074 S 
ATOM     24  O   UNL     1      -4.369   6.832   3.122  0.00  0.00    -0.150 OA
ATOM     25  O   UNL     1      -3.460   5.210   1.464  0.00  0.00    -0.150 OA
BRANCH  23  31
ATOM     26  C   UNL     1      -0.603   8.303  -1.455  0.00  0.00    +0.044 C 
ATOM     27  C   UNL     1      -1.030   8.364  -0.011  0.00  0.00    -0.048 A 
ATOM     28  C   UNL     1      -0.601   9.405   0.792  0.00  0.00    +0.005 A 
ATOM     29  C   UNL     1      -0.990   9.464   2.116  0.00  0.00    +0.025 A 
ATOM     30  C   UNL     1      -1.814   8.476   2.640  0.00  0.00    +0.060 A 
ATOM     31  C   UNL     1      -2.239   7.429   1.833  0.00  0.00    +0.130 A 
ATOM     32  C   UNL     1      -1.850   7.379   0.508  0.00  0.00    +0.034 A 
BRANCH  30  33
ATOM     33  N   UNL     1      -2.210   8.533   3.981  0.00  0.00    -0.284 N 
ATOM     34  C   UNL     1      -2.173   9.704   4.646  0.00  0.00    +0.214 C 
ATOM     35  O   UNL     1      -1.843  10.719   4.069  0.00  0.00    -0.276 OA
ATOM     36  C   UNL     1      -2.546   9.755   6.105  0.00  0.00    +0.109 C 
ATOM     37  H   UNL     1      -2.553   7.621   4.492  0.00  0.00    +0.155 HD
ENDBRANCH  30  33
ENDBRANCH  23  31
ENDBRANCH  21  23
ENDBRANCH   1  21
TORSDOF 7
