REMARK  Name = ZINC02762599
REMARK  3 active torsions:
REMARK  status: ('A' for Active; 'I' for Inactive)
REMARK    1  A    between atoms: C_7  and  C_17
REMARK    2  A    between atoms: C_8  and  N_10
REMARK    3  A    between atoms: C_11  and  C_13
REMARK                            x       y       z     vdW  Elec       q    Type
REMARK                         _______ _______ _______ _____ _____    ______ ____
ROOT
ATOM      1  C   UNL     1      -2.206  -0.346   1.123  0.00  0.00    +0.000 C 
ATOM      2  C   UNL     1      -2.225   1.168   1.145  0.00  0.00    +0.000 C 
ATOM      3  C   UNL     1      -0.755   1.593   1.258  0.00  0.00    +0.005 C 
ATOM      4  C   UNL     1      -0.013   1.086   0.008  0.00  0.00    +0.043 C 
ATOM      5  C   UNL     1      -0.760   1.594  -1.192  0.00  0.00    -0.004 A 
ATOM      6  C   UNL     1      -1.896   1.116  -1.734  0.00  0.00    -0.023 A 
ATOM      7  C   UNL     1      -2.395   1.911  -2.862  0.00  0.00    +0.068 A 
ATOM      8  C   UNL     1      -1.645   2.991  -3.287  0.00  0.00    +0.084 A 
ATOM      9  S   UNL     1      -0.303   2.985  -2.194  0.00  0.00    -0.077 S 
ATOM     10  C   UNL     1      -2.637  -0.166  -1.357  0.00  0.00    +0.037 C 
ATOM     11  C   UNL     1      -1.935  -0.939  -0.248  0.00  0.00    +0.005 C 
ENDROOT
BRANCH   7  12
ATOM     12  C   UNL     1      -3.659   1.569  -3.522  0.00  0.00    +0.244 C 
ATOM     13  O   UNL     1      -3.664   0.801  -4.466  0.00  0.00    -0.270 OA
ATOM     14  N   UNL     1      -4.816   2.103  -3.082  0.00  0.00    -0.325 N 
ATOM     15  H   UNL     1      -4.812   2.715  -2.329  0.00  0.00    +0.145 HD
ATOM     16  H   UNL     1      -5.652   1.876  -3.519  0.00  0.00    +0.145 HD
ENDBRANCH   7  12
BRANCH   8  17
ATOM     17  N   UNL     1      -1.903   3.864  -4.332  0.00  0.00    -0.279 N 
ATOM     18  C   UNL     1      -1.046   4.869  -4.598  0.00  0.00    +0.221 C 
ATOM     19  O   UNL     1      -0.047   5.009  -3.924  0.00  0.00    -0.275 OA
ATOM     20  H   UNL     1      -2.702   3.752  -4.871  0.00  0.00    +0.155 HD
BRANCH  18  21
ATOM     21  C   UNL     1      -1.327   5.819  -5.734  0.00  0.00    +0.075 C 
ATOM     22  C   UNL     1      -0.891   5.282  -7.108  0.00  0.00    +0.013 C 
ATOM     23  C   UNL     1      -0.408   6.708  -7.424  0.00  0.00    +0.001 C 
ATOM     24  C   UNL     1      -0.254   6.907  -5.907  0.00  0.00    +0.013 C 
ENDBRANCH  18  21
ENDBRANCH   8  17
TORSDOF 3
