REMARK  Name = ZINC15973415
REMARK  8 active torsions:
REMARK  status: ('A' for Active; 'I' for Inactive)
REMARK    1  A    between atoms: C_1  and  O_2
REMARK    2  A    between atoms: O_2  and  C_3
REMARK    3  A    between atoms: C_6  and  N_27
REMARK    4  A    between atoms: C_8  and  N_9
REMARK    5  A    between atoms: C_10  and  C_12
REMARK    6  A    between atoms: C_12  and  C_24
REMARK    7  A    between atoms: C_14  and  C_17
REMARK    8  A    between atoms: C_24  and  C_25
REMARK                            x       y       z     vdW  Elec       q    Type
REMARK                         _______ _______ _______ _____ _____    ______ ____
ROOT
ATOM      1  C   UNL     1      -0.795   1.597  -1.037  0.00  0.00    +0.229 C 
ATOM      2  C   UNL     1       0.204   1.222   0.083  0.00  0.00    +0.120 C 
ATOM      3  C   UNL     1      -0.222   2.121   1.227  0.00  0.00    +0.092 C 
ATOM      4  N   UNL     1      -0.995   3.042   0.747  0.00  0.00    -0.088 NA
ATOM      5  O   UNL     1      -1.182   2.931  -0.650  0.00  0.00    -0.377 OA
ENDROOT
BRANCH   3   6
ATOM      6  C   UNL     1       0.174   1.970   2.641  0.00  0.00    -0.000 A 
ATOM      7  C   UNL     1       1.011   0.920   3.026  0.00  0.00    +0.011 A 
ATOM      8  C   UNL     1       1.382   0.787   4.348  0.00  0.00    +0.016 A 
ATOM      9  C   UNL     1       0.917   1.685   5.294  0.00  0.00    +0.018 A 
ATOM     10  C   UNL     1       0.082   2.724   4.920  0.00  0.00    +0.016 A 
ATOM     11  C   UNL     1      -0.291   2.871   3.600  0.00  0.00    +0.011 A 
ATOM     12 BR   UNL     1       1.423   1.489   7.105  0.00  0.00    -0.050 Br
ENDBRANCH   3   6
BRANCH   1  14
ATOM     13  N   UNL     1      -3.156   1.073  -1.559  0.00  0.00    -0.279 N 
ATOM     14  C   UNL     1      -1.982   0.668  -1.034  0.00  0.00    +0.265 C 
ATOM     15  O   UNL     1      -1.882  -0.443  -0.558  0.00  0.00    -0.271 OA
ATOM     16  H   UNL     1      -3.256   1.984  -1.877  0.00  0.00    +0.155 HD
BRANCH  13  22
ATOM     17  C   UNL     1      -5.130   0.267  -2.705  0.00  0.00    +0.141 A 
ATOM     18  C   UNL     1      -6.188  -0.624  -2.788  0.00  0.00    +0.050 A 
ATOM     19  C   UNL     1      -6.356  -1.591  -1.815  0.00  0.00    +0.036 A 
ATOM     20  C   UNL     1      -5.466  -1.676  -0.759  0.00  0.00    +0.128 A 
ATOM     21  C   UNL     1      -4.405  -0.795  -0.672  0.00  0.00    +0.059 A 
ATOM     22  C   UNL     1      -4.231   0.178  -1.645  0.00  0.00    +0.078 A 
BRANCH  20  23
ATOM     23  N   UNL     1      -5.651  -2.714   0.280  0.00  0.00    +0.056 N 
ATOM     24  O   UNL     1      -4.869  -2.791   1.210  0.00  0.00    -0.126 OA
ATOM     25  O   UNL     1      -6.586  -3.492   0.204  0.00  0.00    -0.126 OA
ENDBRANCH  20  23
BRANCH  17  27
ATOM     26  C   UNL     1      -5.927   1.253  -4.717  0.00  0.00    +0.277 C 
ATOM     27  O   UNL     1      -4.966   1.222  -3.659  0.00  0.00    -0.493 OA
ENDBRANCH  17  27
ENDBRANCH  13  22
ENDBRANCH   1  14
BRANCH   1  28
ATOM     28  C   UNL     1      -0.110   1.600  -2.405  0.00  0.00    +0.185 C 
BRANCH  28  29
ATOM     29  C   UNL     1       0.959   2.663  -2.428  0.00  0.00    +0.360 C 
ATOM     30  O   UNL     1       1.199   3.301  -1.430  0.00  0.00    -0.246 OA
ATOM     31  O   UNL     1       1.645   2.900  -3.557  0.00  0.00    -0.246 OA
ENDBRANCH  28  29
ENDBRANCH   1  28
TORSDOF 7
