REMARK  Name = ZINC09090245
REMARK  5 active torsions:
REMARK  status: ('A' for Active; 'I' for Inactive)
REMARK    1  A    between atoms: C_1  and  C_2
REMARK    2  A    between atoms: N_15  and  N_16
REMARK    3  A    between atoms: N_16  and  C_17
REMARK    4  A    between atoms: C_17  and  N_19
REMARK    5  A    between atoms: C_20  and  C_22
REMARK                            x       y       z     vdW  Elec       q    Type
REMARK                         _______ _______ _______ _____ _____    ______ ____
ROOT
ATOM      1  N   UNL     1      -0.011   0.966   0.007  0.00  0.00    -0.230 N 
ATOM      2  H   UNL     1       0.002  -0.004   0.002  0.00  0.00    +0.175 HD
ENDROOT
BRANCH   1  17
ATOM      3  C   UNL     1      -1.438   1.012   2.399  0.00  0.00    +0.088 C 
ATOM      4  C   UNL     1      -1.961   1.696   1.163  0.00  0.00    +0.129 A 
ATOM      5  N   UNL     1      -3.104   2.327   1.213  0.00  0.00    -0.225 NA
ATOM      6  C   UNL     1      -3.596   2.937   0.139  0.00  0.00    +0.116 A 
ATOM      7  C   UNL     1      -2.919   2.939  -1.091  0.00  0.00    +0.077 A 
ATOM      8  C   UNL     1      -3.580   3.650  -2.185  0.00  0.00    -0.023 A 
ATOM      9  C   UNL     1      -4.767   4.231  -1.908  0.00  0.00    -0.004 A 
ATOM     10  S   UNL     1      -5.068   3.868  -0.199  0.00  0.00    -0.073 S 
ATOM     11  C   UNL     1      -5.636   5.011  -2.847  0.00  0.00    +0.043 C 
ATOM     12  C   UNL     1      -4.806   5.376  -4.085  0.00  0.00    +0.005 C 
ATOM     13  C   UNL     1      -4.074   4.122  -4.573  0.00  0.00    +0.005 C 
ATOM     14  C   UNL     1      -2.974   3.744  -3.582  0.00  0.00    +0.037 C 
ATOM     15  C   UNL     1      -1.666   2.243  -1.111  0.00  0.00    +0.280 A 
ATOM     16  O   UNL     1      -1.004   2.188  -2.133  0.00  0.00    -0.265 OA
ATOM     17  N   UNL     1      -1.234   1.650   0.017  0.00  0.00    -0.210 N 
ENDBRANCH   1  17
BRANCH   1  18
ATOM     18  C   UNL     1       1.147   1.655   0.000  0.00  0.00    +0.155 C 
ATOM     19  S   UNL     1       2.641   0.820  -0.019  0.00  0.00    -0.017 S 
BRANCH  18  20
ATOM     20  N   UNL     1       1.129   3.003   0.007  0.00  0.00    -0.266 N 
ATOM     21  C   UNL     1       2.286   3.693   0.000  0.00  0.00    +0.225 C 
ATOM     22  O   UNL     1       3.345   3.101  -0.013  0.00  0.00    -0.275 OA
ATOM     23  H   UNL     1       0.282   3.477   0.018  0.00  0.00    +0.157 HD
BRANCH  21  24
ATOM     24  C   UNL     1       2.266   5.200   0.008  0.00  0.00    +0.048 C 
ATOM     25  C   UNL     1       1.526   5.707  -1.231  0.00  0.00    +0.019 C 
ATOM     26  C   UNL     1       1.505   7.236  -1.223  0.00  0.00    -0.009 C 
ATOM     27  C   UNL     1       2.941   7.766  -1.234  0.00  0.00    +0.007 C 
ATOM     28  C   UNL     1       3.681   7.259   0.006  0.00  0.00    -0.009 C 
ATOM     29  C   UNL     1       3.701   5.729  -0.003  0.00  0.00    +0.019 C 
ATOM     30  C   UNL     1       2.965   7.753   1.265  0.00  0.00    +0.007 C 
ATOM     31  C   UNL     1       1.529   7.223   1.276  0.00  0.00    -0.009 C 
ATOM     32  C   UNL     1       0.789   7.730   0.036  0.00  0.00    +0.007 C 
ATOM     33  C   UNL     1       1.550   5.693   1.267  0.00  0.00    +0.019 C 
ENDBRANCH  21  24
ENDBRANCH  18  20
ENDBRANCH   1  18
TORSDOF 4
