REMARK  Name = ZINC45446827
REMARK  10 active torsions:
REMARK  status: ('A' for Active; 'I' for Inactive)
REMARK    1  A    between atoms: C_1  and  C_2
REMARK    2  A    between atoms: C_2  and  N_3
REMARK    3  A    between atoms: C_4  and  C_6
REMARK    4  A    between atoms: C_10  and  N_12
REMARK    5  A    between atoms: C_13  and  C_15
REMARK    6  A    between atoms: C_15  and  S_16
REMARK    7  A    between atoms: S_16  and  C_17
REMARK    8  A    between atoms: N_22  and  C_23
REMARK    9  A    between atoms: C_26  and  S_29
REMARK   10  A    between atoms: S_29  and  C_30
REMARK                            x       y       z     vdW  Elec       q    Type
REMARK                         _______ _______ _______ _____ _____    ______ ____
ROOT
ATOM      1  S   UNL     1      -8.076  -7.812   0.421  0.00  0.00    -0.088 S 
ENDROOT
BRANCH   1   2
ATOM      2  C   UNL     1      -8.207  -9.566   0.532  0.00  0.00    +0.160 A 
ATOM      3  N   UNL     1      -7.254 -10.478   0.521  0.00  0.00    -0.133 NA
ATOM      4  N   UNL     1      -7.582 -11.810   0.621  0.00  0.00    -0.125 NA
ATOM      5  C   UNL     1      -8.846 -12.169   0.729  0.00  0.00    +0.187 A 
ATOM      6  S   UNL     1      -9.666 -10.583   0.700  0.00  0.00    -0.024 S 
ATOM      7  N   UNL     1      -9.394 -13.442   0.840  0.00  0.00    -0.292 N 
ATOM      8  H   UNL     1     -10.357 -13.559   0.827  0.00  0.00    +0.154 HD
BRANCH   7   9
ATOM      9  C   UNL     1      -8.556 -14.556   0.971  0.00  0.00    +0.033 A 
ATOM     10  C   UNL     1      -8.999 -15.810   0.571  0.00  0.00    +0.024 A 
ATOM     11  C   UNL     1      -8.173 -16.908   0.700  0.00  0.00    +0.017 A 
ATOM     12  C   UNL     1      -6.897 -16.759   1.230  0.00  0.00    +0.013 A 
ATOM     13  C   UNL     1      -6.453 -15.505   1.629  0.00  0.00    +0.017 A 
ATOM     14  C   UNL     1      -7.278 -14.406   1.496  0.00  0.00    +0.024 A 
BRANCH  12  15
ATOM     15  S   UNL     1      -5.843 -18.161   1.395  0.00  0.00    -0.056 S 
BRANCH  15  16
ATOM     16  C   UNL     1      -4.322 -17.484   2.116  0.00  0.00    +0.404 C 
ATOM     17  F   UNL     1      -3.787 -16.520   1.254  0.00  0.00    -0.197 F 
ATOM     18  F   UNL     1      -4.613 -16.895   3.351  0.00  0.00    -0.197 F 
ENDBRANCH  15  16
ENDBRANCH  12  15
ENDBRANCH   7   9
ENDBRANCH   1   2
BRANCH   1  19
ATOM     19  C   UNL     1      -6.293  -7.514   0.272  0.00  0.00    +0.172 C 
BRANCH  19  21
ATOM     20  N   UNL     1      -4.777  -5.573   0.046  0.00  0.00    -0.285 N 
ATOM     21  C   UNL     1      -6.038  -6.033   0.166  0.00  0.00    +0.227 C 
ATOM     22  O   UNL     1      -6.968  -5.254   0.190  0.00  0.00    -0.275 OA
ATOM     23  H   UNL     1      -4.040  -6.197  -0.048  0.00  0.00    +0.155 HD
BRANCH  20  28
ATOM     24  C   UNL     1      -5.075  -1.983   0.829  0.00  0.00    +0.038 A 
ATOM     25  C   UNL     1      -4.027  -1.465   0.066  0.00  0.00    +0.013 A 
ATOM     26  C   UNL     1      -3.242  -2.309  -0.691  0.00  0.00    +0.003 A 
ATOM     27  C   UNL     1      -3.489  -3.670  -0.698  0.00  0.00    +0.023 A 
ATOM     28  C   UNL     1      -4.530  -4.195   0.057  0.00  0.00    +0.034 A 
ATOM     29  C   UNL     1      -5.321  -3.355   0.826  0.00  0.00    +0.036 A 
BRANCH  24  31
ATOM     30  N   UNL     1      -5.678   0.247   1.643  0.00  0.00    -0.312 N 
ATOM     31  C   UNL     1      -5.918  -1.080   1.641  0.00  0.00    +0.244 C 
ATOM     32  O   UNL     1      -6.827  -1.534   2.308  0.00  0.00    -0.270 OA
ATOM     33  H   UNL     1      -4.953   0.609   1.110  0.00  0.00    +0.149 HD
BRANCH  30  35
ATOM     34  C   UNL     1      -6.033   2.583   2.272  0.00  0.00    +0.024 C 
ATOM     35  C   UNL     1      -6.514   1.141   2.448  0.00  0.00    +0.101 C 
ENDBRANCH  30  35
ENDBRANCH  24  31
ENDBRANCH  20  28
ENDBRANCH  19  21
ENDBRANCH   1  19
TORSDOF 9
