REMARK  Name = ZINC03066913
REMARK  10 active torsions:
REMARK  status: ('A' for Active; 'I' for Inactive)
REMARK    1  A    between atoms: C_1  and  C_2
REMARK    2  A    between atoms: C_2  and  O_3
REMARK    3  A    between atoms: O_3  and  C_4
REMARK    4  A    between atoms: C_4  and  C_6
REMARK    5  A    between atoms: C_10  and  N_11
REMARK    6  A    between atoms: N_11  and  C_12
REMARK    7  A    between atoms: C_12  and  C_14
REMARK    8  A    between atoms: C_12  and  N_18
REMARK    9  A    between atoms: C_19  and  C_21
REMARK   10  A    between atoms: C_24  and  C_27
REMARK                            x       y       z     vdW  Elec       q    Type
REMARK                         _______ _______ _______ _____ _____    ______ ____
ROOT
ATOM      1  N   UNL     1      -1.967   6.939  -1.647  0.00  0.00    -0.316 N 
ATOM      2  H   UNL     1      -1.983   7.646  -0.983  0.00  0.00    +0.148 HD
ENDROOT
BRANCH   1   7
ATOM      3  C   UNL     1      -1.273   5.179  -0.020  0.00  0.00    +0.090 A 
ATOM      4  C   UNL     1      -0.952   3.765   0.098  0.00  0.00    -0.021 A 
ATOM      5  C   UNL     1      -1.032   3.059  -1.049  0.00  0.00    -0.004 A 
ATOM      6  S   UNL     1      -1.524   4.238  -2.275  0.00  0.00    -0.078 S 
ATOM      7  C   UNL     1      -1.623   5.653  -1.279  0.00  0.00    +0.082 A 
ATOM      8  C   UNL     1      -0.761   1.597  -1.232  0.00  0.00    +0.043 C 
ATOM      9  C   UNL     1      -0.013   1.086   0.008  0.00  0.00    +0.005 C 
ATOM     10  C   UNL     1      -0.735   1.583   1.264  0.00  0.00    +0.005 C 
ATOM     11  C   UNL     1      -0.552   3.094   1.406  0.00  0.00    +0.037 C 
BRANCH   3  12
ATOM     12  C   UNL     1      -1.229   6.067   1.141  0.00  0.00    +0.342 C 
ATOM     13  O   UNL     1      -2.222   6.224   1.825  0.00  0.00    -0.245 OA
BRANCH  12  14
ATOM     14  O   UNL     1      -0.086   6.713   1.453  0.00  0.00    -0.461 OA
BRANCH  14  16
ATOM     15  C   UNL     1       1.261   8.205   2.794  0.00  0.00    +0.048 C 
ATOM     16  C   UNL     1      -0.115   7.564   2.600  0.00  0.00    +0.229 C 
ENDBRANCH  14  16
ENDBRANCH  12  14
ENDBRANCH   3  12
ENDBRANCH   1   7
BRANCH   1  17
ATOM     17  C   UNL     1      -2.308   7.236  -3.040  0.00  0.00    +0.211 C 
BRANCH  17  18
ATOM     18  C   UNL     1      -1.603   8.523  -3.475  0.00  0.00    +0.225 C 
ATOM     19 CL   UNL     1       0.181   8.311  -3.325  0.00  0.00    -0.080 Cl
ATOM     20 CL   UNL     1      -2.023   8.888  -5.190  0.00  0.00    -0.080 Cl
ATOM     21 CL   UNL     1      -2.137   9.885  -2.422  0.00  0.00    -0.080 Cl
ENDBRANCH  17  18
BRANCH  17  22
ATOM     22  N   UNL     1      -3.758   7.408  -3.162  0.00  0.00    -0.290 N 
ATOM     23  C   UNL     1      -4.507   6.438  -3.721  0.00  0.00    +0.246 C 
ATOM     24  O   UNL     1      -3.980   5.419  -4.125  0.00  0.00    -0.270 OA
ATOM     25  H   UNL     1      -4.178   8.221  -2.841  0.00  0.00    +0.151 HD
BRANCH  23  26
ATOM     26  C   UNL     1      -5.970   6.611  -3.845  0.00  0.00    +0.037 A 
ATOM     27  C   UNL     1      -6.579   7.777  -3.377  0.00  0.00    +0.013 A 
ATOM     28  C   UNL     1      -7.944   7.935  -3.499  0.00  0.00    +0.004 A 
ATOM     29  C   UNL     1      -8.711   6.936  -4.074  0.00  0.00    -0.050 A 
ATOM     30  C   UNL     1      -8.114   5.776  -4.534  0.00  0.00    +0.004 A 
ATOM     31  C   UNL     1      -6.749   5.608  -4.423  0.00  0.00    +0.013 A 
ATOM     32  C   UNL     1     -10.202   7.113  -4.199  0.00  0.00    +0.044 C 
ENDBRANCH  23  26
ENDBRANCH  17  22
ENDBRANCH   1  17
TORSDOF 8
