REMARK  Name = ZINC03427065
REMARK  11 active torsions:
REMARK  status: ('A' for Active; 'I' for Inactive)
REMARK    1  A    between atoms: C_1  and  C_2
REMARK    2  A    between atoms: C_5  and  O_36
REMARK    3  A    between atoms: C_6  and  N_8
REMARK    4  A    between atoms: C_9  and  C_11
REMARK    5  A    between atoms: C_20  and  O_21
REMARK    6  A    between atoms: O_21  and  C_22
REMARK    7  A    between atoms: C_22  and  C_23
REMARK    8  A    between atoms: N_25  and  C_26
REMARK    9  A    between atoms: C_30  and  N_32
REMARK   10  A    between atoms: C_33  and  C_35
REMARK   11  A    between atoms: O_36  and  C_37
REMARK                            x       y       z     vdW  Elec       q    Type
REMARK                         _______ _______ _______ _____ _____    ______ ____
ROOT
ATOM      1  C   UNL     1      -7.050   1.757   2.154  0.00  0.00    +0.079 A 
ATOM      2  C   UNL     1      -8.379   1.424   2.364  0.00  0.00    +0.025 A 
ATOM      3  C   UNL     1      -8.758   0.075   2.382  0.00  0.00    -0.017 A 
ATOM      4  C   UNL     1     -10.098  -0.299   2.592  0.00  0.00    +0.008 A 
ATOM      5  C   UNL     1     -10.436  -1.617   2.604  0.00  0.00    +0.001 A 
ATOM      6  C   UNL     1      -9.473  -2.606   2.410  0.00  0.00    +0.001 A 
ATOM      7  C   UNL     1      -8.167  -2.283   2.204  0.00  0.00    +0.008 A 
ATOM      8  C   UNL     1      -7.778  -0.932   2.185  0.00  0.00    -0.014 A 
ATOM      9  C   UNL     1      -6.439  -0.568   1.968  0.00  0.00    +0.055 A 
ATOM     10  C   UNL     1      -6.083   0.748   1.958  0.00  0.00    +0.134 A 
ENDROOT
BRANCH   1  12
ATOM     11  N   UNL     1      -7.564   4.143   2.319  0.00  0.00    -0.278 N 
ATOM     12  C   UNL     1      -6.644   3.175   2.133  0.00  0.00    +0.252 C 
ATOM     13  O   UNL     1      -5.479   3.472   1.948  0.00  0.00    -0.270 OA
ATOM     14  H   UNL     1      -8.479   3.906   2.535  0.00  0.00    +0.155 HD
BRANCH  11  20
ATOM     15  C   UNL     1      -4.134   7.646   2.690  0.00  0.00    +0.044 C 
ATOM     16  C   UNL     1      -5.543   7.216   2.372  0.00  0.00    -0.048 A 
ATOM     17  C   UNL     1      -6.475   8.153   1.964  0.00  0.00    +0.007 A 
ATOM     18  C   UNL     1      -7.769   7.765   1.672  0.00  0.00    +0.048 A 
ATOM     19  C   UNL     1      -8.136   6.434   1.788  0.00  0.00    +0.141 A 
ATOM     20  C   UNL     1      -7.198   5.489   2.199  0.00  0.00    +0.076 A 
ATOM     21  C   UNL     1      -5.902   5.887   2.495  0.00  0.00    +0.030 A 
BRANCH  19  22
ATOM     22  O   UNL     1      -9.409   6.051   1.502  0.00  0.00    -0.493 OA
ATOM     23  C   UNL     1     -10.317   7.073   1.087  0.00  0.00    +0.277 C 
ENDBRANCH  19  22
ENDBRANCH  11  20
ENDBRANCH   1  12
BRANCH  10  24
ATOM     24  O   UNL     1      -4.786   1.092   1.754  0.00  0.00    -0.482 OA
BRANCH  24  25
ATOM     25  C   UNL     1      -3.855   0.025   1.563  0.00  0.00    +0.324 C 
BRANCH  25  26
ATOM     26  C   UNL     1      -2.475   0.594   1.352  0.00  0.00    +0.255 C 
ATOM     27  O   UNL     1      -2.306   1.795   1.364  0.00  0.00    -0.272 OA
ATOM     28  N   UNL     1      -1.429  -0.232   1.150  0.00  0.00    -0.283 N 
ATOM     29  H   UNL     1      -1.575  -1.187   1.068  0.00  0.00    +0.155 HD
BRANCH  28  30
ATOM     30  C   UNL     1      -0.134   0.290   1.058  0.00  0.00    +0.035 A 
ATOM     31  C   UNL     1       0.941  -0.424   1.573  0.00  0.00    +0.023 A 
ATOM     32  C   UNL     1       2.220   0.090   1.483  0.00  0.00    +0.004 A 
ATOM     33  C   UNL     1       2.434   1.315   0.881  0.00  0.00    +0.023 A 
ATOM     34  C   UNL     1       1.364   2.033   0.363  0.00  0.00    +0.035 A 
ATOM     35  C   UNL     1       0.078   1.520   0.452  0.00  0.00    +0.046 A 
BRANCH  34  36
ATOM     36  N   UNL     1       1.582   3.273  -0.247  0.00  0.00    -0.286 N 
ATOM     37  C   UNL     1       2.529   4.104   0.234  0.00  0.00    +0.214 C 
ATOM     38  O   UNL     1       3.244   3.745   1.145  0.00  0.00    -0.276 OA
ATOM     39  C   UNL     1       2.698   5.478  -0.362  0.00  0.00    +0.109 C 
ATOM     40  H   UNL     1       1.052   3.535  -1.016  0.00  0.00    +0.155 HD
ENDBRANCH  34  36
ENDBRANCH  28  30
ENDBRANCH  25  26
ENDBRANCH  24  25
ENDBRANCH  10  24
TORSDOF 8
