REMARK  Name = ZINC39945823
REMARK  8 active torsions:
REMARK  status: ('A' for Active; 'I' for Inactive)
REMARK    1  A    between atoms: C_1  and  O_2
REMARK    2  A    between atoms: O_2  and  C_3
REMARK    3  A    between atoms: C_3  and  C_5
REMARK    4  A    between atoms: C_7  and  N_16
REMARK    5  A    between atoms: C_17  and  C_19
REMARK    6  A    between atoms: C_19  and  S_20
REMARK    7  A    between atoms: S_20  and  C_21
REMARK    8  A    between atoms: C_25  and  C_27
REMARK                            x       y       z     vdW  Elec       q    Type
REMARK                         _______ _______ _______ _____ _____    ______ ____
ROOT
ATOM      1  N   UNL     1      -1.201  -3.090   0.214  0.00  0.00    -0.301 N 
ATOM      2  C   UNL     1      -2.422  -2.757   0.677  0.00  0.00    +0.224 C 
ATOM      3  O   UNL     1      -3.176  -2.107  -0.016  0.00  0.00    -0.275 OA
ATOM      4  H   UNL     1      -0.598  -3.610   0.768  0.00  0.00    +0.150 HD
ENDROOT
BRANCH   1   6
ATOM      5  C   UNL     1       0.657  -2.104  -1.120  0.00  0.00    +0.155 C 
ATOM      6  C   UNL     1      -0.784  -2.666  -1.125  0.00  0.00    +0.153 C 
ATOM      7  S   UNL     1      -0.517  -4.109  -2.239  0.00  0.00    -0.106 S 
ATOM      8  C   UNL     1       0.951  -3.533  -3.059  0.00  0.00    -0.013 C 
ATOM      9  C   UNL     1       1.412  -2.504  -2.362  0.00  0.00    -0.044 C 
ATOM     10  C   UNL     1       2.667  -1.754  -2.807  0.00  0.00    +0.032 C 
ATOM     11  C   UNL     1       3.461  -2.633  -3.772  0.00  0.00    +0.005 C 
ATOM     12  C   UNL     1       2.542  -3.116  -4.898  0.00  0.00    +0.005 C 
ATOM     13  C   UNL     1       1.544  -4.117  -4.311  0.00  0.00    +0.042 C 
BRANCH   5  14
ATOM     14  C   UNL     1       0.598  -0.600  -1.043  0.00  0.00    +0.317 C 
ATOM     15  O   UNL     1       1.088   0.070  -1.921  0.00  0.00    -0.250 OA
BRANCH  14  17
ATOM     16  C   UNL     1      -0.017   1.425   0.010  0.00  0.00    +0.280 C 
ATOM     17  O   UNL     1       0.002  -0.004   0.002  0.00  0.00    -0.467 OA
ENDBRANCH  14  17
ENDBRANCH   5  14
ENDBRANCH   1   6
BRANCH   2  18
ATOM     18  C   UNL     1      -2.851  -3.192   2.054  0.00  0.00    +0.173 C 
BRANCH  18  19
ATOM     19  S   UNL     1      -4.532  -2.594   2.382  0.00  0.00    -0.077 S 
BRANCH  19  20
ATOM     20  C   UNL     1      -4.883  -3.176   4.007  0.00  0.00    +0.185 A 
ATOM     21  N   UNL     1      -6.033  -2.981   4.689  0.00  0.00    -0.253 N 
ATOM     22  H   UNL     1      -6.816  -2.498   4.381  0.00  0.00    +0.191 HD
ATOM     23  N   UNL     1      -5.872  -3.615   5.932  0.00  0.00    -0.152 NA
ATOM     24  C   UNL     1      -4.670  -4.145   5.938  0.00  0.00    +0.184 A 
ATOM     25  N   UNL     1      -4.074  -3.882   4.766  0.00  0.00    -0.201 NA
BRANCH  24  26
ATOM     26  C   UNL     1      -4.072  -4.914   7.057  0.00  0.00    +0.039 A 
ATOM     27  C   UNL     1      -2.779  -5.422   6.944  0.00  0.00    +0.014 A 
ATOM     28  C   UNL     1      -2.227  -6.136   7.988  0.00  0.00    +0.021 A 
ATOM     29  C   UNL     1      -2.955  -6.349   9.146  0.00  0.00    +0.042 A 
ATOM     30  C   UNL     1      -4.239  -5.847   9.264  0.00  0.00    +0.040 A 
ATOM     31  C   UNL     1      -4.799  -5.126   8.228  0.00  0.00    +0.053 A 
ATOM     32 CL   UNL     1      -6.408  -4.491   8.379  0.00  0.00    -0.083 Cl
ATOM     33 CL   UNL     1      -2.254  -7.249  10.455  0.00  0.00    -0.083 Cl
ENDBRANCH  24  26
ENDBRANCH  19  20
ENDBRANCH  18  19
ENDBRANCH   2  18
TORSDOF 7
