REMARK  Name = ZINC13632920
REMARK  12 active torsions:
REMARK  status: ('A' for Active; 'I' for Inactive)
REMARK    1  A    between atoms: C_1  and  C_2
REMARK    2  A    between atoms: C_2  and  C_3
REMARK    3  A    between atoms: C_2  and  C_4
REMARK    4  A    between atoms: C_2  and  C_5
REMARK    5  A    between atoms: C_8  and  C_11
REMARK    6  A    between atoms: N_13  and  C_14
REMARK    7  A    between atoms: C_17  and  N_20
REMARK    8  A    between atoms: N_20  and  C_21
REMARK    9  A    between atoms: C_21  and  N_23
REMARK   10  A    between atoms: C_24  and  C_26
REMARK   11  A    between atoms: C_27  and  C_28
REMARK   12  A    between atoms: C_31  and  N_34
REMARK                            x       y       z     vdW  Elec       q    Type
REMARK                         _______ _______ _______ _____ _____    ______ ____
ROOT
ATOM      1  C   UNL     1       1.134   2.094  -0.059  0.00  0.00    +0.034 A 
ATOM      2  C   UNL     1       2.304   1.519  -0.536  0.00  0.00    +0.025 A 
ATOM      3  C   UNL     1       3.493   2.219  -0.474  0.00  0.00    +0.025 A 
ATOM      4  C   UNL     1       3.519   3.493   0.077  0.00  0.00    +0.033 A 
ATOM      5  C   UNL     1       2.350   4.066   0.559  0.00  0.00    +0.025 A 
ATOM      6  C   UNL     1       1.161   3.369   0.491  0.00  0.00    +0.025 A 
ENDROOT
BRANCH   1   9
ATOM      7  C   UNL     1      -1.224   2.041  -0.377  0.00  0.00    +0.248 C 
ATOM      8  O   UNL     1      -1.224   3.252  -0.487  0.00  0.00    -0.270 OA
ATOM      9  N   UNL     1      -0.073   1.387  -0.128  0.00  0.00    -0.282 N 
ATOM     10  H   UNL     1      -0.080   0.426   0.008  0.00  0.00    +0.155 HD
BRANCH   7  14
ATOM     11  C   UNL     1      -4.854  -0.127  -0.779  0.00  0.00    -0.042 A 
ATOM     12  C   UNL     1      -4.858   1.251  -0.904  0.00  0.00    +0.005 A 
ATOM     13  C   UNL     1      -3.682   1.961  -0.774  0.00  0.00    +0.013 A 
ATOM     14  C   UNL     1      -2.488   1.286  -0.516  0.00  0.00    +0.037 A 
ATOM     15  C   UNL     1      -2.491  -0.104  -0.396  0.00  0.00    +0.013 A 
ATOM     16  C   UNL     1      -3.674  -0.802  -0.522  0.00  0.00    +0.005 A 
BRANCH  11  18
ATOM     17  C   UNL     1      -6.731  -0.651  -2.312  0.00  0.00    +0.015 C 
ATOM     18  C   UNL     1      -6.143  -0.897  -0.922  0.00  0.00    -0.013 C 
ATOM     19  C   UNL     1      -5.867  -2.391  -0.741  0.00  0.00    +0.015 C 
ATOM     20  C   UNL     1      -7.137  -0.429   0.143  0.00  0.00    +0.015 C 
ENDBRANCH  11  18
ENDBRANCH   7  14
ENDBRANCH   1   9
BRANCH   4  21
ATOM     21  N   UNL     1       4.726   4.201   0.146  0.00  0.00    -0.297 N 
ATOM     22  H   UNL     1       5.328   4.208  -0.615  0.00  0.00    +0.154 HD
BRANCH  21  23
ATOM     23  C   UNL     1       5.051   4.872   1.269  0.00  0.00    +0.141 C 
ATOM     24  S   UNL     1       3.946   4.939   2.575  0.00  0.00    -0.018 S 
BRANCH  23  25
ATOM     25  N   UNL     1       6.245   5.490   1.363  0.00  0.00    -0.264 N 
ATOM     26  C   UNL     1       6.569   6.160   2.486  0.00  0.00    +0.242 C 
ATOM     27  O   UNL     1       5.785   6.208   3.415  0.00  0.00    -0.270 OA
ATOM     28  H   UNL     1       6.870   5.452   0.623  0.00  0.00    +0.157 HD
BRANCH  26  29
ATOM     29  C   UNL     1       7.866   6.831   2.589  0.00  0.00    +0.068 C 
ATOM     30  C   UNL     1       8.191   7.502   3.713  0.00  0.00    +0.013 C 
BRANCH  30  31
ATOM     31  C   UNL     1       9.495   8.177   3.816  0.00  0.00    -0.025 A 
ATOM     32  C   UNL     1      10.402   8.120   2.753  0.00  0.00    +0.010 A 
ATOM     33  C   UNL     1      11.619   8.759   2.855  0.00  0.00    +0.033 A 
ATOM     34  C   UNL     1      11.949   9.447   4.010  0.00  0.00    +0.126 A 
ATOM     35  C   UNL     1      11.059   9.504   5.068  0.00  0.00    +0.033 A 
ATOM     36  C   UNL     1       9.835   8.874   4.979  0.00  0.00    +0.010 A 
BRANCH  34  37
ATOM     37  N   UNL     1      13.260  10.125   4.114  0.00  0.00    +0.056 N 
ATOM     38  O   UNL     1      13.554  10.731   5.129  0.00  0.00    -0.126 OA
ATOM     39  O   UNL     1      14.046  10.077   3.184  0.00  0.00    -0.126 OA
ENDBRANCH  34  37
ENDBRANCH  30  31
ENDBRANCH  26  29
ENDBRANCH  23  25
ENDBRANCH  21  23
ENDBRANCH   4  21
TORSDOF 9
