REMARK  Name = ZINC22429094
REMARK  7 active torsions:
REMARK  status: ('A' for Active; 'I' for Inactive)
REMARK    1  A    between atoms: C_1  and  C_2
REMARK    2  A    between atoms: C_2  and  C_4
REMARK    3  A    between atoms: C_2  and  N_14
REMARK    4  A    between atoms: C_15  and  C_17
REMARK    5  A    between atoms: C_17  and  N_18
REMARK    6  A    between atoms: C_21  and  C_25
REMARK    7  A    between atoms: C_21  and  C_26
REMARK                            x       y       z     vdW  Elec       q    Type
REMARK                         _______ _______ _______ _____ _____    ______ ____
ROOT
ATOM      1  N   UNL     1       0.991   3.551   0.012  0.00  0.00    -0.215 N 
ATOM      2  C   UNL     1       0.838   4.301  -1.098  0.00  0.00    +0.251 C 
ATOM      3  O   UNL     1       0.908   3.927  -2.249  0.00  0.00    -0.272 OA
ATOM      4  C   UNL     1       0.556   5.707  -0.607  0.00  0.00    +0.135 C 
ATOM      5  N   UNL     1       0.595   5.576   0.860  0.00  0.00    -0.281 N 
ATOM      6  C   UNL     1       0.855   4.282   1.124  0.00  0.00    +0.310 C 
ATOM      7  O   UNL     1       0.955   3.829   2.247  0.00  0.00    -0.252 OA
ATOM      8  C   UNL     1       1.641   6.672  -1.090  0.00  0.00    +0.047 C 
ATOM      9  H   UNL     1       0.424   6.457   1.496  0.00  0.00    +0.152 HD
ENDROOT
BRANCH   4  10
ATOM     10  C   UNL     1      -0.804   6.170  -1.062  0.00  0.00    -0.012 A 
ATOM     11  C   UNL     1      -1.294   5.766  -2.290  0.00  0.00    +0.010 A 
ATOM     12  C   UNL     1      -2.542   6.186  -2.714  0.00  0.00    +0.050 A 
ATOM     13  C   UNL     1      -3.300   7.014  -1.903  0.00  0.00    +0.162 A 
ATOM     14  C   UNL     1      -2.808   7.420  -0.671  0.00  0.00    +0.162 A 
ATOM     15  C   UNL     1      -1.560   6.993  -0.247  0.00  0.00    +0.055 A 
ATOM     16  O   UNL     1      -3.562   8.236   0.120  0.00  0.00    -0.488 OA
ATOM     17  C   UNL     1      -3.755   9.568  -0.360  0.00  0.00    +0.232 C 
ATOM     18  C   UNL     1      -4.919   9.626  -1.337  0.00  0.00    +0.082 C 
ATOM     19  C   UNL     1      -4.651   8.828  -2.604  0.00  0.00    +0.232 C 
ATOM     20  O   UNL     1      -4.533   7.434  -2.309  0.00  0.00    -0.488 OA
ENDBRANCH   4  10
BRANCH   1  21
ATOM     21  C   UNL     1       1.278   2.115   0.001  0.00  0.00    +0.213 C 
BRANCH  21  23
ATOM     22  N   UNL     1       0.002  -0.004   0.002  0.00  0.00    -0.311 N 
ATOM     23  C   UNL     1      -0.016   1.344   0.009  0.00  0.00    +0.231 C 
ATOM     24  O   UNL     1      -1.075   1.936   0.018  0.00  0.00    -0.274 OA
ATOM     25  H   UNL     1       0.962  -0.541  -0.010  0.00  0.00    +0.149 HD
BRANCH  22  27
ATOM     26  C   UNL     1      -1.773  -0.899  -1.423  0.00  0.00    +0.028 C 
ATOM     27  C   UNL     1      -1.256  -0.754   0.010  0.00  0.00    +0.076 C 
BRANCH  27  28
ATOM     28  C   UNL     1      -1.020  -2.141   0.610  0.00  0.00    -0.010 C 
ATOM     29  C   UNL     1      -0.504  -1.996   2.043  0.00  0.00    +0.012 C 
ATOM     30  C   UNL     1      -0.267  -3.383   2.643  0.00  0.00    -0.010 C 
ATOM     31  C   UNL     1      -1.582  -4.166   2.651  0.00  0.00    +0.007 C 
ATOM     32  C   UNL     1      -2.098  -4.312   1.218  0.00  0.00    -0.010 C 
ATOM     33  C   UNL     1      -2.334  -2.924   0.618  0.00  0.00    +0.012 C 
ATOM     34  C   UNL     1      -1.063  -5.061   0.377  0.00  0.00    +0.007 C 
ATOM     35  C   UNL     1       0.252  -4.278   0.369  0.00  0.00    -0.010 C 
ATOM     36  C   UNL     1       0.768  -4.133   1.802  0.00  0.00    +0.007 C 
ATOM     37  C   UNL     1       0.015  -2.891  -0.231  0.00  0.00    +0.012 C 
ENDBRANCH  27  28
ENDBRANCH  22  27
ENDBRANCH  21  23
ENDBRANCH   1  21
TORSDOF 5
