REMARK  Name = ZINC59474803
REMARK  7 active torsions:
REMARK  status: ('A' for Active; 'I' for Inactive)
REMARK    1  A    between atoms: C_4  and  N_31
REMARK    2  A    between atoms: C_5  and  N_7
REMARK    3  A    between atoms: C_8  and  C_10
REMARK    4  A    between atoms: C_10  and  S_11
REMARK    5  A    between atoms: S_11  and  C_12
REMARK    6  A    between atoms: C_17  and  N_21
REMARK    7  A    between atoms: C_22  and  C_24
REMARK                            x       y       z     vdW  Elec       q    Type
REMARK                         _______ _______ _______ _____ _____    ______ ____
ROOT
ATOM      1  C   UNL     1      -1.550  -6.869  -0.006  0.00  0.00    +0.136 A 
ATOM      2  N   UNL     1      -0.453  -7.572   0.168  0.00  0.00    -0.233 NA
ATOM      3  C   UNL     1      -0.462  -8.921   0.255  0.00  0.00    +0.080 A 
ATOM      4  C   UNL     1       0.638  -9.790   0.439  0.00  0.00    +0.031 A 
ATOM      5  C   UNL     1       0.463 -11.137   0.506  0.00  0.00    +0.025 A 
ATOM      6  C   UNL     1      -0.800 -11.713   0.396  0.00  0.00    +0.035 A 
ATOM      7  C   UNL     1      -1.906 -10.892   0.214  0.00  0.00    +0.040 A 
ATOM      8  C   UNL     1      -1.731  -9.533   0.147  0.00  0.00    +0.042 A 
ATOM      9  S   UNL     1      -2.809  -8.136  -0.063  0.00  0.00    -0.061 S 
ENDROOT
BRANCH   6  10
ATOM     10  N   UNL     1      -0.954 -13.104   0.468  0.00  0.00    -0.281 N 
ATOM     11  C   UNL     1      -2.049 -13.632   1.050  0.00  0.00    +0.248 C 
ATOM     12  O   UNL     1      -2.943 -12.904   1.435  0.00  0.00    -0.270 OA
ATOM     13  H   UNL     1      -0.272 -13.686   0.098  0.00  0.00    +0.155 HD
BRANCH  11  14
ATOM     14  C   UNL     1      -2.163 -15.095   1.219  0.00  0.00    +0.037 A 
ATOM     15  C   UNL     1      -1.135 -15.933   0.783  0.00  0.00    +0.014 A 
ATOM     16  C   UNL     1      -1.246 -17.298   0.944  0.00  0.00    +0.021 A 
ATOM     17  C   UNL     1      -2.375 -17.838   1.538  0.00  0.00    +0.041 A 
ATOM     18  C   UNL     1      -3.398 -17.012   1.972  0.00  0.00    +0.021 A 
ATOM     19  C   UNL     1      -3.296 -15.645   1.822  0.00  0.00    +0.014 A 
ATOM     20 CL   UNL     1      -2.508 -19.557   1.737  0.00  0.00    -0.084 Cl
ENDBRANCH  11  14
ENDBRANCH   6  10
BRANCH   1  21
ATOM     21  S   UNL     1      -1.733  -5.122  -0.141  0.00  0.00    -0.089 S 
BRANCH  21  22
ATOM     22  C   UNL     1      -0.039  -4.490   0.006  0.00  0.00    +0.172 C 
BRANCH  22  24
ATOM     23  N   UNL     1       1.101  -2.295  -0.010  0.00  0.00    -0.283 N 
ATOM     24  C   UNL     1      -0.053  -2.987  -0.093  0.00  0.00    +0.228 C 
ATOM     25  O   UNL     1      -1.102  -2.399  -0.248  0.00  0.00    -0.275 OA
ATOM     26  H   UNL     1       1.947  -2.767   0.036  0.00  0.00    +0.155 HD
BRANCH  23  31
ATOM     27  C   UNL     1       0.021   1.155   0.659  0.00  0.00    +0.002 A 
ATOM     28  C   UNL     1       1.033   1.870   0.045  0.00  0.00    +0.002 A 
ATOM     29  C   UNL     1       2.067   1.205  -0.587  0.00  0.00    +0.034 A 
ATOM     30  C   UNL     1       2.093  -0.176  -0.607  0.00  0.00    +0.147 A 
ATOM     31  C   UNL     1       1.078  -0.896   0.009  0.00  0.00    +0.064 A 
ATOM     32  C   UNL     1       0.041  -0.226   0.643  0.00  0.00    +0.025 A 
BRANCH  30  33
ATOM     33  N   UNL     1       3.200  -0.886  -1.285  0.00  0.00    +0.058 N 
ATOM     34  O   UNL     1       4.035  -0.262  -1.898  0.00  0.00    -0.126 OA
ATOM     35  O   UNL     1       3.271  -2.092  -1.226  0.00  0.00    -0.126 OA
ENDBRANCH  30  33
ENDBRANCH  23  31
ENDBRANCH  22  24
ENDBRANCH  21  22
ENDBRANCH   1  21
TORSDOF 7
