REMARK  Name = ZINC33713307
REMARK  6 active torsions:
REMARK  status: ('A' for Active; 'I' for Inactive)
REMARK    1  A    between atoms: C_1  and  C_2
REMARK    2  A    between atoms: C_3  and  C_26
REMARK    3  A    between atoms: C_4  and  C_13
REMARK    4  A    between atoms: C_17  and  N_19
REMARK    5  A    between atoms: C_20  and  C_22
REMARK    6  A    between atoms: N_28  and  C_29
REMARK                            x       y       z     vdW  Elec       q    Type
REMARK                         _______ _______ _______ _____ _____    ______ ____
ROOT
ATOM      1  C   UNL     1      -0.376   1.905   0.409  0.00  0.00    +0.064 C 
ATOM      2  C   UNL     1      -0.111   0.423   0.332  0.00  0.00    +0.025 C 
ATOM      3  C   UNL     1      -1.153  -0.438   0.164  0.00  0.00    +0.058 C 
ATOM      4  C   UNL     1      -0.869  -1.916   0.032  0.00  0.00    +0.143 C 
ATOM      5  N   UNL     1       0.386  -2.208   0.755  0.00  0.00    -0.300 N 
ATOM      6  C   UNL     1       0.467  -3.444   1.520  0.00  0.00    +0.109 C 
ATOM      7  C   UNL     1       1.813  -4.136   1.354  0.00  0.00    +0.030 C 
ATOM      8  C   UNL     1       2.920  -3.221   1.888  0.00  0.00    +0.078 C 
ATOM      9  S   UNL     1       3.089  -1.813   0.762  0.00  0.00    -0.092 S 
ATOM     10  C   UNL     1       1.403  -1.308   0.649  0.00  0.00    +0.135 C 
ATOM     11  N   UNL     1       1.137  -0.027   0.436  0.00  0.00    -0.341 N 
ATOM     12  H   UNL     1       1.960   0.697   0.339  0.00  0.00    +0.167 HD
ENDROOT
BRANCH   4  13
ATOM     13  C   UNL     1      -0.715  -2.283  -1.422  0.00  0.00    -0.021 A 
ATOM     14  C   UNL     1       0.470  -2.013  -2.081  0.00  0.00    +0.006 A 
ATOM     15  C   UNL     1       0.616  -2.349  -3.414  0.00  0.00    +0.002 A 
ATOM     16  C   UNL     1      -0.424  -2.955  -4.093  0.00  0.00    +0.023 A 
ATOM     17  C   UNL     1      -1.616  -3.226  -3.434  0.00  0.00    +0.034 A 
ATOM     18  C   UNL     1      -1.757  -2.893  -2.093  0.00  0.00    +0.029 A 
BRANCH  17  19
ATOM     19  N   UNL     1      -2.671  -3.839  -4.118  0.00  0.00    -0.285 N 
ATOM     20  C   UNL     1      -2.414  -4.764  -5.065  0.00  0.00    +0.220 C 
ATOM     21  O   UNL     1      -1.268  -5.004  -5.382  0.00  0.00    -0.275 OA
ATOM     22  H   UNL     1      -3.711  -3.567  -3.884  0.00  0.00    +0.155 HD
BRANCH  20  23
ATOM     23  C   UNL     1      -3.550  -5.500  -5.728  0.00  0.00    +0.075 C 
ATOM     24  C   UNL     1      -4.069  -6.696  -4.913  0.00  0.00    +0.013 C 
ATOM     25  C   UNL     1      -4.188  -7.452  -6.246  0.00  0.00    +0.001 C 
ATOM     26  C   UNL     1      -3.090  -6.519  -6.783  0.00  0.00    +0.013 C 
ENDBRANCH  20  23
ENDBRANCH  17  19
ENDBRANCH   4  13
BRANCH   3  27
ATOM     27  C   UNL     1      -2.474   0.042   0.108  0.00  0.00    +0.248 C 
ATOM     28  O   UNL     1      -2.692   1.237   0.211  0.00  0.00    -0.270 OA
ATOM     29  N   UNL     1      -3.497  -0.818  -0.059  0.00  0.00    -0.282 N 
ATOM     30  H   UNL     1      -3.296  -1.887  -0.228  0.00  0.00    +0.155 HD
BRANCH  29  31
ATOM     31  C   UNL     1      -4.815  -0.353  -0.018  0.00  0.00    +0.034 A 
ATOM     32  C   UNL     1      -5.817  -1.150   0.522  0.00  0.00    +0.023 A 
ATOM     33  C   UNL     1      -7.117  -0.685   0.567  0.00  0.00    +0.002 A 
ATOM     34  C   UNL     1      -7.424   0.566   0.064  0.00  0.00    +0.000 A 
ATOM     35  C   UNL     1      -6.429   1.359  -0.479  0.00  0.00    +0.002 A 
ATOM     36  C   UNL     1      -5.126   0.903  -0.521  0.00  0.00    +0.023 A 
ENDBRANCH  29  31
ENDBRANCH   3  27
TORSDOF 5
