REMARK  Name = ZINC22242844
REMARK  5 active torsions:
REMARK  status: ('A' for Active; 'I' for Inactive)
REMARK    1  A    between atoms: C_4  and  N_7
REMARK    2  A    between atoms: C_8  and  C_10
REMARK    3  A    between atoms: N_15  and  C_17
REMARK    4  A    between atoms: C_17  and  C_18
REMARK    5  A    between atoms: C_23  and  C_26
REMARK                            x       y       z     vdW  Elec       q    Type
REMARK                         _______ _______ _______ _____ _____    ______ ____
ROOT
ATOM      1  C   UNL     1       2.837  -4.025  -0.053  0.00  0.00    +0.019 C 
ENDROOT
BRANCH   1   2
ATOM      2  C   UNL     1       2.610  -2.535  -0.053  0.00  0.00    +0.202 C 
ATOM      3  O   UNL     1       3.556  -1.777  -0.067  0.00  0.00    -0.277 OA
ATOM      4  N   UNL     1       1.354  -2.046  -0.037  0.00  0.00    -0.266 N 
ATOM      5  C   UNL     1       1.144  -0.672  -0.036  0.00  0.00    +0.165 A 
ATOM      6  N   UNL     1       0.007  -0.001  -0.022  0.00  0.00    -0.225 NA
ATOM      7  C   UNL     1      -0.009   1.324  -0.024  0.00  0.00    +0.083 A 
ATOM      8  C   UNL     1       1.173   2.009  -0.040  0.00  0.00    +0.077 A 
ATOM      9  S   UNL     1       2.341   0.655  -0.054  0.00  0.00    -0.060 S 
ATOM     10  H   UNL     1       0.496  -2.733  -0.024  0.00  0.00    +0.157 HD
BRANCH   7  11
ATOM     11  C   UNL     1      -1.299   2.056  -0.014  0.00  0.00    +0.039 A 
ATOM     12  C   UNL     1      -1.312   3.449  -0.010  0.00  0.00    +0.051 A 
ATOM     13  C   UNL     1      -2.517   4.127  -0.006  0.00  0.00    +0.124 A 
ATOM     14  C   UNL     1      -3.710   3.423   0.005  0.00  0.00    +0.041 A 
ATOM     15  C   UNL     1      -3.703   2.040   0.007  0.00  0.00    +0.042 A 
ATOM     16  C   UNL     1      -2.504   1.352  -0.003  0.00  0.00    +0.133 A 
ATOM     17  F   UNL     1      -2.498   0.001  -0.000  0.00  0.00    -0.205 F 
ATOM     18  F   UNL     1      -2.531   5.478  -0.008  0.00  0.00    -0.205 F 
ENDBRANCH   7  11
ENDBRANCH   1   2
BRANCH   1  23
ATOM     19  C   UNL     1       6.057  -5.948   0.283  0.00  0.00    +0.059 C 
ATOM     20  C   UNL     1       6.739  -5.489  -1.009  0.00  0.00    +0.009 C 
ATOM     21  C   UNL     1       6.405  -4.016  -1.258  0.00  0.00    -0.018 C 
ATOM     22  C   UNL     1       4.886  -3.848  -1.332  0.00  0.00    -0.078 C 
ATOM     23  N   UNL     1       4.280  -4.300  -0.072  0.00  0.00    +0.386 N 
ATOM     24  C   UNL     1       4.548  -5.724   0.165  0.00  0.00    -0.065 C 
ATOM     25  H   UNL     1       4.745  -3.731   0.746  0.00  0.00    -0.081 HD
BRANCH  19  27
ATOM     26  N   UNL     1       7.601  -7.847   0.638  0.00  0.00    -0.285 N 
ATOM     27  C   UNL     1       6.333  -7.413   0.504  0.00  0.00    +0.218 C 
ATOM     28  O   UNL     1       5.412  -8.201   0.562  0.00  0.00    -0.275 OA
ATOM     29  H   UNL     1       8.439  -7.146   0.511  0.00  0.00    +0.155 HD
BRANCH  26  33
ATOM     30  C   UNL     1       8.350 -11.846   1.537  0.00  0.00    +0.000 A 
ATOM     31  C   UNL     1       7.282 -11.509   0.725  0.00  0.00    +0.002 A 
ATOM     32  C   UNL     1       7.032 -10.185   0.425  0.00  0.00    +0.023 A 
ATOM     33  C   UNL     1       7.853  -9.190   0.940  0.00  0.00    +0.033 A 
ATOM     34  C   UNL     1       8.928  -9.532   1.750  0.00  0.00    +0.023 A 
ATOM     35  C   UNL     1       9.169 -10.858   2.051  0.00  0.00    +0.002 A 
ENDBRANCH  26  33
ENDBRANCH  19  27
ENDBRANCH   1  23
TORSDOF 5
