REMARK  Name = ZINC14467932
REMARK  7 active torsions:
REMARK  status: ('A' for Active; 'I' for Inactive)
REMARK    1  A    between atoms: C_1  and  C_2
REMARK    2  A    between atoms: C_2  and  C_3
REMARK    3  A    between atoms: C_2  and  C_4
REMARK    4  A    between atoms: C_4  and  C_5
REMARK    5  A    between atoms: N_7  and  C_8
REMARK    6  A    between atoms: C_21  and  C_24
REMARK    7  A    between atoms: C_29  and  O_30
REMARK                            x       y       z     vdW  Elec       q    Type
REMARK                         _______ _______ _______ _____ _____    ______ ____
ROOT
ATOM      1  C   UNL     1       6.555   6.275   0.429  0.00  0.00    +0.034 A 
ATOM      2  C   UNL     1       5.730   6.241   1.545  0.00  0.00    +0.025 A 
ATOM      3  C   UNL     1       4.727   5.297   1.623  0.00  0.00    +0.025 A 
ATOM      4  C   UNL     1       4.542   4.388   0.589  0.00  0.00    +0.031 A 
ATOM      5  C   UNL     1       5.360   4.417  -0.530  0.00  0.00    -0.018 A 
ATOM      6  C   UNL     1       6.369   5.368  -0.602  0.00  0.00    +0.029 A 
ATOM      7  C   UNL     1       5.197   3.459  -1.667  0.00  0.00    +0.049 C 
ATOM      8  C   UNL     1       6.274   2.401  -1.655  0.00  0.00    -0.023 C 
ATOM      9  C   UNL     1       5.785   1.251  -2.047  0.00  0.00    -0.030 C 
ATOM     10  C   UNL     1       4.311   1.386  -2.380  0.00  0.00    +0.033 C 
ATOM     11  C   UNL     1       3.882   2.658  -1.597  0.00  0.00    +0.029 C 
ATOM     12  C   UNL     1       3.602   2.236  -0.152  0.00  0.00    +0.109 C 
ATOM     13  N   UNL     1       3.519   3.436   0.687  0.00  0.00    -0.336 N 
ATOM     14  H   UNL     1       2.774   3.567   1.295  0.00  0.00    +0.147 HD
ENDROOT
BRANCH  12  15
ATOM     15  C   UNL     1       2.297   1.485  -0.090  0.00  0.00    +0.017 A 
ATOM     16  C   UNL     1       2.296   0.116   0.098  0.00  0.00    +0.029 A 
ATOM     17  C   UNL     1       1.099  -0.575   0.155  0.00  0.00    +0.043 A 
ATOM     18  C   UNL     1      -0.101   0.103   0.025  0.00  0.00    +0.043 A 
ATOM     19  C   UNL     1      -0.104   1.473  -0.163  0.00  0.00    +0.084 A 
ATOM     20  C   UNL     1       1.097   2.167  -0.221  0.00  0.00    +0.140 A 
ATOM     21 CL   UNL     1      -1.609   2.323  -0.328  0.00  0.00    -0.080 Cl
ATOM     22 CL   UNL     1       1.100  -2.294   0.398  0.00  0.00    -0.083 Cl
BRANCH  20  23
ATOM     23  O   UNL     1       1.096   3.514  -0.405  0.00  0.00    -0.505 OA
ATOM     24  H   UNL     1       0.987   4.023   0.410  0.00  0.00    +0.292 HD
ENDBRANCH  20  23
ENDBRANCH  12  15
BRANCH   1  27
ATOM     25  C   UNL     1       7.406   8.451   0.888  0.00  0.00    +0.217 C 
ATOM     26  O   UNL     1       6.335   8.756   1.369  0.00  0.00    -0.275 OA
ATOM     27  N   UNL     1       7.577   7.230   0.343  0.00  0.00    -0.285 N 
ATOM     28  H   UNL     1       8.408   7.012  -0.107  0.00  0.00    +0.155 HD
BRANCH  25  29
ATOM     29  C   UNL     1       8.545   9.438   0.898  0.00  0.00    +0.099 C 
BRANCH  29  31
ATOM     30  C   UNL     1       7.774  10.466   3.041  0.00  0.00    +0.008 C 
ATOM     31  C   UNL     1       8.090  10.736   1.569  0.00  0.00    -0.008 C 
ATOM     32  C   UNL     1       9.204  11.780   1.469  0.00  0.00    +0.008 C 
ENDBRANCH  29  31
ENDBRANCH  25  29
ENDBRANCH   1  27
TORSDOF 5
