REMARK  Name = ZINC51125003
REMARK  5 active torsions:
REMARK  status: ('A' for Active; 'I' for Inactive)
REMARK    1  A    between atoms: C_1  and  C_2
REMARK    2  A    between atoms: C_3  and  C_19
REMARK    3  A    between atoms: C_8  and  C_10
REMARK    4  A    between atoms: C_12  and  N_17
REMARK    5  A    between atoms: N_17  and  N_18
REMARK                            x       y       z     vdW  Elec       q    Type
REMARK                         _______ _______ _______ _____ _____    ______ ____
ROOT
ATOM      1  C   UNL     1       0.072  -3.344   4.595  0.00  0.00    +0.043 A 
ATOM      2  C   UNL     1       0.067  -2.866   5.906  0.00  0.00    +0.057 A 
ATOM      3  C   UNL     1       0.084  -3.778   6.955  0.00  0.00    +0.134 A 
ATOM      4  N   UNL     1       0.107  -5.080   6.719  0.00  0.00    -0.220 NA
ATOM      5  C   UNL     1       0.113  -5.567   5.492  0.00  0.00    +0.132 A 
ATOM      6  C   UNL     1       0.091  -4.729   4.394  0.00  0.00    +0.053 A 
ATOM      7 CL   UNL     1       0.142  -7.287   5.255  0.00  0.00    -0.062 Cl
ENDROOT
BRANCH   1  15
ATOM      8  C   UNL     1      -0.018   1.503   0.010  0.00  0.00    +0.066 C 
ATOM      9  C   UNL     1       0.002  -0.004   0.002  0.00  0.00    +0.050 A 
ATOM     10  C   UNL     1       0.006  -0.706  -1.158  0.00  0.00    +0.011 A 
ATOM     11  S   UNL     1       0.032  -2.379  -0.535  0.00  0.00    -0.057 S 
ATOM     12  C   UNL     1       0.036  -2.015   1.108  0.00  0.00    +0.165 A 
ATOM     13  N   UNL     1       0.023  -0.699   1.124  0.00  0.00    -0.230 NA
ATOM     14  N   UNL     1       0.053  -2.891   2.186  0.00  0.00    -0.261 N 
ATOM     15  C   UNL     1       0.053  -2.410   3.445  0.00  0.00    +0.250 C 
ATOM     16  O   UNL     1       0.038  -1.210   3.637  0.00  0.00    -0.270 OA
ATOM     17  C   UNL     1      -0.008  -0.210  -2.581  0.00  0.00    +0.053 C 
ATOM     18  H   UNL     1       0.066  -3.849   2.033  0.00  0.00    +0.157 HD
ENDBRANCH   1  15
BRANCH   3  19
ATOM     19  N   UNL     1       0.079  -3.318   8.267  0.00  0.00    -0.267 N 
ATOM     20  H   UNL     1       0.063  -2.364   8.446  0.00  0.00    +0.167 HD
BRANCH  19  21
ATOM     21  N   UNL     1       0.097  -4.207   9.303  0.00  0.00    -0.255 NA
ATOM     22  H   UNL     1       0.889  -4.829   9.233  0.00  0.00    +0.140 HD
ATOM     23  H   UNL     1       0.090  -3.728  10.191  0.00  0.00    +0.140 HD
ENDBRANCH  19  21
ENDBRANCH   3  19
TORSDOF 3
