REMARK  Name = ZINC20459080
REMARK  11 active torsions:
REMARK  status: ('A' for Active; 'I' for Inactive)
REMARK    1  A    between atoms: C_1  and  C_2
REMARK    2  A    between atoms: C_2  and  O_3
REMARK    3  A    between atoms: O_3  and  C_4
REMARK    4  A    between atoms: C_4  and  C_6
REMARK    5  A    between atoms: C_12  and  C_13
REMARK    6  A    between atoms: C_21  and  C_31
REMARK    7  A    between atoms: C_23  and  C_26
REMARK    8  A    between atoms: C_24  and  N_25
REMARK    9  A    between atoms: C_26  and  O_28
REMARK   10  A    between atoms: O_28  and  C_29
REMARK   11  A    between atoms: C_29  and  C_30
REMARK                            x       y       z     vdW  Elec       q    Type
REMARK                         _______ _______ _______ _____ _____    ______ ____
ROOT
ATOM      1  C   UNL     1       0.430   3.267   2.180  0.00  0.00    +0.110 C 
ATOM      2  C   UNL     1      -0.736   2.530   2.351  0.00  0.00    +0.100 A 
ATOM      3  N   UNL     1      -1.257   1.700   1.393  0.00  0.00    -0.289 N 
ATOM      4  C   UNL     1      -2.394   1.038   1.674  0.00  0.00    +0.267 A 
ATOM      5  O   UNL     1      -2.909   0.286   0.868  0.00  0.00    -0.266 OA
ATOM      6  C   UNL     1      -2.984   1.265   3.001  0.00  0.00    +0.079 A 
ATOM      7  C   UNL     1      -4.110   0.739   3.547  0.00  0.00    +0.031 C 
ATOM      8  S   UNL     1      -1.818   2.422   3.698  0.00  0.00    -0.065 S 
ATOM      9  C   UNL     1      -0.515   1.601   0.109  0.00  0.00    +0.163 C 
ATOM     10  C   UNL     1       0.748   2.393  -0.089  0.00  0.00    +0.085 C 
ATOM     11  C   UNL     1       1.200   3.208   0.939  0.00  0.00    +0.054 C 
ENDROOT
BRANCH   7  12
ATOM     12  C   UNL     1      -4.848  -0.314   2.836  0.00  0.00    +0.011 A 
ATOM     13  C   UNL     1      -4.156  -1.339   2.182  0.00  0.00    +0.011 A 
ATOM     14  C   UNL     1      -4.855  -2.323   1.518  0.00  0.00    +0.001 A 
ATOM     15  C   UNL     1      -6.240  -2.301   1.496  0.00  0.00    +0.003 A 
ATOM     16  C   UNL     1      -6.934  -1.293   2.139  0.00  0.00    +0.039 A 
ATOM     17  C   UNL     1      -6.249  -0.300   2.814  0.00  0.00    +0.131 A 
ATOM     18  F   UNL     1      -6.928   0.682   3.447  0.00  0.00    -0.205 F 
ENDBRANCH   7  12
BRANCH   9  19
ATOM     19  C   UNL     1      -1.468   1.992  -0.991  0.00  0.00    +0.015 A 
ATOM     20  C   UNL     1      -2.428   2.960  -0.762  0.00  0.00    +0.009 A 
ATOM     21  C   UNL     1      -3.298   3.323  -1.773  0.00  0.00    +0.001 A 
ATOM     22  C   UNL     1      -3.217   2.711  -3.010  0.00  0.00    +0.003 A 
ATOM     23  C   UNL     1      -2.262   1.739  -3.239  0.00  0.00    +0.039 A 
ATOM     24  C   UNL     1      -1.386   1.378  -2.229  0.00  0.00    +0.129 A 
ATOM     25  F   UNL     1      -0.452   0.428  -2.452  0.00  0.00    -0.205 F 
ENDBRANCH   9  19
BRANCH  11  26
ATOM     26  N   UNL     1       2.353   3.947   0.792  0.00  0.00    -0.357 N 
ATOM     27  H   UNL     1       2.925   3.895  -0.146  0.00  0.00    +0.142 HD
ATOM     28  H   UNL     1       2.703   4.589   1.614  0.00  0.00    +0.142 HD
ENDBRANCH  11  26
BRANCH   1  29
ATOM     29  C   UNL     1       0.883   4.097   3.236  0.00  0.00    +0.344 C 
ATOM     30  O   UNL     1       0.200   4.242   4.232  0.00  0.00    -0.245 OA
BRANCH  29  31
ATOM     31  O   UNL     1       2.073   4.726   3.135  0.00  0.00    -0.461 OA
BRANCH  31  33
ATOM     32  C   UNL     1       3.833   6.172   3.943  0.00  0.00    +0.048 C 
ATOM     33  C   UNL     1       2.467   5.547   4.237  0.00  0.00    +0.229 C 
ENDBRANCH  31  33
ENDBRANCH  29  31
ENDBRANCH   1  29
BRANCH  10  34
ATOM     34  C   UNL     1       1.457   2.309  -1.291  0.00  0.00    +0.339 C 
ATOM     35  O   UNL     1       2.092   1.303  -1.555  0.00  0.00    -0.245 OA
BRANCH  34  36
ATOM     36  O   UNL     1       1.438   3.344  -2.160  0.00  0.00    -0.462 OA
BRANCH  36  37
ATOM     37  C   UNL     1       2.184   3.190  -3.369  0.00  0.00    +0.229 C 
ATOM     38  C   UNL     1       2.044   4.453  -4.220  0.00  0.00    +0.048 C 
ENDBRANCH  36  37
ENDBRANCH  34  36
ENDBRANCH  10  34
TORSDOF 9
