REMARK  Name = ZINC49523826
REMARK  8 active torsions:
REMARK  status: ('A' for Active; 'I' for Inactive)
REMARK    1  A    between atoms: C_1  and  C_2
REMARK    2  A    between atoms: C_2  and  C_3
REMARK    3  A    between atoms: C_2  and  C_4
REMARK    4  A    between atoms: C_13  and  N_16
REMARK    5  A    between atoms: C_17  and  C_19
REMARK    6  A    between atoms: N_21  and  C_22
REMARK    7  A    between atoms: C_22  and  C_23
REMARK    8  A    between atoms: N_31  and  C_32
REMARK                            x       y       z     vdW  Elec       q    Type
REMARK                         _______ _______ _______ _____ _____    ______ ____
ROOT
ATOM      1  C   UNL     1      -9.033   0.526   2.035  0.00  0.00    +0.299 C 
ATOM      2  O   UNL     1      -9.078   1.585   2.626  0.00  0.00    -0.265 OA
ATOM      3  N   UNL     1     -10.138  -0.238   1.937  0.00  0.00    -0.307 N 
ATOM      4  H   UNL     1     -10.102  -1.085   1.465  0.00  0.00    +0.149 HD
ENDROOT
BRANCH   1   6
ATOM      5  N   UNL     1      -6.647   0.835   1.514  0.00  0.00    -0.278 N 
ATOM      6  C   UNL     1      -7.752   0.070   1.416  0.00  0.00    +0.303 C 
ATOM      7  O   UNL     1      -7.707  -0.989   0.825  0.00  0.00    -0.265 OA
ATOM      8  H   UNL     1      -6.661   1.642   2.051  0.00  0.00    +0.155 HD
BRANCH   5  18
ATOM      9  C   UNL     1      -1.746   1.542   2.323  0.00  0.00    +0.222 C 
ATOM     10  O   UNL     1      -2.723   2.170   2.676  0.00  0.00    -0.275 OA
ATOM     11  N   UNL     1      -1.836   0.682   1.290  0.00  0.00    -0.271 N 
ATOM     12  C   UNL     1      -0.631   0.039   0.747  0.00  0.00    +0.114 C 
ATOM     13  C   UNL     1      -0.712   0.110  -0.783  0.00  0.00    +0.024 C 
ATOM     14  C   UNL     1      -1.924  -0.695  -1.252  0.00  0.00    +0.038 C 
ATOM     15  C   UNL     1      -3.160  -0.271  -0.504  0.00  0.00    -0.026 A 
ATOM     16  C   UNL     1      -3.080   0.381   0.719  0.00  0.00    +0.041 A 
ATOM     17  C   UNL     1      -4.238   0.751   1.390  0.00  0.00    +0.047 A 
ATOM     18  C   UNL     1      -5.480   0.465   0.840  0.00  0.00    +0.036 A 
ATOM     19  C   UNL     1      -5.558  -0.191  -0.382  0.00  0.00    +0.024 A 
ATOM     20  C   UNL     1      -4.402  -0.548  -1.053  0.00  0.00    +0.007 A 
BRANCH   9  22
ATOM     21  C   UNL     1      -0.604   2.749   4.164  0.00  0.00    +0.017 C 
ATOM     22  C   UNL     1      -0.434   1.725   3.041  0.00  0.00    +0.069 C 
ATOM     23  C   UNL     1       0.013   0.387   3.634  0.00  0.00    +0.017 C 
ENDBRANCH   9  22
ENDBRANCH   5  18
ENDBRANCH   1   6
BRANCH   3  24
ATOM     24  C   UNL     1     -11.394   0.209   2.545  0.00  0.00    +0.108 C 
BRANCH  24  25
ATOM     25  C   UNL     1     -12.484  -0.835   2.290  0.00  0.00    +0.009 C 
ATOM     26  C   UNL     1     -12.766  -0.921   0.788  0.00  0.00    +0.024 C 
ATOM     27  C   UNL     1     -13.833  -1.991   0.534  0.00  0.00    +0.109 C 
ATOM     28  N   UNL     1     -15.013  -1.686   1.354  0.00  0.00    -0.285 N 
ATOM     29  C   UNL     1     -14.839  -1.493   2.800  0.00  0.00    +0.109 C 
ATOM     30  C   UNL     1     -13.761  -0.429   3.029  0.00  0.00    +0.024 C 
ATOM     31  C   UNL     1     -16.233  -1.585   0.790  0.00  0.00    +0.306 C 
ATOM     32  O   UNL     1     -16.352  -1.650  -0.419  0.00  0.00    -0.252 OA
ATOM     33  N   UNL     1     -17.322  -1.412   1.565  0.00  0.00    -0.269 N 
ATOM     34  H   UNL     1     -17.220  -1.267   2.519  0.00  0.00    +0.156 HD
BRANCH  33  35
ATOM     35  C   UNL     1     -18.601  -1.442   0.994  0.00  0.00    +0.035 A 
ATOM     36  C   UNL     1     -18.854  -2.257  -0.101  0.00  0.00    +0.026 A 
ATOM     37  C   UNL     1     -20.115  -2.285  -0.663  0.00  0.00    +0.040 A 
ATOM     38  C   UNL     1     -21.127  -1.502  -0.134  0.00  0.00    +0.124 A 
ATOM     39  C   UNL     1     -20.877  -0.689   0.958  0.00  0.00    +0.040 A 
ATOM     40  C   UNL     1     -19.618  -0.662   1.526  0.00  0.00    +0.026 A 
ATOM     41  F   UNL     1     -22.361  -1.531  -0.684  0.00  0.00    -0.205 F 
ENDBRANCH  33  35
ENDBRANCH  24  25
ENDBRANCH   3  24
TORSDOF 6
