REMARK  Name = ZINC39688736
REMARK  7 active torsions:
REMARK  status: ('A' for Active; 'I' for Inactive)
REMARK    1  A    between atoms: C_1  and  C_2
REMARK    2  A    between atoms: C_2  and  C_4
REMARK    3  A    between atoms: C_2  and  N_12
REMARK    4  A    between atoms: C_4  and  C_5
REMARK    5  A    between atoms: C_13  and  C_15
REMARK    6  A    between atoms: C_26  and  C_28
REMARK    7  A    between atoms: C_31  and  C_33
REMARK                            x       y       z     vdW  Elec       q    Type
REMARK                         _______ _______ _______ _____ _____    ______ ____
ROOT
ATOM      1  C   UNL     1       0.780  -1.133   3.576  0.00  0.00    +0.100 C 
ATOM      2  C   UNL     1       1.973  -0.207   3.907  0.00  0.00    +0.121 C 
ATOM      3  N   UNL     1       1.444   0.739   4.916  0.00  0.00    -0.294 N 
ATOM      4  C   UNL     1       0.577  -0.093   5.784  0.00  0.00    +0.115 C 
ATOM      5  C   UNL     1      -0.132  -1.058   4.812  0.00  0.00    -0.004 C 
ATOM      6  C   UNL     1      -0.275  -2.438   5.448  0.00  0.00    -0.010 C 
ATOM      7  C   UNL     1      -1.232  -2.349   6.640  0.00  0.00    -0.082 C 
ATOM      8  N   UNL     1      -2.539  -1.860   6.184  0.00  0.00    +0.379 N 
ATOM      9  C   UNL     1      -2.409  -0.496   5.660  0.00  0.00    -0.082 C 
ATOM     10  C   UNL     1      -1.501  -0.506   4.426  0.00  0.00    -0.010 C 
ATOM     11  C   UNL     1       1.694   2.059   5.022  0.00  0.00    +0.282 C 
ATOM     12  O   UNL     1       1.179   2.707   5.915  0.00  0.00    -0.267 OA
ATOM     13  H   UNL     1      -2.889  -2.466   5.458  0.00  0.00    -0.086 HD
ATOM     14  H   UNL     1      -3.186  -1.861   6.959  0.00  0.00    -0.086 HD
ENDROOT
BRANCH  11  15
ATOM     15  C   UNL     1       2.586   2.715   4.063  0.00  0.00    +0.190 A 
ATOM     16  C   UNL     1       2.930   4.049   4.059  0.00  0.00    +0.055 A 
ATOM     17  C   UNL     1       3.796   4.239   2.977  0.00  0.00    +0.050 A 
ATOM     18  C   UNL     1       3.947   3.028   2.366  0.00  0.00    +0.136 A 
ATOM     19  O   UNL     1       3.219   2.116   3.032  0.00  0.00    -0.450 OA
BRANCH  18  20
ATOM     20  C   UNL     1       4.778   2.762   1.175  0.00  0.00    +0.017 A 
ATOM     21  C   UNL     1       5.500   3.799   0.579  0.00  0.00    +0.014 A 
ATOM     22  C   UNL     1       6.275   3.545  -0.533  0.00  0.00    +0.039 A 
ATOM     23  C   UNL     1       6.338   2.264  -1.060  0.00  0.00    +0.123 A 
ATOM     24  C   UNL     1       5.623   1.232  -0.473  0.00  0.00    +0.039 A 
ATOM     25  C   UNL     1       4.850   1.473   0.643  0.00  0.00    +0.014 A 
ATOM     26  F   UNL     1       7.099   2.022  -2.150  0.00  0.00    -0.205 F 
ENDBRANCH  18  20
ENDBRANCH  11  15
BRANCH   1  28
ATOM     27  N   UNL     1      -0.554  -1.508   1.527  0.00  0.00    -0.312 N 
ATOM     28  C   UNL     1       0.051  -0.633   2.355  0.00  0.00    +0.218 C 
ATOM     29  O   UNL     1       0.009   0.555   2.118  0.00  0.00    -0.275 OA
ATOM     30  H   UNL     1      -0.520  -2.458   1.717  0.00  0.00    +0.149 HD
BRANCH  27  32
ATOM     31  C   UNL     1      -0.269  -0.846  -0.810  0.00  0.00    +0.028 C 
ATOM     32  C   UNL     1      -1.263  -1.022   0.341  0.00  0.00    +0.074 C 
BRANCH  32  33
ATOM     33  C   UNL     1      -2.335  -2.036  -0.063  0.00  0.00    +0.057 C 
BRANCH  33  34
ATOM     34  C   UNL     1      -3.381  -2.119   1.019  0.00  0.00    -0.045 A 
ATOM     35  C   UNL     1      -3.234  -3.025   2.053  0.00  0.00    +0.006 A 
ATOM     36  C   UNL     1      -4.192  -3.101   3.047  0.00  0.00    +0.038 A 
ATOM     37  C   UNL     1      -5.298  -2.270   3.006  0.00  0.00    +0.123 A 
ATOM     38  C   UNL     1      -5.444  -1.363   1.970  0.00  0.00    +0.038 A 
ATOM     39  C   UNL     1      -4.482  -1.285   0.981  0.00  0.00    +0.006 A 
ATOM     40  F   UNL     1      -6.236  -2.344   3.976  0.00  0.00    -0.205 F 
ENDBRANCH  33  34
ENDBRANCH  32  33
ENDBRANCH  27  32
ENDBRANCH   1  28
TORSDOF 6
