REMARK  Name = ZINC03142232
REMARK  8 active torsions:
REMARK  status: ('A' for Active; 'I' for Inactive)
REMARK    1  A    between atoms: C_6  and  N_11
REMARK    2  A    between atoms: N_11  and  C_12
REMARK    3  A    between atoms: C_12  and  N_14
REMARK    4  A    between atoms: N_14  and  C_15
REMARK    5  A    between atoms: C_15  and  C_17
REMARK    6  A    between atoms: C_15  and  N_21
REMARK    7  A    between atoms: C_22  and  C_24
REMARK    8  A    between atoms: C_28  and  N_30
REMARK                            x       y       z     vdW  Elec       q    Type
REMARK                         _______ _______ _______ _____ _____    ______ ____
ROOT
ATOM      1  C   UNL     1      -0.662   2.788   1.521  0.00  0.00    +0.211 C 
ENDROOT
BRANCH   1   2
ATOM      2  C   UNL     1      -0.117   2.345   0.162  0.00  0.00    +0.225 C 
ATOM      3 CL   UNL     1      -0.409   0.579  -0.056  0.00  0.00    -0.080 Cl
ATOM      4 CL   UNL     1       1.654   2.675   0.089  0.00  0.00    -0.080 Cl
ATOM      5 CL   UNL     1      -0.953   3.258  -1.148  0.00  0.00    -0.080 Cl
ENDBRANCH   1   2
BRANCH   1   6
ATOM      6  N   UNL     1      -0.425   4.223   1.698  0.00  0.00    -0.290 N 
ATOM      7  C   UNL     1      -1.406   5.014   2.175  0.00  0.00    +0.246 C 
ATOM      8  O   UNL     1      -2.488   4.538   2.458  0.00  0.00    -0.270 OA
ATOM      9  H   UNL     1       0.438   4.603   1.472  0.00  0.00    +0.151 HD
BRANCH   7  10
ATOM     10  C   UNL     1      -1.167   6.463   2.353  0.00  0.00    +0.039 A 
ATOM     11  C   UNL     1       0.074   7.013   2.029  0.00  0.00    +0.013 A 
ATOM     12  C   UNL     1       0.291   8.365   2.198  0.00  0.00    +0.003 A 
ATOM     13  C   UNL     1      -0.718   9.175   2.688  0.00  0.00    +0.033 A 
ATOM     14  C   UNL     1      -1.950   8.635   3.011  0.00  0.00    +0.127 A 
ATOM     15  C   UNL     1      -2.182   7.286   2.842  0.00  0.00    +0.045 A 
BRANCH  14  16
ATOM     16  N   UNL     1      -3.025   9.509   3.534  0.00  0.00    +0.056 N 
ATOM     17  O   UNL     1      -2.823  10.701   3.680  0.00  0.00    -0.126 OA
ATOM     18  O   UNL     1      -4.110   9.036   3.819  0.00  0.00    -0.126 OA
ENDBRANCH  14  16
ENDBRANCH   7  10
ENDBRANCH   1   6
BRANCH   1  19
ATOM     19  N   UNL     1       0.018   2.046   2.586  0.00  0.00    -0.305 N 
ATOM     20  H   UNL     1       0.981   1.934   2.560  0.00  0.00    +0.150 HD
BRANCH  19  21
ATOM     21  C   UNL     1      -0.696   1.519   3.601  0.00  0.00    +0.136 C 
ATOM     22  S   UNL     1      -2.396   1.716   3.646  0.00  0.00    -0.019 S 
BRANCH  21  23
ATOM     23  N   UNL     1      -0.070   0.836   4.580  0.00  0.00    -0.297 N 
ATOM     24  H   UNL     1       0.880   0.655   4.514  0.00  0.00    +0.154 HD
BRANCH  23  30
ATOM     25  C   UNL     1      -2.744  -2.157   9.514  0.00  0.00    +0.001 A 
ATOM     26  C   UNL     1      -1.800  -3.000   8.930  0.00  0.00    +0.001 A 
ATOM     27  C   UNL     1      -1.079  -2.600   7.847  0.00  0.00    +0.008 A 
ATOM     28  C   UNL     1      -1.287  -1.319   7.307  0.00  0.00    -0.016 A 
ATOM     29  C   UNL     1      -0.561  -0.874   6.191  0.00  0.00    +0.031 A 
ATOM     30  C   UNL     1      -0.792   0.389   5.691  0.00  0.00    +0.033 A 
ATOM     31  C   UNL     1      -1.739   1.231   6.287  0.00  0.00    +0.024 A 
ATOM     32  C   UNL     1      -2.458   0.820   7.365  0.00  0.00    +0.010 A 
ATOM     33  C   UNL     1      -2.247  -0.462   7.901  0.00  0.00    -0.018 A 
ATOM     34  C   UNL     1      -2.972  -0.910   9.019  0.00  0.00    +0.008 A 
ENDBRANCH  23  30
ENDBRANCH  21  23
ENDBRANCH  19  21
ENDBRANCH   1  19
TORSDOF 8
