REMARK  Name = ZINC24976263
REMARK  7 active torsions:
REMARK  status: ('A' for Active; 'I' for Inactive)
REMARK    1  A    between atoms: C_1  and  C_2
REMARK    2  A    between atoms: C_5  and  N_9
REMARK    3  A    between atoms: C_6  and  C_8
REMARK    4  A    between atoms: C_10  and  C_12
REMARK    5  A    between atoms: C_15  and  N_18
REMARK    6  A    between atoms: N_18  and  S_19
REMARK    7  A    between atoms: S_19  and  C_22
REMARK                            x       y       z     vdW  Elec       q    Type
REMARK                         _______ _______ _______ _____ _____    ______ ____
ROOT
ATOM      1  C   UNL     1       4.944   1.966  -4.251  0.00  0.00    +0.037 A 
ATOM      2  C   UNL     1       5.693   0.788  -4.330  0.00  0.00    +0.015 A 
ATOM      3  C   UNL     1       5.470  -0.229  -3.429  0.00  0.00    +0.025 A 
ATOM      4  C   UNL     1       4.500  -0.085  -2.441  0.00  0.00    +0.048 A 
ATOM      5  C   UNL     1       3.749   1.085  -2.364  0.00  0.00    +0.025 A 
ATOM      6  C   UNL     1       3.970   2.107  -3.258  0.00  0.00    +0.015 A 
ENDROOT
BRANCH   1   8
ATOM      7  N   UNL     1       4.457   4.192  -5.138  0.00  0.00    -0.281 N 
ATOM      8  C   UNL     1       5.180   3.057  -5.214  0.00  0.00    +0.248 C 
ATOM      9  O   UNL     1       6.028   2.933  -6.078  0.00  0.00    -0.270 OA
ATOM     10  H   UNL     1       3.630   4.269  -4.417  0.00  0.00    +0.155 HD
BRANCH   7  15
ATOM     11  C   UNL     1       5.682   8.570  -8.530  0.00  0.00    +0.044 C 
ATOM     12  C   UNL     1       5.357   7.407  -7.629  0.00  0.00    -0.050 A 
ATOM     13  C   UNL     1       6.332   6.473  -7.329  0.00  0.00    +0.005 A 
ATOM     14  C   UNL     1       6.037   5.406  -6.503  0.00  0.00    +0.024 A 
ATOM     15  C   UNL     1       4.760   5.272  -5.974  0.00  0.00    +0.037 A 
ATOM     16  C   UNL     1       3.782   6.208  -6.282  0.00  0.00    -0.029 A 
ATOM     17  C   UNL     1       4.085   7.277  -7.104  0.00  0.00    +0.008 A 
ATOM     18  C   UNL     1       2.393   6.063  -5.715  0.00  0.00    +0.045 C 
ENDBRANCH   7  15
ENDBRANCH   1   8
BRANCH   4  19
ATOM     19  N   UNL     1       4.277  -1.114  -1.533  0.00  0.00    -0.216 N 
ATOM     20  H   UNL     1       3.376  -1.740  -1.621  0.00  0.00    +0.174 HD
BRANCH  19  21
ATOM     21  S   UNL     1       5.367  -1.398  -0.319  0.00  0.00    +0.072 S 
ATOM     22  O   UNL     1       6.651  -1.435  -0.927  0.00  0.00    -0.150 OA
ATOM     23  O   UNL     1       4.854  -2.482   0.442  0.00  0.00    -0.150 OA
BRANCH  21  24
ATOM     24  C   UNL     1       5.350   0.012   0.737  0.00  0.00    +0.112 A 
ATOM     25  C   UNL     1       4.409   0.108   1.745  0.00  0.00    +0.032 A 
ATOM     26  C   UNL     1       4.392   1.213   2.575  0.00  0.00    +0.051 A 
ATOM     27  C   UNL     1       5.319   2.229   2.397  0.00  0.00    +0.162 A 
ATOM     28  C   UNL     1       6.266   2.132   1.385  0.00  0.00    +0.164 A 
ATOM     29  C   UNL     1       6.278   1.020   0.556  0.00  0.00    +0.078 A 
ATOM     30  O   UNL     1       7.190   3.114   1.199  0.00  0.00    -0.485 OA
ATOM     31  C   UNL     1       6.914   4.381   1.807  0.00  0.00    +0.270 C 
ATOM     32  C   UNL     1       6.460   4.132   3.252  0.00  0.00    +0.270 C 
ATOM     33  O   UNL     1       5.284   3.316   3.217  0.00  0.00    -0.485 OA
ENDBRANCH  21  24
ENDBRANCH  19  21
ENDBRANCH   4  19
TORSDOF 5
