REMARK  Name = ZINC20521026
REMARK  2 active torsions:
REMARK  status: ('A' for Active; 'I' for Inactive)
REMARK    1  A    between atoms: C_3  and  N_9
REMARK    2  A    between atoms: C_4  and  N_8
REMARK                            x       y       z     vdW  Elec       q    Type
REMARK                         _______ _______ _______ _____ _____    ______ ____
ROOT
ATOM      1  N   UNL     1       3.585   2.139  -0.021  0.00  0.00    -0.208 N 
ATOM      2  C   UNL     1       4.212   2.534  -1.163  0.00  0.00    +0.230 C 
ATOM      3  O   UNL     1       3.755   2.527  -2.285  0.00  0.00    -0.275 OA
ATOM      4  C   UNL     1       5.580   2.977  -0.750  0.00  0.00    +0.088 C 
ATOM      5  C   UNL     1       6.252   4.107  -1.499  0.00  0.00    +0.013 C 
ATOM      6  C   UNL     1       7.609   4.336  -0.803  0.00  0.00    +0.001 C 
ATOM      7  C   UNL     1       7.442   4.651   0.679  0.00  0.00    +0.001 C 
ATOM      8  C   UNL     1       6.590   3.593   1.404  0.00  0.00    +0.013 C 
ATOM      9  C   UNL     1       5.273   3.505   0.683  0.00  0.00    +0.088 C 
ATOM     10  C   UNL     1       4.237   2.517   1.112  0.00  0.00    +0.230 C 
ATOM     11  O   UNL     1       4.023   2.130   2.240  0.00  0.00    -0.275 OA
ENDROOT
BRANCH   1  14
ATOM     12  C   UNL     1      -0.017   1.379   0.010  0.00  0.00    +0.017 A 
ATOM     13  C   UNL     1       1.169   2.091   0.002  0.00  0.00    +0.027 A 
ATOM     14  C   UNL     1       2.381   1.418  -0.013  0.00  0.00    +0.065 A 
ATOM     15  C   UNL     1       2.401   0.024  -0.021  0.00  0.00    +0.048 A 
ATOM     16  C   UNL     1       1.207  -0.683  -0.013  0.00  0.00    +0.040 A 
ATOM     17  C   UNL     1       0.002  -0.004   0.002  0.00  0.00    +0.020 A 
ATOM     18 BR   UNL     1      -1.624  -0.969   0.012  0.00  0.00    -0.050 Br
BRANCH  15  19
ATOM     19  N   UNL     1       3.620  -0.660  -0.037  0.00  0.00    -0.356 N 
ATOM     20  H   UNL     1       4.454  -0.164  -0.042  0.00  0.00    +0.142 HD
ATOM     21  H   UNL     1       3.632  -1.630  -0.042  0.00  0.00    +0.142 HD
ENDBRANCH  15  19
ENDBRANCH   1  14
TORSDOF 2
