REMARK  Name = ZINC47309404
REMARK  6 active torsions:
REMARK  status: ('A' for Active; 'I' for Inactive)
REMARK    1  A    between atoms: C_1  and  O_2
REMARK    2  A    between atoms: O_2  and  C_3
REMARK    3  A    between atoms: C_3  and  C_4
REMARK    4  A    between atoms: C_11  and  N_24
REMARK    5  A    between atoms: C_12  and  C_22
REMARK    6  A    between atoms: C_13  and  C_15
REMARK                            x       y       z     vdW  Elec       q    Type
REMARK                         _______ _______ _______ _____ _____    ______ ____
ROOT
ATOM      1  C   UNL     1       0.571  -2.220   1.022  0.00  0.00    +0.069 A 
ATOM      2  C   UNL     1       1.227  -3.035   1.861  0.00  0.00    +0.047 A 
ATOM      3  C   UNL     1       0.990  -4.366   1.456  0.00  0.00    +0.244 A 
ATOM      4  N   UNL     1       0.216  -4.337   0.410  0.00  0.00    -0.135 NA
ATOM      5  N   UNL     1      -0.070  -2.994   0.116  0.00  0.00    -0.276 N 
ATOM      6  H   UNL     1      -0.627  -2.676  -0.612  0.00  0.00    +0.189 HD
ATOM      7  O   UNL     1       1.529  -5.428   2.114  0.00  0.00    -0.422 OA
ATOM      8  C   UNL     1       2.513  -5.174   2.999  0.00  0.00    +0.200 C 
ATOM      9  C   UNL     1       2.823  -3.948   3.468  0.00  0.00    +0.094 C 
ATOM     10  C   UNL     1       2.089  -2.698   3.051  0.00  0.00    +0.075 C 
ENDROOT
BRANCH  10  11
ATOM     11  C   UNL     1       1.210  -2.208   4.204  0.00  0.00    +0.006 C 
ATOM     12  C   UNL     1       0.343  -3.364   4.718  0.00  0.00    +0.009 C 
ATOM     13  C   UNL     1      -0.648  -2.807   5.743  0.00  0.00    +0.027 C 
ATOM     14  C   UNL     1       0.072  -1.962   6.752  0.00  0.00    -0.031 C 
ATOM     15  C   UNL     1       1.263  -1.484   6.580  0.00  0.00    -0.031 C 
ATOM     16  C   UNL     1       2.093  -1.712   5.350  0.00  0.00    +0.031 C 
ENDBRANCH  10  11
BRANCH   8  17
ATOM     17  N   UNL     1       3.250  -6.238   3.456  0.00  0.00    -0.328 N 
ATOM     18  H   UNL     1       3.055  -7.134   3.141  0.00  0.00    +0.145 HD
ATOM     19  H   UNL     1       3.966  -6.093   4.094  0.00  0.00    +0.145 HD
ENDBRANCH   8  17
BRANCH   9  20
ATOM     20  C   UNL     1       3.899  -3.827   4.405  0.00  0.00    +0.100 C 
ATOM     21  N   UNL     1       4.753  -3.731   5.149  0.00  0.00    -0.191 NA
ENDBRANCH   9  20
BRANCH   1  22
ATOM     22  C   UNL     1       0.546  -0.714   1.082  0.00  0.00    +0.214 C 
BRANCH  22  24
ATOM     23  C   UNL     1      -0.252   1.222  -0.086  0.00  0.00    +0.194 C 
ATOM     24  O   UNL     1      -0.169  -0.205  -0.046  0.00  0.00    -0.377 OA
ENDBRANCH  22  24
ENDBRANCH   1  22
TORSDOF 5
