REMARK  Name = ZINC20058168
REMARK  5 active torsions:
REMARK  status: ('A' for Active; 'I' for Inactive)
REMARK    1  A    between atoms: C_5  and  C_8
REMARK    2  A    between atoms: C_17  and  C_25
REMARK    3  A    between atoms: C_18  and  N_24
REMARK    4  A    between atoms: C_19  and  C_20
REMARK    5  A    between atoms: C_19  and  C_22
REMARK                            x       y       z     vdW  Elec       q    Type
REMARK                         _______ _______ _______ _____ _____    ______ ____
ROOT
ATOM      1  C   UNL     1       1.045   3.253  -1.062  0.00  0.00    +0.043 C 
ATOM      2  C   UNL     1       2.077   2.424  -0.295  0.00  0.00    +0.027 C 
ATOM      3  C   UNL     1       3.454   2.529  -0.908  0.00  0.00    +0.009 C 
ATOM      4  C   UNL     1       3.774   1.331  -1.799  0.00  0.00    +0.005 C 
ATOM      5  C   UNL     1       3.683   0.057  -0.946  0.00  0.00    +0.027 C 
ATOM      6  C   UNL     1       2.271  -0.053  -0.433  0.00  0.00    -0.022 C 
ATOM      7  C   UNL     1       1.556   1.023  -0.169  0.00  0.00    -0.029 C 
ATOM      8  C   UNL     1       0.133   0.868   0.232  0.00  0.00    +0.074 C 
ATOM      9  C   UNL     1      -0.694   1.942   0.176  0.00  0.00    +0.054 C 
ATOM     10  C   UNL     1      -0.249   3.309  -0.250  0.00  0.00    +0.185 C 
ENDROOT
BRANCH   1  15
ATOM     11  C   UNL     1       0.072   3.039  -4.764  0.00  0.00    +0.005 C 
ATOM     12  C   UNL     1      -1.351   2.540  -4.505  0.00  0.00    +0.027 C 
ATOM     13  C   UNL     1      -1.395   1.738  -3.237  0.00  0.00    -0.031 C 
ATOM     14  C   UNL     1      -0.474   1.768  -2.328  0.00  0.00    -0.027 C 
ATOM     15  C   UNL     1       0.771   2.602  -2.419  0.00  0.00    +0.018 C 
ATOM     16  C   UNL     1       0.599   3.691  -3.480  0.00  0.00    +0.008 C 
ENDBRANCH   1  15
BRANCH   9  17
ATOM     17  N   UNL     1      -2.003   1.769   0.528  0.00  0.00    -0.358 N 
ATOM     18  H   UNL     1      -2.699   2.620   0.494  0.00  0.00    +0.142 HD
ATOM     19  H   UNL     1      -2.361   0.778   0.845  0.00  0.00    +0.142 HD
ENDBRANCH   9  17
BRANCH  10  20
ATOM     20  C   UNL     1      -0.030   4.137   0.947  0.00  0.00    +0.091 C 
ATOM     21  N   UNL     1       0.140   4.777   1.871  0.00  0.00    -0.195 NA
ENDBRANCH  10  20
BRANCH  10  22
ATOM     22  C   UNL     1      -1.305   3.924  -1.070  0.00  0.00    +0.091 C 
ATOM     23  N   UNL     1      -2.120   4.398  -1.703  0.00  0.00    -0.195 NA
ENDBRANCH  10  22
BRANCH   8  24
ATOM     24  C   UNL     1      -0.360  -0.403   0.670  0.00  0.00    +0.101 C 
ATOM     25  N   UNL     1      -0.752  -1.411   1.019  0.00  0.00    -0.191 NA
ENDBRANCH   8  24
TORSDOF 5
