REMARK  Name = ZINC25577882
REMARK  8 active torsions:
REMARK  status: ('A' for Active; 'I' for Inactive)
REMARK    1  A    between atoms: C_1  and  C_2
REMARK    2  A    between atoms: C_8  and  C_14
REMARK    3  A    between atoms: C_11  and  C_13
REMARK    4  A    between atoms: N_16  and  C_17
REMARK    5  A    between atoms: C_20  and  N_24
REMARK    6  A    between atoms: C_25  and  C_27
REMARK    7  A    between atoms: C_31  and  S_33
REMARK    8  A    between atoms: S_33  and  C_36
REMARK                            x       y       z     vdW  Elec       q    Type
REMARK                         _______ _______ _______ _____ _____    ______ ____
ROOT
ATOM      1  C   UNL     1      -2.366  -1.576   7.480  0.00  0.00    +0.035 A 
ATOM      2  C   UNL     1      -3.679  -1.593   7.028  0.00  0.00    +0.025 A 
ATOM      3  C   UNL     1      -4.668  -2.167   7.802  0.00  0.00    +0.026 A 
ATOM      4  C   UNL     1      -4.353  -2.718   9.037  0.00  0.00    +0.052 A 
ATOM      5  C   UNL     1      -3.039  -2.696   9.492  0.00  0.00    +0.064 A 
ATOM      6  C   UNL     1      -2.049  -2.127   8.715  0.00  0.00    +0.045 A 
ATOM      7 CL   UNL     1      -2.644  -3.384  11.036  0.00  0.00    -0.082 Cl
ENDROOT
BRANCH   1  10
ATOM      8  C   UNL     1      -0.121  -1.525   6.691  0.00  0.00    +0.252 C 
ATOM      9  O   UNL     1       0.149  -2.448   7.435  0.00  0.00    -0.270 OA
ATOM     10  N   UNL     1      -1.362  -0.999   6.693  0.00  0.00    -0.281 N 
ATOM     11  H   UNL     1      -1.587  -0.117   6.076  0.00  0.00    +0.155 HD
BRANCH   8  18
ATOM     12  C   UNL     1       5.633  -0.813   5.285  0.00  0.00    +0.016 C 
ATOM     13  C   UNL     1       4.441  -1.763   5.151  0.00  0.00    +0.060 C 
ATOM     14  C   UNL     1       3.155  -0.991   4.927  0.00  0.00    +0.001 A 
ATOM     15  C   UNL     1       2.838   0.053   4.085  0.00  0.00    +0.007 A 
ATOM     16  C   UNL     1       1.561   0.589   4.086  0.00  0.00    +0.001 A 
ATOM     17  C   UNL     1       0.600   0.079   4.933  0.00  0.00    +0.017 A 
ATOM     18  C   UNL     1       0.909  -0.980   5.787  0.00  0.00    +0.079 A 
ATOM     19  C   UNL     1       2.205  -1.528   5.784  0.00  0.00    +0.137 A 
ATOM     20  O   UNL     1       2.717  -2.558   6.506  0.00  0.00    -0.487 OA
ATOM     21  C   UNL     1       4.153  -2.481   6.490  0.00  0.00    +0.178 C 
ATOM     22  C   UNL     1       4.771  -3.880   6.499  0.00  0.00    +0.052 C 
ENDBRANCH   8  18
ENDBRANCH   1  10
BRANCH   4  23
ATOM     23  N   UNL     1      -5.357  -3.295   9.824  0.00  0.00    -0.280 N 
ATOM     24  C   UNL     1      -6.379  -3.950   9.238  0.00  0.00    +0.248 C 
ATOM     25  O   UNL     1      -6.475  -3.968   8.027  0.00  0.00    -0.270 OA
ATOM     26  H   UNL     1      -5.312  -3.214  10.920  0.00  0.00    +0.155 HD
BRANCH  24  27
ATOM     27  C   UNL     1      -7.385  -4.644  10.070  0.00  0.00    +0.039 A 
ATOM     28  C   UNL     1      -7.278  -4.625  11.461  0.00  0.00    +0.013 A 
ATOM     29  C   UNL     1      -8.220  -5.275  12.231  0.00  0.00    +0.003 A 
ATOM     30  C   UNL     1      -9.268  -5.947  11.627  0.00  0.00    +0.027 A 
ATOM     31  C   UNL     1      -9.380  -5.970  10.248  0.00  0.00    +0.089 A 
ATOM     32  C   UNL     1      -8.448  -5.318   9.467  0.00  0.00    +0.040 A 
BRANCH  31  33
ATOM     33  S   UNL     1     -10.719  -6.828   9.489  0.00  0.00    -0.006 S 
ATOM     34  O   UNL     1     -10.236  -7.185   8.201  0.00  0.00    -0.170 OA
ATOM     35  O   UNL     1     -11.087  -7.828  10.428  0.00  0.00    -0.170 OA
ATOM     36  C   UNL     1     -12.039  -5.593   9.341  0.00  0.00    +0.200 C 
ENDBRANCH  31  33
ENDBRANCH  24  27
ENDBRANCH   4  23
TORSDOF 5
