REMARK  Name = ZINC14646994
REMARK  7 active torsions:
REMARK  status: ('A' for Active; 'I' for Inactive)
REMARK    1  A    between atoms: C_1  and  C_2
REMARK    2  A    between atoms: C_2  and  C_3
REMARK    3  A    between atoms: C_3  and  O_4
REMARK    4  A    between atoms: O_4  and  C_5
REMARK    5  A    between atoms: C_8  and  C_12
REMARK    6  A    between atoms: N_14  and  C_15
REMARK    7  A    between atoms: C_16  and  C_24
REMARK                            x       y       z     vdW  Elec       q    Type
REMARK                         _______ _______ _______ _____ _____    ______ ____
ROOT
ATOM      1  C   UNL     1      -1.264  -0.761   0.010  0.00  0.00    +0.249 C 
ATOM      2  O   UNL     1      -2.326  -0.169   0.022  0.00  0.00    -0.270 OA
ATOM      3  N   UNL     1      -1.244  -2.109   0.002  0.00  0.00    -0.275 N 
ATOM      4  H   UNL     1      -0.397  -2.581  -0.008  0.00  0.00    +0.156 HD
ENDROOT
BRANCH   3   5
ATOM      5  C   UNL     1      -2.433  -2.819   0.009  0.00  0.00    +0.085 A 
ATOM      6  C   UNL     1      -2.616  -4.195  -0.002  0.00  0.00    +0.068 A 
ATOM      7  C   UNL     1      -3.981  -4.692   0.012  0.00  0.00    -0.023 A 
ATOM      8  C   UNL     1      -4.939  -3.740   0.026  0.00  0.00    -0.004 A 
ATOM      9  S   UNL     1      -4.054  -2.207   0.027  0.00  0.00    -0.077 S 
ATOM     10  C   UNL     1      -6.422  -3.950   0.037  0.00  0.00    +0.043 C 
ATOM     11  C   UNL     1      -6.706  -5.410  -0.347  0.00  0.00    +0.005 C 
ATOM     12  C   UNL     1      -5.794  -6.323   0.477  0.00  0.00    +0.005 C 
ATOM     13  C   UNL     1      -4.346  -6.171   0.008  0.00  0.00    +0.037 C 
BRANCH   6  14
ATOM     14  C   UNL     1      -1.473  -5.114  -0.024  0.00  0.00    +0.244 C 
ATOM     15  O   UNL     1      -0.987  -5.506   1.021  0.00  0.00    -0.270 OA
ATOM     16  N   UNL     1      -0.961  -5.524  -1.201  0.00  0.00    -0.325 N 
ATOM     17  H   UNL     1      -1.348  -5.212  -2.034  0.00  0.00    +0.145 HD
ATOM     18  H   UNL     1      -0.205  -6.132  -1.216  0.00  0.00    +0.145 HD
ENDBRANCH   6  14
ENDBRANCH   3   5
BRANCH   1  22
ATOM     19  C   UNL     1       2.381   1.417  -0.013  0.00  0.00    +0.134 A 
ATOM     20  C   UNL     1       2.404   0.027  -0.021  0.00  0.00    +0.047 A 
ATOM     21  C   UNL     1       1.224  -0.683  -0.013  0.00  0.00    +0.017 A 
ATOM     22  C   UNL     1       0.002  -0.004   0.002  0.00  0.00    +0.038 A 
ATOM     23  C   UNL     1      -0.017   1.393   0.010  0.00  0.00    +0.032 A 
ATOM     24  C   UNL     1       1.168   2.096   0.002  0.00  0.00    +0.060 A 
ATOM     25 BR   UNL     1       1.145   3.987   0.012  0.00  0.00    -0.046 Br
BRANCH  19  26
ATOM     26  O   UNL     1       3.547   2.113  -0.022  0.00  0.00    -0.491 OA
BRANCH  26  27
ATOM     27  C   UNL     1       4.756   1.352  -0.038  0.00  0.00    +0.229 C 
BRANCH  27  29
ATOM     28  C   UNL     1       7.251   1.487  -0.062  0.00  0.00    +0.007 C 
ATOM     29  C   UNL     1       5.956   2.302  -0.045  0.00  0.00    +0.038 C 
ENDBRANCH  27  29
ENDBRANCH  26  27
ENDBRANCH  19  26
ENDBRANCH   1  22
TORSDOF 6
