REMARK  Name = ZINC40072858
REMARK  7 active torsions:
REMARK  status: ('A' for Active; 'I' for Inactive)
REMARK    1  A    between atoms: C_7  and  C_10
REMARK    2  A    between atoms: C_13  and  S_19
REMARK    3  A    between atoms: N_15  and  C_16
REMARK    4  A    between atoms: S_19  and  C_20
REMARK    5  A    between atoms: C_20  and  C_21
REMARK    6  A    between atoms: N_23  and  C_24
REMARK    7  A    between atoms: C_27  and  N_30
REMARK                            x       y       z     vdW  Elec       q    Type
REMARK                         _______ _______ _______ _____ _____    ______ ____
ROOT
ATOM      1  C   UNL     1       0.548  -3.235   0.024  0.00  0.00    +0.147 C 
ATOM      2  N   UNL     1      -0.691  -3.000   0.367  0.00  0.00    -0.169 NA
ATOM      3  N   UNL     1      -1.485  -4.143   0.220  0.00  0.00    -0.237 N 
ATOM      4  C   UNL     1      -0.598  -5.207  -0.280  0.00  0.00    +0.237 C 
ATOM      5  N   UNL     1       0.718  -4.557  -0.395  0.00  0.00    -0.282 N 
ATOM      6  H   UNL     1      -2.433  -4.219   0.409  0.00  0.00    +0.171 HD
ENDROOT
BRANCH   1  13
ATOM      7  C   UNL     1       0.657   1.039   1.544  0.00  0.00    +0.001 A 
ATOM      8  C   UNL     1       1.903   1.653   1.397  0.00  0.00    +0.002 A 
ATOM      9  C   UNL     1       2.959   1.004   0.848  0.00  0.00    +0.026 A 
ATOM     10  C   UNL     1       2.812  -0.336   0.405  0.00  0.00    +0.043 A 
ATOM     11  N   UNL     1       3.669  -1.170  -0.152  0.00  0.00    -0.380 N 
ATOM     12  C   UNL     1       2.999  -2.447  -0.416  0.00  0.00    +0.152 C 
ATOM     13  C   UNL     1       1.575  -2.280   0.067  0.00  0.00    +0.022 C 
ATOM     14  C   UNL     1       1.497  -0.978   0.562  0.00  0.00    +0.006 A 
ATOM     15  C   UNL     1       0.443  -0.241   1.143  0.00  0.00    +0.010 A 
ATOM     16  H   UNL     1       4.596  -0.970  -0.354  0.00  0.00    +0.160 HD
ENDBRANCH   1  13
BRANCH   5  17
ATOM     17  C   UNL     1       1.962  -5.176  -0.857  0.00  0.00    +0.078 C 
ATOM     18  C   UNL     1       1.891  -6.622  -1.351  0.00  0.00    +0.024 C 
ATOM     19  C   UNL     1       2.548  -6.304  -0.006  0.00  0.00    +0.024 C 
ENDBRANCH   5  17
BRANCH   4  20
ATOM     20  S   UNL     1      -0.535  -6.585   0.897  0.00  0.00    -0.109 S 
BRANCH  20  21
ATOM     21  C   UNL     1       0.067  -5.826   2.430  0.00  0.00    +0.168 C 
BRANCH  21  22
ATOM     22  C   UNL     1       0.167  -6.877   3.506  0.00  0.00    +0.227 C 
ATOM     23  O   UNL     1      -0.137  -8.025   3.262  0.00  0.00    -0.275 OA
ATOM     24  N   UNL     1       0.595  -6.540   4.739  0.00  0.00    -0.285 N 
ATOM     25  H   UNL     1       0.767  -5.611   4.956  0.00  0.00    +0.155 HD
BRANCH  24  26
ATOM     26  C   UNL     1       0.792  -7.534   5.708  0.00  0.00    +0.034 A 
ATOM     27  C   UNL     1       0.537  -7.260   7.045  0.00  0.00    +0.025 A 
ATOM     28  C   UNL     1       0.730  -8.238   7.999  0.00  0.00    +0.025 A 
ATOM     29  C   UNL     1       1.179  -9.497   7.622  0.00  0.00    +0.030 A 
ATOM     30  C   UNL     1       1.434  -9.771   6.284  0.00  0.00    +0.025 A 
ATOM     31  C   UNL     1       1.236  -8.794   5.330  0.00  0.00    +0.025 A 
BRANCH  29  32
ATOM     32  N   UNL     1       1.375 -10.489   8.589  0.00  0.00    -0.330 N 
ATOM     33  C   UNL     1       1.140 -10.337  10.032  0.00  0.00    +0.105 C 
ATOM     34  C   UNL     1       1.514 -11.676  10.701  0.00  0.00    +0.020 C 
ATOM     35  C   UNL     1       2.476 -12.323   9.669  0.00  0.00    +0.020 C 
ATOM     36  C   UNL     1       1.846 -11.861   8.329  0.00  0.00    +0.105 C 
ENDBRANCH  29  32
ENDBRANCH  24  26
ENDBRANCH  21  22
ENDBRANCH  20  21
ENDBRANCH   4  20
TORSDOF 7
