REMARK  Name = ZINC12455938
REMARK  8 active torsions:
REMARK  status: ('A' for Active; 'I' for Inactive)
REMARK    1  A    between atoms: C_1  and  C_2
REMARK    2  A    between atoms: C_2  and  C_4
REMARK    3  A    between atoms: C_2  and  N_56
REMARK    4  A    between atoms: C_4  and  C_5
REMARK    5  A    between atoms: C_10  and  N_56
REMARK    6  A    between atoms: N_13  and  C_16
REMARK    7  A    between atoms: C_19  and  N_22
REMARK    8  A    between atoms: C_23  and  C_25
REMARK                            x       y       z     vdW  Elec       q    Type
REMARK                         _______ _______ _______ _____ _____    ______ ____
ROOT
ATOM      1  C   UNL     1       1.344  12.423  -0.404  0.00  0.00    -0.069 C 
ATOM      2  C   UNL     1       0.641  11.705   0.751  0.00  0.00    +0.003 C 
ATOM      3  C   UNL     1       0.670  10.195   0.499  0.00  0.00    +0.103 C 
ATOM      4  N   UNL     1       2.063   9.742   0.392  0.00  0.00    -0.330 N 
ATOM      5  C   UNL     1       2.744  10.383  -0.740  0.00  0.00    +0.103 C 
ATOM      6  C   UNL     1       2.777  11.898  -0.525  0.00  0.00    +0.003 C 
ENDROOT
BRANCH   4   7
ATOM      7  C   UNL     1       2.130   8.348   0.294  0.00  0.00    +0.030 A 
ATOM      8  C   UNL     1       3.363   7.719   0.183  0.00  0.00    +0.025 A 
ATOM      9  C   UNL     1       3.429   6.343   0.087  0.00  0.00    +0.025 A 
ATOM     10  C   UNL     1       2.263   5.589   0.100  0.00  0.00    +0.034 A 
ATOM     11  C   UNL     1       1.030   6.219   0.204  0.00  0.00    +0.025 A 
ATOM     12  C   UNL     1       0.964   7.594   0.307  0.00  0.00    +0.025 A 
BRANCH  10  13
ATOM     13  N   UNL     1       2.330   4.194   0.002  0.00  0.00    -0.280 N 
ATOM     14  C   UNL     1       3.352   3.526   0.574  0.00  0.00    +0.268 C 
ATOM     15  O   UNL     1       4.258   4.140   1.103  0.00  0.00    -0.268 OA
ATOM     16  H   UNL     1       1.642   3.707  -0.478  0.00  0.00    +0.155 HD
BRANCH  14  17
ATOM     17  C   UNL     1       3.370   2.045   0.559  0.00  0.00    +0.144 A 
ATOM     18  C   UNL     1       4.426   1.353   1.151  0.00  0.00    +0.143 A 
ATOM     19  N   UNL     1       4.438   0.032   1.135  0.00  0.00    -0.259 NA
ATOM     20  C   UNL     1       3.451  -0.632   0.560  0.00  0.00    +0.130 A 
ATOM     21  C   UNL     1       2.398   0.054  -0.029  0.00  0.00    +0.131 A 
ATOM     22  N   UNL     1       2.379   1.372  -0.018  0.00  0.00    -0.247 NA
ENDBRANCH  14  17
ENDBRANCH  10  13
ENDBRANCH   4   7
BRANCH   1  23
ATOM     23  N   UNL     1       1.370  13.873  -0.131  0.00  0.00    +0.383 N 
ATOM     24  H   UNL     1       0.507  14.140   0.358  0.00  0.00    -0.085 HD
ATOM     25  H   UNL     1       2.180  14.092   0.460  0.00  0.00    -0.085 HD
BRANCH  23  27
ATOM     26  C   UNL     1       0.070  14.829  -1.981  0.00  0.00    -0.013 C 
ATOM     27  C   UNL     1       1.469  14.630  -1.393  0.00  0.00    -0.070 C 
BRANCH  27  28
ATOM     28  C   UNL     1       2.102  15.994  -1.111  0.00  0.00    +0.019 C 
BRANCH  28  29
ATOM     29  C   UNL     1       3.523  15.802  -0.649  0.00  0.00    -0.042 A 
ATOM     30  C   UNL     1       4.561  15.771  -1.562  0.00  0.00    +0.011 A 
ATOM     31  C   UNL     1       5.827  15.597  -1.112  0.00  0.00    +0.045 A 
ATOM     32  S   UNL     1       5.579  15.469   0.651  0.00  0.00    -0.105 S 
ATOM     33  C   UNL     1       3.804  15.662   0.670  0.00  0.00    +0.048 A 
ENDBRANCH  28  29
ENDBRANCH  27  28
ENDBRANCH  23  27
ENDBRANCH   1  23
TORSDOF 7
