REMARK  Name = ZINC15620658
REMARK  9 active torsions:
REMARK  status: ('A' for Active; 'I' for Inactive)
REMARK    1  A    between atoms: C_1  and  C_2
REMARK    2  A    between atoms: C_4  and  C_35
REMARK    3  A    between atoms: C_5  and  N_9
REMARK    4  A    between atoms: C_6  and  C_8
REMARK    5  A    between atoms: C_10  and  C_12
REMARK    6  A    between atoms: C_12  and  N_13
REMARK    7  A    between atoms: C_14  and  C_16
REMARK    8  A    between atoms: N_19  and  S_22
REMARK    9  A    between atoms: S_22  and  C_25
REMARK                            x       y       z     vdW  Elec       q    Type
REMARK                         _______ _______ _______ _____ _____    ______ ____
ROOT
ATOM      1  C   UNL     1       1.079   3.109  -2.679  0.00  0.00    +0.077 C 
ATOM      2  C   UNL     1      -0.342   2.541  -2.657  0.00  0.00    +0.030 C 
ATOM      3  C   UNL     1      -0.436   1.372  -3.642  0.00  0.00    +0.110 C 
ATOM      4  N   UNL     1       0.011   1.831  -4.965  0.00  0.00    -0.177 NA
ATOM      5  C   UNL     1       1.326   2.475  -5.082  0.00  0.00    +0.110 C 
ATOM      6  C   UNL     1       1.400   3.632  -4.081  0.00  0.00    +0.030 C 
ENDROOT
BRANCH   1   8
ATOM      7  N   UNL     1       2.351   4.893  -1.531  0.00  0.00    -0.306 N 
ATOM      8  C   UNL     1       1.184   4.238  -1.686  0.00  0.00    +0.217 C 
ATOM      9  O   UNL     1       0.217   4.557  -1.026  0.00  0.00    -0.276 OA
ATOM     10  H   UNL     1       3.124   4.638  -2.059  0.00  0.00    +0.149 HD
BRANCH   7  11
ATOM     11  C   UNL     1       2.453   5.991  -0.566  0.00  0.00    +0.200 C 
BRANCH  11  13
ATOM     12  N   UNL     1       4.181   7.574   0.224  0.00  0.00    -0.284 N 
ATOM     13  C   UNL     1       3.853   6.550  -0.588  0.00  0.00    +0.234 C 
ATOM     14  O   UNL     1       4.683   6.078  -1.335  0.00  0.00    -0.274 OA
ATOM     15  H   UNL     1       3.504   7.986   0.784  0.00  0.00    +0.155 HD
BRANCH  12  20
ATOM     16  C   UNL     1       9.523   9.478   0.368  0.00  0.00    +0.044 C 
ATOM     17  C   UNL     1       8.104   8.972   0.330  0.00  0.00    -0.050 A 
ATOM     18  C   UNL     1       7.062   9.857   0.122  0.00  0.00    +0.008 A 
ATOM     19  C   UNL     1       5.760   9.396   0.086  0.00  0.00    -0.029 A 
ATOM     20  C   UNL     1       5.499   8.044   0.260  0.00  0.00    +0.039 A 
ATOM     21  C   UNL     1       6.547   7.159   0.475  0.00  0.00    -0.029 A 
ATOM     22  C   UNL     1       7.847   7.625   0.503  0.00  0.00    +0.008 A 
ATOM     23  C   UNL     1       6.268   5.691   0.670  0.00  0.00    +0.045 C 
ATOM     24  C   UNL     1       4.625  10.361  -0.141  0.00  0.00    +0.045 C 
ENDBRANCH  12  20
ENDBRANCH  11  13
ENDBRANCH   7  11
ENDBRANCH   1   8
BRANCH   4  25
ATOM     25  S   UNL     1      -0.951   1.626  -6.297  0.00  0.00    +0.061 S 
ATOM     26  O   UNL     1      -0.087   1.628  -7.426  0.00  0.00    -0.153 OA
ATOM     27  O   UNL     1      -1.823   0.542  -6.007  0.00  0.00    -0.153 OA
BRANCH  25  28
ATOM     28  C   UNL     1      -1.962   3.063  -6.435  0.00  0.00    +0.106 A 
ATOM     29  C   UNL     1      -3.204   3.091  -5.803  0.00  0.00    +0.029 A 
ATOM     30  C   UNL     1      -4.007   4.187  -5.885  0.00  0.00    +0.010 A 
ATOM     31  C   UNL     1      -3.586   5.303  -6.627  0.00  0.00    -0.018 A 
ATOM     32  C   UNL     1      -4.391   6.450  -6.740  0.00  0.00    +0.008 A 
ATOM     33  C   UNL     1      -3.951   7.513  -7.467  0.00  0.00    +0.001 A 
ATOM     34  C   UNL     1      -2.711   7.482  -8.104  0.00  0.00    +0.001 A 
ATOM     35  C   UNL     1      -1.905   6.389  -8.017  0.00  0.00    +0.008 A 
ATOM     36  C   UNL     1      -2.326   5.272  -7.274  0.00  0.00    -0.016 A 
ATOM     37  C   UNL     1      -1.522   4.125  -7.162  0.00  0.00    +0.037 A 
ENDBRANCH  25  28
ENDBRANCH   4  25
TORSDOF 6
