REMARK  Name = ZINC66831999
REMARK  6 active torsions:
REMARK  status: ('A' for Active; 'I' for Inactive)
REMARK    1  A    between atoms: C_1  and  C_2
REMARK    2  A    between atoms: C_3  and  C_17
REMARK    3  A    between atoms: N_6  and  C_7
REMARK    4  A    between atoms: N_19  and  C_20
REMARK    5  A    between atoms: C_23  and  C_26
REMARK    6  A    between atoms: N_28  and  C_29
REMARK                            x       y       z     vdW  Elec       q    Type
REMARK                         _______ _______ _______ _____ _____    ______ ____
ROOT
ATOM      1  C   UNL     1      -0.018   1.503   0.010  0.00  0.00    +0.068 C 
ATOM      2  C   UNL     1       0.002  -0.004   0.002  0.00  0.00    +0.074 A 
ATOM      3  C   UNL     1       0.009  -0.813  -1.099  0.00  0.00    +0.170 A 
ATOM      4  N   UNL     1       0.028  -2.092  -0.688  0.00  0.00    -0.124 NA
ATOM      5  N   UNL     1       0.033  -2.132   0.599  0.00  0.00    -0.060 NA
ATOM      6  N   UNL     1       0.023  -0.815   1.082  0.00  0.00    -0.216 N 
ENDROOT
BRANCH   6   7
ATOM      7  C   UNL     1       0.031  -0.418   2.426  0.00  0.00    +0.068 A 
ATOM      8  C   UNL     1       0.712   0.746   2.800  0.00  0.00    +0.030 A 
ATOM      9  C   UNL     1       0.737   1.157   4.095  0.00  0.00    +0.030 A 
ATOM     10  C   UNL     1       0.071   0.407   5.081  0.00  0.00    +0.071 A 
ATOM     11  C   UNL     1      -0.619  -0.772   4.703  0.00  0.00    +0.002 A 
ATOM     12  C   UNL     1      -0.632  -1.169   3.357  0.00  0.00    +0.038 A 
ATOM     13  C   UNL     1      -1.284  -1.521   5.693  0.00  0.00    +0.011 A 
ATOM     14  C   UNL     1      -1.234  -1.073   6.982  0.00  0.00    +0.020 A 
ATOM     15  C   UNL     1      -0.537   0.095   7.286  0.00  0.00    +0.111 A 
ATOM     16  N   UNL     1       0.081   0.789   6.361  0.00  0.00    -0.255 NA
ENDBRANCH   6   7
BRANCH   3  17
ATOM     17  C   UNL     1      -0.004  -0.358  -2.502  0.00  0.00    +0.266 C 
ATOM     18  O   UNL     1      -0.021   0.831  -2.756  0.00  0.00    -0.268 OA
ATOM     19  N   UNL     1       0.005  -1.261  -3.503  0.00  0.00    -0.307 N 
ATOM     20  H   UNL     1       0.019  -2.209  -3.301  0.00  0.00    +0.149 HD
BRANCH  19  21
ATOM     21  C   UNL     1      -0.007  -0.810  -4.897  0.00  0.00    +0.073 C 
ATOM     22  C   UNL     1      -1.450  -0.553  -5.337  0.00  0.00    +0.023 C 
ATOM     23  C   UNL     1      -2.259  -1.846  -5.213  0.00  0.00    +0.014 C 
ATOM     24  C   UNL     1      -1.638  -2.924  -6.103  0.00  0.00    +0.075 C 
ATOM     25  C   UNL     1      -0.196  -3.180  -5.663  0.00  0.00    +0.014 C 
ATOM     26  C   UNL     1       0.613  -1.888  -5.788  0.00  0.00    +0.023 C 
BRANCH  24  27
ATOM     27  C   UNL     1      -2.435  -4.197  -5.981  0.00  0.00    +0.216 C 
ATOM     28  O   UNL     1      -3.404  -4.238  -5.252  0.00  0.00    -0.276 OA
ATOM     29  N   UNL     1      -2.071  -5.290  -6.680  0.00  0.00    -0.318 N 
ATOM     30  C   UNL     1      -2.845  -6.528  -6.561  0.00  0.00    +0.128 C 
ATOM     31  H   UNL     1      -1.296  -5.257  -7.262  0.00  0.00    +0.148 HD
ENDBRANCH  24  27
ENDBRANCH  19  21
ENDBRANCH   3  17
TORSDOF 4
