REMARK  Name = ZINC38560748
REMARK  9 active torsions:
REMARK  status: ('A' for Active; 'I' for Inactive)
REMARK    1  A    between atoms: C_1  and  C_2
REMARK    2  A    between atoms: C_5  and  S_8
REMARK    3  A    between atoms: S_8  and  N_11
REMARK    4  A    between atoms: C_16  and  C_18
REMARK    5  A    between atoms: C_18  and  C_19
REMARK    6  A    between atoms: C_19  and  N_20
REMARK    7  A    between atoms: C_21  and  C_23
REMARK    8  A    between atoms: N_25  and  C_26
REMARK    9  A    between atoms: C_30  and  C_32
REMARK                            x       y       z     vdW  Elec       q    Type
REMARK                         _______ _______ _______ _____ _____    ______ ____
ROOT
ATOM      1  C   UNL     1       2.458  -5.397   3.521  0.00  0.00    +0.106 C 
ENDROOT
BRANCH   1   2
ATOM      2  N   UNL     1       1.743  -4.963   4.723  0.00  0.00    -0.308 N 
ATOM      3  C   UNL     1       2.301  -5.134   5.938  0.00  0.00    +0.299 C 
ATOM      4  O   UNL     1       3.397  -5.646   6.035  0.00  0.00    -0.265 OA
ATOM      5  H   UNL     1       0.867  -4.554   4.646  0.00  0.00    +0.149 HD
BRANCH   3   6
ATOM      6  C   UNL     1       1.572  -4.692   7.164  0.00  0.00    +0.303 C 
ATOM      7  O   UNL     1       0.476  -4.179   7.067  0.00  0.00    -0.265 OA
ATOM      8  N   UNL     1       2.131  -4.862   8.379  0.00  0.00    -0.278 N 
ATOM      9  H   UNL     1       3.038  -5.200   8.452  0.00  0.00    +0.155 HD
BRANCH   8  10
ATOM     10  C   UNL     1       1.405  -4.552   9.531  0.00  0.00    +0.034 A 
ATOM     11  C   UNL     1       2.056  -4.044  10.649  0.00  0.00    +0.023 A 
ATOM     12  C   UNL     1       1.335  -3.739  11.787  0.00  0.00    +0.002 A 
ATOM     13  C   UNL     1      -0.033  -3.939  11.815  0.00  0.00    +0.012 A 
ATOM     14  C   UNL     1      -0.684  -4.445  10.704  0.00  0.00    +0.057 A 
ATOM     15  C   UNL     1       0.030  -4.746   9.561  0.00  0.00    +0.035 A 
BRANCH  14  16
ATOM     16  C   UNL     1      -2.175  -4.661  10.740  0.00  0.00    +0.417 C 
ATOM     17  F   UNL     1      -2.672  -4.281  11.991  0.00  0.00    -0.166 F 
ATOM     18  F   UNL     1      -2.782  -3.890   9.743  0.00  0.00    -0.166 F 
ATOM     19  F   UNL     1      -2.455  -6.014  10.519  0.00  0.00    -0.166 F 
ENDBRANCH  14  16
ENDBRANCH   8  10
ENDBRANCH   3   6
ENDBRANCH   1   2
BRANCH   1  20
ATOM     20  C   UNL     1       1.610  -5.091   2.285  0.00  0.00    +0.039 C 
BRANCH  20  26
ATOM     21  N   UNL     1       1.647  -5.023  -0.165  0.00  0.00    -0.173 NA
ATOM     22  C   UNL     1       2.288  -5.133  -1.482  0.00  0.00    +0.110 C 
ATOM     23  C   UNL     1       3.643  -4.419  -1.433  0.00  0.00    +0.017 C 
ATOM     24  C   UNL     1       4.473  -4.988  -0.280  0.00  0.00    +0.003 C 
ATOM     25  C   UNL     1       3.748  -4.740   1.044  0.00  0.00    +0.021 C 
ATOM     26  C   UNL     1       2.397  -5.452   1.024  0.00  0.00    +0.081 C 
BRANCH  21  27
ATOM     27  S   UNL     1       0.112  -4.420  -0.022  0.00  0.00    +0.061 S 
ATOM     28  O   UNL     1      -0.487  -5.092   1.078  0.00  0.00    -0.153 OA
ATOM     29  O   UNL     1      -0.455  -4.437  -1.325  0.00  0.00    -0.153 OA
BRANCH  27  34
ATOM     30  C   UNL     1       0.610   1.380   1.564  0.00  0.00    +0.044 C 
ATOM     31  C   UNL     1       0.485  -0.069   1.168  0.00  0.00    -0.050 A 
ATOM     32  C   UNL     1       0.607  -0.435  -0.160  0.00  0.00    +0.005 A 
ATOM     33  C   UNL     1       0.493  -1.764  -0.523  0.00  0.00    +0.029 A 
ATOM     34  C   UNL     1       0.258  -2.726   0.441  0.00  0.00    +0.106 A 
ATOM     35  C   UNL     1       0.137  -2.360   1.769  0.00  0.00    +0.029 A 
ATOM     36  C   UNL     1       0.256  -1.032   2.132  0.00  0.00    +0.005 A 
ENDBRANCH  27  34
ENDBRANCH  21  27
ENDBRANCH  20  26
ENDBRANCH   1  20
TORSDOF 8
