REMARK  Name = ZINC32947525
REMARK  6 active torsions:
REMARK  status: ('A' for Active; 'I' for Inactive)
REMARK    1  A    between atoms: C_1  and  C_2
REMARK    2  A    between atoms: C_5  and  C_24
REMARK    3  A    between atoms: C_6  and  N_8
REMARK    4  A    between atoms: C_11  and  N_23
REMARK    5  A    between atoms: C_12  and  C_14
REMARK    6  A    between atoms: C_14  and  C_16
REMARK                            x       y       z     vdW  Elec       q    Type
REMARK                         _______ _______ _______ _____ _____    ______ ____
ROOT
ATOM      1  N   UNL     1       0.441  -0.077   0.290  0.00  0.00    -0.293 N 
ATOM      2  C   UNL     1      -0.657   0.754   0.279  0.00  0.00    +0.165 A 
ATOM      3  N   UNL     1      -0.690   2.078   0.267  0.00  0.00    -0.210 NA
ATOM      4  C   UNL     1      -1.823   2.737   0.256  0.00  0.00    +0.136 A 
ATOM      5  C   UNL     1      -3.006   1.983   0.258  0.00  0.00    +0.102 A 
ATOM      6  S   UNL     1      -2.339   0.325   0.269  0.00  0.00    -0.047 S 
ATOM      7  H   UNL     1       0.307  -1.167   0.219  0.00  0.00    +0.154 HD
ENDROOT
BRANCH   1  13
ATOM      8  C   UNL     1       3.379   3.863   0.380  0.00  0.00    +0.044 C 
ATOM      9  C   UNL     1       3.180   2.370   0.440  0.00  0.00    -0.049 A 
ATOM     10  C   UNL     1       4.270   1.534   0.595  0.00  0.00    +0.004 A 
ATOM     11  C   UNL     1       4.092   0.164   0.649  0.00  0.00    +0.005 A 
ATOM     12  C   UNL     1       2.824  -0.374   0.548  0.00  0.00    -0.029 A 
ATOM     13  C   UNL     1       1.726   0.463   0.392  0.00  0.00    +0.036 A 
ATOM     14  C   UNL     1       1.909   1.839   0.333  0.00  0.00    +0.027 A 
ATOM     15  C   UNL     1       2.630  -1.867   0.607  0.00  0.00    +0.045 C 
ENDBRANCH   1  13
BRANCH   4  16
ATOM     16  N   UNL     1      -1.852   4.122   0.244  0.00  0.00    -0.342 N 
ATOM     17  H   UNL     1      -2.815   4.653   0.235  0.00  0.00    +0.144 HD
ATOM     18  H   UNL     1      -0.910   4.692   0.243  0.00  0.00    +0.144 HD
ENDBRANCH   4  16
BRANCH   5  19
ATOM     19  C   UNL     1      -4.347   2.413   0.247  0.00  0.00    +0.203 C 
ATOM     20  O   UNL     1      -4.606   3.597   0.116  0.00  0.00    -0.286 OA
BRANCH  19  21
ATOM     21  C   UNL     1      -5.441   1.427   0.396  0.00  0.00    +0.023 A 
ATOM     22  C   UNL     1      -6.720   1.724  -0.076  0.00  0.00    +0.013 A 
ATOM     23  C   UNL     1      -7.734   0.799   0.060  0.00  0.00    +0.016 A 
ATOM     24  C   UNL     1      -7.488  -0.417   0.675  0.00  0.00    +0.018 A 
ATOM     25  C   UNL     1      -6.222  -0.715   1.151  0.00  0.00    +0.016 A 
ATOM     26  C   UNL     1      -5.199   0.200   1.015  0.00  0.00    +0.013 A 
ATOM     27 BR   UNL     1      -8.885  -1.677   0.864  0.00  0.00    -0.050 Br
ENDBRANCH  19  21
ENDBRANCH   5  19
TORSDOF 4
