REMARK  Name = ZINC38684900
REMARK  12 active torsions:
REMARK  status: ('A' for Active; 'I' for Inactive)
REMARK    1  A    between atoms: C_1  and  C_2
REMARK    2  A    between atoms: C_2  and  O_3
REMARK    3  A    between atoms: O_3  and  C_4
REMARK    4  A    between atoms: C_8  and  C_10
REMARK    5  A    between atoms: C_15  and  O_24
REMARK    6  A    between atoms: C_19  and  N_23
REMARK    7  A    between atoms: C_20  and  C_21
REMARK    8  A    between atoms: O_24  and  C_25
REMARK    9  A    between atoms: C_25  and  C_27
REMARK   10  A    between atoms: C_27  and  O_28
REMARK   11  A    between atoms: O_28  and  C_29
REMARK   12  A    between atoms: C_33  and  C_35
REMARK                            x       y       z     vdW  Elec       q    Type
REMARK                         _______ _______ _______ _____ _____    ______ ____
ROOT
ATOM      1  C   UNL     1       2.264  -4.306  -3.826  0.00  0.00    +0.098 C 
ATOM      2  C   UNL     1       1.287  -5.142  -4.610  0.00  0.00    +0.008 A 
ATOM      3  C   UNL     1       0.271  -4.520  -5.314  0.00  0.00    +0.012 A 
ATOM      4  C   UNL     1      -0.634  -5.270  -6.039  0.00  0.00    +0.047 A 
ATOM      5  C   UNL     1      -0.526  -6.654  -6.062  0.00  0.00    +0.135 A 
ATOM      6  C   UNL     1       0.489  -7.279  -5.358  0.00  0.00    +0.093 A 
ATOM      7  C   UNL     1       1.399  -6.523  -4.630  0.00  0.00    +0.138 A 
ATOM      8  O   UNL     1       2.388  -7.151  -3.946  0.00  0.00    -0.441 OA
ATOM      9  C   UNL     1       3.479  -6.466  -3.567  0.00  0.00    +0.199 C 
ATOM     10  C   UNL     1       3.483  -5.117  -3.489  0.00  0.00    +0.098 C 
ENDROOT
BRANCH   1  15
ATOM     11  C   UNL     1       0.867  -2.052  -1.134  0.00  0.00    +0.121 A 
ATOM     12  C   UNL     1       0.407  -2.980  -0.211  0.00  0.00    +0.045 A 
ATOM     13  C   UNL     1       0.549  -4.331  -0.462  0.00  0.00    +0.004 A 
ATOM     14  C   UNL     1       1.149  -4.759  -1.631  0.00  0.00    +0.005 A 
ATOM     15  C   UNL     1       1.609  -3.836  -2.553  0.00  0.00    -0.031 A 
ATOM     16  C   UNL     1       1.465  -2.484  -2.309  0.00  0.00    +0.050 A 
BRANCH  11  17
ATOM     17  O   UNL     1       0.728  -0.723  -0.890  0.00  0.00    -0.492 OA
BRANCH  17  19
ATOM     18  C   UNL     1       0.037   1.175   0.438  0.00  0.00    +0.048 C 
ATOM     19  C   UNL     1       0.104  -0.351   0.341  0.00  0.00    +0.225 C 
ENDBRANCH  17  19
ENDBRANCH  11  17
ENDBRANCH   1  15
BRANCH   9  20
ATOM     20  N   UNL     1       4.622  -7.157  -3.248  0.00  0.00    -0.328 N 
ATOM     21  H   UNL     1       4.633  -8.125  -3.299  0.00  0.00    +0.145 HD
ATOM     22  H   UNL     1       5.418  -6.676  -2.973  0.00  0.00    +0.145 HD
ENDBRANCH   9  20
BRANCH  10  23
ATOM     23  C   UNL     1       4.680  -4.447  -3.077  0.00  0.00    +0.101 C 
ATOM     24  N   UNL     1       5.629  -3.915  -2.751  0.00  0.00    -0.191 NA
ENDBRANCH  10  23
BRANCH   5  25
ATOM     25  O   UNL     1      -1.417  -7.394  -6.774  0.00  0.00    -0.423 OA
BRANCH  25  26
ATOM     26  C   UNL     1      -2.290  -8.155  -6.095  0.00  0.00    +0.350 C 
ATOM     27  O   UNL     1      -2.338  -8.089  -4.890  0.00  0.00    -0.247 OA
BRANCH  26  28
ATOM     28  C   UNL     1      -3.209  -9.091  -6.837  0.00  0.00    +0.349 C 
BRANCH  28  29
ATOM     29  O   UNL     1      -4.037  -9.785  -5.902  0.00  0.00    -0.481 OA
BRANCH  29  30
ATOM     30  C   UNL     1      -4.930 -10.675  -6.410  0.00  0.00    +0.122 A 
ATOM     31  C   UNL     1      -5.004 -10.879  -7.780  0.00  0.00    +0.045 A 
ATOM     32  C   UNL     1      -5.912 -11.784  -8.294  0.00  0.00    +0.004 A 
ATOM     33  C   UNL     1      -6.747 -12.486  -7.444  0.00  0.00    +0.003 A 
ATOM     34  C   UNL     1      -6.676 -12.284  -6.079  0.00  0.00    -0.047 A 
ATOM     35  C   UNL     1      -5.765 -11.384  -5.559  0.00  0.00    +0.049 A 
ATOM     36  C   UNL     1      -7.588 -13.050  -5.155  0.00  0.00    +0.044 C 
ENDBRANCH  29  30
ENDBRANCH  28  29
ENDBRANCH  26  28
ENDBRANCH  25  26
ENDBRANCH   5  25
TORSDOF 10
