REMARK  Name = ZINC49008032
REMARK  7 active torsions:
REMARK  status: ('A' for Active; 'I' for Inactive)
REMARK    1  A    between atoms: C_1  and  C_2
REMARK    2  A    between atoms: C_5  and  N_9
REMARK    3  A    between atoms: C_6  and  C_8
REMARK    4  A    between atoms: C_10  and  C_12
REMARK    5  A    between atoms: C_12  and  N_13
REMARK    6  A    between atoms: C_17  and  C_24
REMARK    7  A    between atoms: N_26  and  C_27
REMARK                            x       y       z     vdW  Elec       q    Type
REMARK                         _______ _______ _______ _____ _____    ______ ____
ROOT
ATOM      1  N   UNL     1      -0.232  -6.826  -2.567  0.00  0.00    -0.297 N 
ATOM      2  C   UNL     1      -1.463  -6.977  -3.169  0.00  0.00    +0.071 A 
ATOM      3  C   UNL     1      -2.627  -6.671  -2.467  0.00  0.00    +0.029 A 
ATOM      4  C   UNL     1      -3.847  -6.819  -3.059  0.00  0.00    +0.015 A 
ATOM      5  C   UNL     1      -3.946  -7.280  -4.379  0.00  0.00    +0.039 A 
ATOM      6  C   UNL     1      -2.799  -7.592  -5.098  0.00  0.00    +0.043 A 
ATOM      7  C   UNL     1      -1.543  -7.442  -4.496  0.00  0.00    +0.088 A 
ATOM      8  N   UNL     1      -0.425  -7.741  -5.187  0.00  0.00    -0.248 NA
ATOM      9  C   UNL     1       0.753  -7.609  -4.648  0.00  0.00    +0.181 A 
ATOM     10  C   UNL     1       0.883  -7.124  -3.269  0.00  0.00    +0.270 A 
ATOM     11  O   UNL     1       1.982  -6.995  -2.763  0.00  0.00    -0.266 OA
ENDROOT
BRANCH   5  12
ATOM     12  C   UNL     1      -5.274  -7.436  -5.007  0.00  0.00    +0.244 C 
ATOM     13  O   UNL     1      -5.362  -7.837  -6.152  0.00  0.00    -0.270 OA
ATOM     14  N   UNL     1      -6.388  -7.134  -4.311  0.00  0.00    -0.308 N 
ATOM     15  H   UNL     1      -6.317  -6.815  -3.398  0.00  0.00    +0.149 HD
BRANCH  14  16
ATOM     16  C   UNL     1      -7.705  -7.289  -4.934  0.00  0.00    +0.073 C 
ATOM     17  C   UNL     1      -8.088  -5.998  -5.687  0.00  0.00    +0.022 C 
ATOM     18  C   UNL     1      -9.612  -5.859  -5.451  0.00  0.00    +0.002 C 
ATOM     19  C   UNL     1      -9.776  -6.332  -3.985  0.00  0.00    +0.002 C 
ATOM     20  C   UNL     1      -8.778  -7.501  -3.852  0.00  0.00    +0.022 C 
ENDBRANCH  14  16
ENDBRANCH   5  12
BRANCH   1  21
ATOM     21  C   UNL     1      -0.134  -6.343  -1.187  0.00  0.00    +0.221 C 
BRANCH  21  23
ATOM     22  N   UNL     1       0.059  -4.170  -0.021  0.00  0.00    -0.284 N 
ATOM     23  C   UNL     1      -0.040  -4.839  -1.187  0.00  0.00    +0.237 C 
ATOM     24  O   UNL     1      -0.054  -4.230  -2.236  0.00  0.00    -0.274 OA
ATOM     25  H   UNL     1       0.135  -4.658   0.814  0.00  0.00    +0.155 HD
BRANCH  22  30
ATOM     26  C   UNL     1       0.025   1.503   0.005  0.00  0.00    +0.044 C 
ATOM     27  C   UNL     1       0.034  -0.004  -0.002  0.00  0.00    -0.050 A 
ATOM     28  C   UNL     1       0.632  -0.685  -1.046  0.00  0.00    +0.005 A 
ATOM     29  C   UNL     1       0.641  -2.066  -1.055  0.00  0.00    +0.024 A 
ATOM     30  C   UNL     1       0.051  -2.771  -0.014  0.00  0.00    +0.036 A 
ATOM     31  C   UNL     1      -0.548  -2.083   1.033  0.00  0.00    -0.029 A 
ATOM     32  C   UNL     1      -0.550  -0.702   1.039  0.00  0.00    +0.008 A 
ATOM     33  C   UNL     1      -1.190  -2.843   2.165  0.00  0.00    +0.045 C 
ENDBRANCH  22  30
ENDBRANCH  21  23
ENDBRANCH   1  21
TORSDOF 5
