REMARK  Name = ZINC16804781
REMARK  6 active torsions:
REMARK  status: ('A' for Active; 'I' for Inactive)
REMARK    1  A    between atoms: C_6  and  N_7
REMARK    2  A    between atoms: C_11  and  S_13
REMARK    3  A    between atoms: S_13  and  C_14
REMARK    4  A    between atoms: C_14  and  C_15
REMARK    5  A    between atoms: C_18  and  C_24
REMARK    6  A    between atoms: C_20  and  N_21
REMARK                            x       y       z     vdW  Elec       q    Type
REMARK                         _______ _______ _______ _____ _____    ______ ____
ROOT
ATOM      1  C   UNL     1      -2.518   1.080  -0.513  0.00  0.00    +0.113 C 
ENDROOT
BRANCH   1   2
ATOM      2  C   UNL     1      -1.224   1.801  -0.237  0.00  0.00    -0.007 A 
ATOM      3  C   UNL     1      -0.048   1.082  -0.113  0.00  0.00    +0.007 A 
ATOM      4  C   UNL     1       1.141   1.736   0.132  0.00  0.00    +0.013 A 
ATOM      5  C   UNL     1       1.156   3.126   0.262  0.00  0.00    +0.039 A 
ATOM      6  C   UNL     1      -0.034   3.844   0.141  0.00  0.00    +0.046 A 
ATOM      7  C   UNL     1      -1.217   3.178  -0.104  0.00  0.00    +0.131 A 
BRANCH   5   8
ATOM      8  C   UNL     1       2.427   3.833   0.526  0.00  0.00    +0.242 C 
ATOM      9  O   UNL     1       2.437   5.043   0.638  0.00  0.00    -0.270 OA
ATOM     10  N   UNL     1       3.575   3.136   0.642  0.00  0.00    -0.325 N 
ATOM     11  H   UNL     1       3.567   2.171   0.552  0.00  0.00    +0.145 HD
ATOM     12  H   UNL     1       4.409   3.601   0.815  0.00  0.00    +0.145 HD
ENDBRANCH   5   8
BRANCH   7  13
ATOM     13  N   UNL     1      -2.480   3.938  -0.233  0.00  0.00    +0.057 N 
ATOM     14  O   UNL     1      -2.484   5.024  -0.784  0.00  0.00    -0.126 OA
ATOM     15  O   UNL     1      -3.516   3.478   0.214  0.00  0.00    -0.126 OA
ENDBRANCH   7  13
ENDBRANCH   1   2
BRANCH   1  16
ATOM     16  S   UNL     1      -3.279   0.587   1.054  0.00  0.00    -0.092 S 
BRANCH  16  21
ATOM     17  N   UNL     1      -6.760  -1.357   0.468  0.00  0.00    -0.217 N 
ATOM     18  C   UNL     1      -6.785  -1.317  -0.888  0.00  0.00    +0.150 A 
ATOM     19  S   UNL     1      -7.957  -1.936  -1.972  0.00  0.00    -0.023 S 
ATOM     20  S   UNL     1      -5.270  -0.437  -1.236  0.00  0.00    -0.034 S 
ATOM     21  C   UNL     1      -4.731  -0.209   0.452  0.00  0.00    +0.158 A 
ATOM     22  N   UNL     1      -5.696  -0.782   1.125  0.00  0.00    -0.151 NA
BRANCH  17  28
ATOM     23  C   UNL     1      -9.101  -1.894   0.721  0.00  0.00    +0.029 A 
ATOM     24  C   UNL     1     -10.119  -2.505   1.427  0.00  0.00    +0.022 A 
ATOM     25  C   UNL     1      -9.839  -3.184   2.600  0.00  0.00    +0.041 A 
ATOM     26  C   UNL     1      -8.538  -3.258   3.066  0.00  0.00    +0.022 A 
ATOM     27  C   UNL     1      -7.516  -2.653   2.361  0.00  0.00    +0.029 A 
ATOM     28  C   UNL     1      -7.794  -1.970   1.184  0.00  0.00    +0.067 A 
ATOM     29 CL   UNL     1     -11.122  -3.944   3.488  0.00  0.00    -0.084 Cl
ENDBRANCH  17  28
ENDBRANCH  16  21
ENDBRANCH   1  16
TORSDOF 6
