REMARK  Name = ZINC23362331
REMARK  10 active torsions:
REMARK  status: ('A' for Active; 'I' for Inactive)
REMARK    1  A    between atoms: C_1  and  N_2
REMARK    2  A    between atoms: N_5  and  C_8
REMARK    3  A    between atoms: C_8  and  C_9
REMARK    4  A    between atoms: C_11  and  C_31
REMARK    5  A    between atoms: C_14  and  O_15
REMARK    6  A    between atoms: O_15  and  C_16
REMARK    7  A    between atoms: C_16  and  C_17
REMARK    8  A    between atoms: N_19  and  C_20
REMARK    9  A    between atoms: C_20  and  C_21
REMARK   10  A    between atoms: C_24  and  C_27
REMARK                            x       y       z     vdW  Elec       q    Type
REMARK                         _______ _______ _______ _____ _____    ______ ____
ROOT
ATOM      1  C   UNL     1       2.367  -4.437   1.071  0.00  0.00    +0.009 A 
ATOM      2  C   UNL     1       3.670  -4.789   0.787  0.00  0.00    +0.017 A 
ATOM      3  C   UNL     1       4.514  -5.216   1.810  0.00  0.00    -0.017 A 
ATOM      4  C   UNL     1       4.039  -5.287   3.118  0.00  0.00    +0.012 A 
ATOM      5  C   UNL     1       2.735  -4.933   3.397  0.00  0.00    +0.046 A 
ATOM      6  C   UNL     1       1.898  -4.503   2.376  0.00  0.00    +0.126 A 
ENDROOT
BRANCH   3   7
ATOM      7  C   UNL     1       5.916  -5.596   1.507  0.00  0.00    -0.018 A 
ATOM      8  C   UNL     1       6.393  -5.521   0.200  0.00  0.00    +0.011 A 
ATOM      9  C   UNL     1       7.698  -5.875  -0.078  0.00  0.00    +0.039 A 
ATOM     10  C   UNL     1       8.532  -6.305   0.941  0.00  0.00    +0.123 A 
ATOM     11  C   UNL     1       8.062  -6.381   2.242  0.00  0.00    +0.039 A 
ATOM     12  C   UNL     1       6.761  -6.024   2.529  0.00  0.00    +0.011 A 
ATOM     13  F   UNL     1       9.809  -6.651   0.665  0.00  0.00    -0.205 F 
ENDBRANCH   3   7
BRANCH   1  14
ATOM     14  C   UNL     1       1.453  -3.974  -0.034  0.00  0.00    +0.123 C 
BRANCH  14  19
ATOM     15  C   UNL     1      -0.018   1.465   0.010  0.00  0.00    -0.096 C 
ATOM     16  N   UNL     1       0.002  -0.004   0.002  0.00  0.00    +0.379 N 
ATOM     17  C   UNL     1       0.688  -0.477  -1.207  0.00  0.00    -0.064 C 
ATOM     18  C   UNL     1       0.693  -2.008  -1.226  0.00  0.00    +0.066 C 
ATOM     19  N   UNL     1       1.378  -2.507  -0.025  0.00  0.00    -0.302 NA
ATOM     20  C   UNL     1       0.717  -2.021   1.194  0.00  0.00    +0.066 C 
ATOM     21  C   UNL     1       0.713  -0.490   1.192  0.00  0.00    -0.064 C 
ATOM     22  H   UNL     1      -0.945  -0.353   0.010  0.00  0.00    -0.082 HD
ENDBRANCH  14  19
ENDBRANCH   1  14
BRANCH   6  23
ATOM     23  O   UNL     1       0.616  -4.150   2.655  0.00  0.00    -0.482 OA
BRANCH  23  24
ATOM     24  C   UNL     1       0.199  -4.242   4.019  0.00  0.00    +0.324 C 
BRANCH  24  25
ATOM     25  C   UNL     1      -1.241  -3.813   4.134  0.00  0.00    +0.251 C 
ATOM     26  O   UNL     1      -1.851  -3.464   3.145  0.00  0.00    -0.272 OA
ATOM     27  N   UNL     1      -1.852  -3.818   5.335  0.00  0.00    -0.308 N 
ATOM     28  H   UNL     1      -1.364  -4.098   6.126  0.00  0.00    +0.149 HD
BRANCH  27  29
ATOM     29  C   UNL     1      -3.252  -3.402   5.447  0.00  0.00    +0.139 C 
BRANCH  29  30
ATOM     30  C   UNL     1      -3.691  -3.499   6.886  0.00  0.00    -0.030 A 
ATOM     31  C   UNL     1      -4.238  -4.675   7.364  0.00  0.00    +0.006 A 
ATOM     32  C   UNL     1      -4.641  -4.764   8.683  0.00  0.00    +0.013 A 
ATOM     33  C   UNL     1      -4.497  -3.676   9.524  0.00  0.00    +0.055 A 
ATOM     34  C   UNL     1      -3.949  -2.501   9.047  0.00  0.00    +0.013 A 
ATOM     35  C   UNL     1      -3.542  -2.413   7.729  0.00  0.00    +0.006 A 
BRANCH  33  36
ATOM     36  C   UNL     1      -4.937  -3.773  10.963  0.00  0.00    +0.417 C 
ATOM     37  F   UNL     1      -3.871  -4.225  11.747  0.00  0.00    -0.166 F 
ATOM     38  F   UNL     1      -5.344  -2.512  11.411  0.00  0.00    -0.166 F 
ATOM     39  F   UNL     1      -6.005  -4.671  11.064  0.00  0.00    -0.166 F 
ENDBRANCH  33  36
ENDBRANCH  29  30
ENDBRANCH  27  29
ENDBRANCH  24  25
ENDBRANCH  23  24
ENDBRANCH   6  23
TORSDOF 9
