REMARK  Name = ZINC39666969
REMARK  8 active torsions:
REMARK  status: ('A' for Active; 'I' for Inactive)
REMARK    1  A    between atoms: C_1  and  C_2
REMARK    2  A    between atoms: C_5  and  C_9
REMARK    3  A    between atoms: C_6  and  C_8
REMARK    4  A    between atoms: C_9  and  C_10
REMARK    5  A    between atoms: C_10  and  N_11
REMARK    6  A    between atoms: C_12  and  C_14
REMARK    7  A    between atoms: C_25  and  C_27
REMARK    8  A    between atoms: C_30  and  C_33
REMARK                            x       y       z     vdW  Elec       q    Type
REMARK                         _______ _______ _______ _____ _____    ______ ____
ROOT
ATOM      1  C   UNL     1      -2.683  -8.116  -0.380  0.00  0.00    +0.100 C 
ATOM      2  C   UNL     1      -2.083  -8.894  -1.573  0.00  0.00    +0.121 C 
ATOM      3  N   UNL     1      -2.923 -10.110  -1.688  0.00  0.00    -0.296 N 
ATOM      4  C   UNL     1      -4.301  -9.632  -1.420  0.00  0.00    +0.115 C 
ATOM      5  C   UNL     1      -4.139  -8.603  -0.283  0.00  0.00    -0.004 C 
ATOM      6  C   UNL     1      -5.100  -7.436  -0.488  0.00  0.00    -0.010 C 
ATOM      7  C   UNL     1      -6.540  -7.933  -0.330  0.00  0.00    -0.082 C 
ATOM      8  N   UNL     1      -6.716  -8.509   1.009  0.00  0.00    +0.379 N 
ATOM      9  C   UNL     1      -5.855  -9.688   1.164  0.00  0.00    -0.082 C 
ATOM     10  C   UNL     1      -4.386  -9.265   1.069  0.00  0.00    -0.010 C 
ATOM     11  C   UNL     1      -2.525 -11.365  -1.972  0.00  0.00    +0.247 C 
ATOM     12  O   UNL     1      -1.340 -11.626  -2.040  0.00  0.00    -0.270 OA
ATOM     13  H   UNL     1      -6.471  -7.821   1.705  0.00  0.00    -0.086 HD
ATOM     14  H   UNL     1      -7.680  -8.780   1.133  0.00  0.00    -0.086 HD
ENDROOT
BRANCH  11  15
ATOM     15  C   UNL     1      -3.529 -12.426  -2.199  0.00  0.00    +0.037 A 
ATOM     16  C   UNL     1      -4.838 -12.089  -2.548  0.00  0.00    +0.013 A 
ATOM     17  C   UNL     1      -5.771 -13.083  -2.759  0.00  0.00    +0.013 A 
ATOM     18  C   UNL     1      -5.411 -14.412  -2.625  0.00  0.00    +0.055 A 
ATOM     19  C   UNL     1      -4.116 -14.754  -2.279  0.00  0.00    +0.013 A 
ATOM     20  C   UNL     1      -3.172 -13.769  -2.071  0.00  0.00    +0.013 A 
BRANCH  18  21
ATOM     21  C   UNL     1      -6.435 -15.493  -2.857  0.00  0.00    +0.417 C 
ATOM     22  F   UNL     1      -6.421 -15.867  -4.205  0.00  0.00    -0.166 F 
ATOM     23  F   UNL     1      -6.130 -16.604  -2.062  0.00  0.00    -0.166 F 
ATOM     24  F   UNL     1      -7.705 -15.013  -2.519  0.00  0.00    -0.166 F 
ENDBRANCH  18  21
ENDBRANCH  11  15
BRANCH   1  26
ATOM     25  N   UNL     1      -2.523  -5.768   0.380  0.00  0.00    -0.315 N 
ATOM     26  C   UNL     1      -2.642  -6.634  -0.646  0.00  0.00    +0.218 C 
ATOM     27  O   UNL     1      -2.714  -6.220  -1.784  0.00  0.00    -0.275 OA
ATOM     28  H   UNL     1      -2.465  -6.099   1.289  0.00  0.00    +0.149 HD
BRANCH  25  29
ATOM     29  C   UNL     1      -2.483  -4.326   0.121  0.00  0.00    +0.109 C 
BRANCH  29  30
ATOM     30  C   UNL     1      -2.346  -3.574   1.446  0.00  0.00    +0.054 C 
BRANCH  30  35
ATOM     31  C   UNL     1      -2.187   2.111   0.421  0.00  0.00    +0.044 C 
ATOM     32  C   UNL     1      -2.229   0.629   0.688  0.00  0.00    -0.050 A 
ATOM     33  C   UNL     1      -1.051  -0.083   0.820  0.00  0.00    +0.003 A 
ATOM     34  C   UNL     1      -1.089  -1.443   1.065  0.00  0.00    +0.004 A 
ATOM     35  C   UNL     1      -2.305  -2.091   1.179  0.00  0.00    -0.043 A 
ATOM     36  C   UNL     1      -3.482  -1.379   1.049  0.00  0.00    -0.047 A 
ATOM     37  C   UNL     1      -3.444  -0.018   0.807  0.00  0.00    +0.007 A 
ATOM     38  C   UNL     1      -4.808  -2.086   1.173  0.00  0.00    +0.044 C 
ENDBRANCH  30  35
ENDBRANCH  29  30
ENDBRANCH  25  29
ENDBRANCH   1  26
TORSDOF 6
