REMARK  Name = ZINC16609132
REMARK  10 active torsions:
REMARK  status: ('A' for Active; 'I' for Inactive)
REMARK    1  A    between atoms: C_1  and  C_2
REMARK    2  A    between atoms: C_2  and  N_3
REMARK    3  A    between atoms: C_4  and  C_33
REMARK    4  A    between atoms: C_5  and  C_28
REMARK    5  A    between atoms: C_6  and  C_11
REMARK    6  A    between atoms: C_14  and  N_17
REMARK    7  A    between atoms: C_18  and  C_20
REMARK    8  A    between atoms: C_28  and  O_30
REMARK    9  A    between atoms: O_30  and  C_31
REMARK   10  A    between atoms: C_31  and  C_32
REMARK                            x       y       z     vdW  Elec       q    Type
REMARK                         _______ _______ _______ _____ _____    ______ ____
ROOT
ATOM      1  C   UNL     1       0.108   3.285   0.705  0.00  0.00    -0.022 A 
ATOM      2  C   UNL     1       0.545   2.735   1.896  0.00  0.00    +0.007 A 
ATOM      3  C   UNL     1      -0.233   2.838   3.032  0.00  0.00    +0.023 A 
ATOM      4  C   UNL     1      -1.460   3.485   2.975  0.00  0.00    +0.034 A 
ATOM      5  C   UNL     1      -1.899   4.032   1.776  0.00  0.00    +0.023 A 
ATOM      6  C   UNL     1      -1.113   3.930   0.645  0.00  0.00    +0.007 A 
ENDROOT
BRANCH   1  10
ATOM      7  N   UNL     1       3.100   1.458  -0.895  0.00  0.00    -0.286 N 
ATOM      8  C   UNL     1       1.863   1.012  -1.261  0.00  0.00    +0.021 C 
ATOM      9  C   UNL     1       0.769   1.790  -1.113  0.00  0.00    +0.078 C 
ATOM     10  C   UNL     1       0.963   3.176  -0.532  0.00  0.00    +0.141 C 
ATOM     11  N   UNL     1       2.337   3.559  -0.164  0.00  0.00    -0.315 N 
ATOM     12  C   UNL     1       3.328   2.670  -0.373  0.00  0.00    +0.138 C 
ATOM     13  S   UNL     1       4.931   3.104   0.044  0.00  0.00    -0.018 S 
ATOM     14  C   UNL     1       1.716  -0.371  -1.840  0.00  0.00    +0.061 C 
ATOM     15  H   UNL     1       2.524   4.432   0.216  0.00  0.00    +0.149 HD
BRANCH   7  17
ATOM     16  C   UNL     1       4.758   0.689  -2.520  0.00  0.00    +0.025 C 
ATOM     17  C   UNL     1       4.243   0.561  -1.085  0.00  0.00    +0.109 C 
ENDBRANCH   7  17
BRANCH   9  18
ATOM     18  C   UNL     1      -0.513   1.329  -1.492  0.00  0.00    +0.339 C 
ATOM     19  O   UNL     1      -0.634   0.249  -2.039  0.00  0.00    -0.245 OA
BRANCH  18  20
ATOM     20  O   UNL     1      -1.602   2.089  -1.252  0.00  0.00    -0.462 OA
BRANCH  20  21
ATOM     21  C   UNL     1      -2.864   1.564  -1.667  0.00  0.00    +0.229 C 
ATOM     22  C   UNL     1      -3.972   2.559  -1.314  0.00  0.00    +0.048 C 
ENDBRANCH  20  21
ENDBRANCH  18  20
ENDBRANCH   9  18
ENDBRANCH   1  10
BRANCH   4  23
ATOM     23  N   UNL     1      -2.254   3.586   4.123  0.00  0.00    -0.282 N 
ATOM     24  C   UNL     1      -1.675   3.707   5.334  0.00  0.00    +0.248 C 
ATOM     25  O   UNL     1      -0.468   3.825   5.421  0.00  0.00    -0.270 OA
ATOM     26  H   UNL     1      -3.221   3.569   4.047  0.00  0.00    +0.155 HD
BRANCH  24  27
ATOM     27  C   UNL     1      -2.507   3.695   6.555  0.00  0.00    +0.040 A 
ATOM     28  C   UNL     1      -3.893   3.565   6.458  0.00  0.00    +0.033 A 
ATOM     29  C   UNL     1      -4.665   3.549   7.603  0.00  0.00    +0.043 A 
ATOM     30  C   UNL     1      -4.067   3.673   8.845  0.00  0.00    +0.040 A 
ATOM     31  C   UNL     1      -2.693   3.808   8.948  0.00  0.00    +0.043 A 
ATOM     32  C   UNL     1      -1.910   3.820   7.811  0.00  0.00    +0.033 A 
ATOM     33 CL   UNL     1      -1.952   3.962  10.511  0.00  0.00    -0.083 Cl
ATOM     34 CL   UNL     1      -6.388   3.381   7.484  0.00  0.00    -0.083 Cl
ENDBRANCH  24  27
ENDBRANCH   4  23
TORSDOF 7
