REMARK  Name = ZINC13346430
REMARK  9 active torsions:
REMARK  status: ('A' for Active; 'I' for Inactive)
REMARK    1  A    between atoms: C_1  and  C_2
REMARK    2  A    between atoms: C_4  and  C_26
REMARK    3  A    between atoms: C_6  and  S_8
REMARK    4  A    between atoms: S_8  and  C_9
REMARK    5  A    between atoms: C_9  and  C_10
REMARK    6  A    between atoms: N_12  and  N_13
REMARK    7  A    between atoms: N_13  and  S_14
REMARK    8  A    between atoms: S_14  and  C_17
REMARK    9  A    between atoms: C_21  and  C_23
REMARK                            x       y       z     vdW  Elec       q    Type
REMARK                         _______ _______ _______ _____ _____    ______ ____
ROOT
ATOM      1  N   UNL     1      -0.897   1.885  -1.312  0.00  0.00    -0.108 NA
ATOM      2  H   UNL     1      -1.201   1.223  -1.952  0.00  0.00    +0.172 HD
ENDROOT
BRANCH   1   5
ATOM      3  C   UNL     1      -0.870   3.847  -2.661  0.00  0.00    +0.238 C 
ATOM      4  O   UNL     1      -0.303   3.223  -3.533  0.00  0.00    -0.274 OA
ATOM      5  N   UNL     1      -1.204   3.239  -1.506  0.00  0.00    -0.231 N 
ATOM      6  H   UNL     1      -1.657   3.738  -0.808  0.00  0.00    +0.171 HD
BRANCH   3   7
ATOM      7  C   UNL     1      -1.199   5.303  -2.869  0.00  0.00    +0.174 C 
BRANCH   7   8
ATOM      8  S   UNL     1      -0.627   5.823  -4.506  0.00  0.00    -0.077 S 
BRANCH   8  14
ATOM      9  C   UNL     1      -2.824   9.790  -2.135  0.00  0.00    +0.066 C 
ATOM     10  C   UNL     1      -2.128   9.254  -3.359  0.00  0.00    +0.043 A 
ATOM     11  C   UNL     1      -1.886  10.079  -4.446  0.00  0.00    +0.046 A 
ATOM     12  C   UNL     1      -1.243   9.546  -5.553  0.00  0.00    +0.043 A 
ATOM     13  N   UNL     1      -0.881   8.274  -5.538  0.00  0.00    -0.227 NA
ATOM     14  C   UNL     1      -1.127   7.512  -4.482  0.00  0.00    +0.189 A 
ATOM     15  N   UNL     1      -1.744   7.989  -3.411  0.00  0.00    -0.227 NA
ATOM     16  C   UNL     1      -0.959  10.406  -6.757  0.00  0.00    +0.066 C 
ENDBRANCH   8  14
ENDBRANCH   7   8
ENDBRANCH   3   7
ENDBRANCH   1   5
BRANCH   1  17
ATOM     17  S   UNL     1      -0.017   1.417   0.010  0.00  0.00    +0.074 S 
ATOM     18  O   UNL     1       0.002  -0.004   0.002  0.00  0.00    -0.152 OA
ATOM     19  O   UNL     1       1.172   2.195   0.003  0.00  0.00    -0.152 OA
BRANCH  17  20
ATOM     20  C   UNL     1      -0.927   1.900   1.439  0.00  0.00    +0.108 A 
ATOM     21  C   UNL     1      -0.715   3.147   2.003  0.00  0.00    +0.030 A 
ATOM     22  C   UNL     1      -1.429   3.537   3.122  0.00  0.00    +0.018 A 
ATOM     23  C   UNL     1      -2.350   2.680   3.691  0.00  0.00    +0.032 A 
ATOM     24  C   UNL     1      -2.563   1.418   3.130  0.00  0.00    +0.079 A 
ATOM     25  C   UNL     1      -1.843   1.034   1.997  0.00  0.00    +0.044 A 
ATOM     26 BR   UNL     1      -3.319   3.212   5.225  0.00  0.00    -0.049 Br
BRANCH  24  27
ATOM     27  C   UNL     1      -3.547   0.495   3.732  0.00  0.00    +0.388 C 
ATOM     28  O   UNL     1      -4.172   0.833   4.718  0.00  0.00    -0.241 OA
ATOM     29  O   UNL     1      -3.751  -0.720   3.189  0.00  0.00    -0.241 OA
ENDBRANCH  24  27
ENDBRANCH  17  20
ENDBRANCH   1  17
TORSDOF 7
