REMARK  Name = ZINC36013988
REMARK  13 active torsions:
REMARK  status: ('A' for Active; 'I' for Inactive)
REMARK    1  A    between atoms: C_1  and  C_2
REMARK    2  A    between atoms: C_2  and  N_3
REMARK    3  A    between atoms: C_4  and  C_23
REMARK    4  A    between atoms: C_5  and  C_18
REMARK    5  A    between atoms: C_6  and  C_11
REMARK    6  A    between atoms: C_14  and  C_17
REMARK    7  A    between atoms: C_18  and  O_20
REMARK    8  A    between atoms: O_20  and  C_21
REMARK    9  A    between atoms: C_21  and  C_22
REMARK   10  A    between atoms: C_23  and  N_24
REMARK   11  A    between atoms: N_33  and  C_34
REMARK   12  A    between atoms: C_34  and  C_35
REMARK   13  A    between atoms: C_34  and  C_36
REMARK                            x       y       z     vdW  Elec       q    Type
REMARK                         _______ _______ _______ _____ _____    ______ ____
ROOT
ATOM      1  N   UNL     1      -1.429  -0.366   0.196  0.00  0.00    -0.261 N 
ATOM      2  C   UNL     1      -1.785  -0.925   1.390  0.00  0.00    +0.010 C 
ATOM      3  C   UNL     1      -2.913  -1.659   1.508  0.00  0.00    +0.076 C 
ATOM      4  C   UNL     1      -3.768  -1.841   0.270  0.00  0.00    +0.143 C 
ATOM      5  N   UNL     1      -3.296  -1.198  -0.968  0.00  0.00    -0.288 N 
ATOM      6  C   UNL     1      -2.149  -0.491  -0.926  0.00  0.00    +0.307 C 
ATOM      7  O   UNL     1      -1.753   0.047  -1.941  0.00  0.00    -0.252 OA
ATOM      8  H   UNL     1      -3.800  -1.278  -1.792  0.00  0.00    +0.151 HD
ENDROOT
BRANCH   4   9
ATOM      9  C   UNL     1      -5.144  -1.308   0.574  0.00  0.00    -0.022 A 
ATOM     10  C   UNL     1      -5.387   0.052   0.517  0.00  0.00    +0.006 A 
ATOM     11  C   UNL     1      -6.650   0.541   0.796  0.00  0.00    +0.004 A 
ATOM     12  C   UNL     1      -7.669  -0.330   1.132  0.00  0.00    -0.050 A 
ATOM     13  C   UNL     1      -7.427  -1.690   1.188  0.00  0.00    +0.004 A 
ATOM     14  C   UNL     1      -6.165  -2.179   0.905  0.00  0.00    +0.006 A 
ATOM     15  C   UNL     1      -9.046   0.203   1.437  0.00  0.00    +0.044 C 
ENDBRANCH   4   9
BRANCH   1  17
ATOM     16  C   UNL     1      -0.502   1.880   0.467  0.00  0.00    +0.025 C 
ATOM     17  C   UNL     1      -0.193   0.418   0.141  0.00  0.00    +0.111 C 
ENDBRANCH   1  17
BRANCH   3  18
ATOM     18  C   UNL     1      -3.282  -2.239   2.744  0.00  0.00    +0.339 C 
ATOM     19  O   UNL     1      -2.628  -2.009   3.744  0.00  0.00    -0.245 OA
BRANCH  18  20
ATOM     20  O   UNL     1      -4.360  -3.048   2.814  0.00  0.00    -0.462 OA
BRANCH  20  21
ATOM     21  C   UNL     1      -4.676  -3.599   4.094  0.00  0.00    +0.229 C 
ATOM     22  C   UNL     1      -5.919  -4.482   3.977  0.00  0.00    +0.048 C 
ENDBRANCH  20  21
ENDBRANCH  18  20
ENDBRANCH   3  18
BRANCH   2  23
ATOM     23  C   UNL     1      -0.906  -0.719   2.596  0.00  0.00    -0.026 C 
BRANCH  23  24
ATOM     24  N   UNL     1      -0.076  -1.913   2.807  0.00  0.00    +0.384 N 
ATOM     25  C   UNL     1       0.570  -1.802   4.112  0.00  0.00    -0.077 C 
ATOM     26  C   UNL     1       0.806  -3.187   4.673  0.00  0.00    +0.000 C 
ATOM     27  C   UNL     1       2.222  -3.658   4.295  0.00  0.00    +0.107 C 
ATOM     28  N   UNL     1       2.562  -3.262   2.913  0.00  0.00    -0.287 N 
ATOM     29  C   UNL     1       1.612  -3.356   1.824  0.00  0.00    +0.091 C 
ATOM     30  C   UNL     1       0.809  -2.039   1.713  0.00  0.00    -0.059 C 
ATOM     31  C   UNL     1       3.801  -2.797   2.657  0.00  0.00    +0.302 C 
ATOM     32  O   UNL     1       4.643  -2.796   3.534  0.00  0.00    -0.253 OA
ATOM     33  N   UNL     1       4.106  -2.333   1.429  0.00  0.00    -0.297 N 
ATOM     34  H   UNL     1       3.415  -2.265   0.751  0.00  0.00    +0.150 HD
ATOM     35  H   UNL     1      -0.681  -2.721   2.821  0.00  0.00    -0.081 HD
BRANCH  33  36
ATOM     36  C   UNL     1       5.480  -1.931   1.118  0.00  0.00    +0.068 C 
ATOM     37  C   UNL     1       6.287  -3.160   0.694  0.00  0.00    +0.027 C 
ATOM     38  C   UNL     1       5.467  -0.911  -0.022  0.00  0.00    +0.027 C 
ENDBRANCH  33  36
ENDBRANCH  23  24
ENDBRANCH   2  23
TORSDOF 8
