REMARK  Name = ZINC07453286
REMARK  12 active torsions:
REMARK  status: ('A' for Active; 'I' for Inactive)
REMARK    1  A    between atoms: C_1  and  C_2
REMARK    2  A    between atoms: C_4  and  O_24
REMARK    3  A    between atoms: C_5  and  O_22
REMARK    4  A    between atoms: C_7  and  C_8
REMARK    5  A    between atoms: C_8  and  N_49
REMARK    6  A    between atoms: C_9  and  N_49
REMARK    7  A    between atoms: C_10  and  C_11
REMARK    8  A    between atoms: C_10  and  N_49
REMARK    9  A    between atoms: N_13  and  C_14
REMARK   10  A    between atoms: C_15  and  C_19
REMARK   11  A    between atoms: O_22  and  C_23
REMARK   12  A    between atoms: O_24  and  C_25
REMARK                            x       y       z     vdW  Elec       q    Type
REMARK                         _______ _______ _______ _____ _____    ______ ____
ROOT
ATOM      1  C   UNL     1      -1.267   1.777  -0.090  0.00  0.00    +0.019 C 
ENDROOT
BRANCH   1   2
ATOM      2  C   UNL     1       0.002   0.971   0.022  0.00  0.00    +0.201 C 
ATOM      3  O   UNL     1      -0.053  -0.216   0.263  0.00  0.00    -0.278 OA
ATOM      4  N   UNL     1       1.197   1.569  -0.152  0.00  0.00    -0.281 N 
ATOM      5  H   UNL     1       1.241   2.519  -0.345  0.00  0.00    +0.155 HD
BRANCH   4   6
ATOM      6  C   UNL     1       2.364   0.827  -0.055  0.00  0.00    +0.084 A 
ATOM      7  C   UNL     1       3.677   1.258  -0.206  0.00  0.00    +0.065 A 
ATOM      8  C   UNL     1       4.710   0.262  -0.046  0.00  0.00    +0.022 A 
ATOM      9  C   UNL     1       4.315  -0.995   0.224  0.00  0.00    +0.048 A 
ATOM     10  S   UNL     1       2.539  -0.864   0.276  0.00  0.00    -0.081 S 
BRANCH   7  11
ATOM     11  C   UNL     1       3.997   2.656  -0.509  0.00  0.00    +0.244 C 
ATOM     12  O   UNL     1       3.102   3.472  -0.635  0.00  0.00    -0.270 OA
ATOM     13  N   UNL     1       5.282   3.038  -0.649  0.00  0.00    -0.325 N 
ATOM     14  H   UNL     1       5.995   2.389  -0.549  0.00  0.00    +0.145 HD
ATOM     15  H   UNL     1       5.493   3.964  -0.850  0.00  0.00    +0.145 HD
ENDBRANCH   7  11
ENDBRANCH   4   6
ENDBRANCH   1   2
BRANCH   1  17
ATOM     16  C   UNL     1      -2.448   0.400   1.514  0.00  0.00    -0.095 C 
ATOM     17  N   UNL     1      -2.422   0.877   0.115  0.00  0.00    +0.386 N 
ATOM     18  H   UNL     1      -2.331   0.069  -0.511  0.00  0.00    -0.081 HD
BRANCH  17  19
ATOM     19  C   UNL     1      -3.678   1.590  -0.199  0.00  0.00    -0.042 C 
BRANCH  19  26
ATOM     20  C   UNL     1      -3.800  -0.086  -2.545  0.00  0.00    +0.044 C 
ATOM     21  C   UNL     1      -4.844  -0.225  -1.467  0.00  0.00    -0.045 A 
ATOM     22  C   UNL     1      -5.855  -1.159  -1.601  0.00  0.00    +0.053 A 
ATOM     23  C   UNL     1      -6.818  -1.284  -0.613  0.00  0.00    +0.162 A 
ATOM     24  C   UNL     1      -6.762  -0.472   0.516  0.00  0.00    +0.162 A 
ATOM     25  C   UNL     1      -5.744   0.458   0.647  0.00  0.00    +0.051 A 
ATOM     26  C   UNL     1      -4.785   0.578  -0.343  0.00  0.00    -0.057 A 
BRANCH  24  27
ATOM     27  O   UNL     1      -7.705  -0.591   1.488  0.00  0.00    -0.491 OA
ATOM     28  C   UNL     1      -7.585   0.275   2.619  0.00  0.00    +0.277 C 
ENDBRANCH  24  27
BRANCH  23  29
ATOM     29  O   UNL     1      -7.815  -2.199  -0.746  0.00  0.00    -0.491 OA
ATOM     30  C   UNL     1      -7.809  -2.998  -1.931  0.00  0.00    +0.277 C 
ENDBRANCH  23  29
ENDBRANCH  19  26
ENDBRANCH  17  19
ENDBRANCH   1  17
TORSDOF 8
