REMARK  Name = ZINC36296272
REMARK  6 active torsions:
REMARK  status: ('A' for Active; 'I' for Inactive)
REMARK    1  A    between atoms: C_1  and  C_2
REMARK    2  A    between atoms: C_3  and  N_21
REMARK    3  A    between atoms: C_7  and  N_8
REMARK    4  A    between atoms: N_8  and  S_9
REMARK    5  A    between atoms: S_9  and  C_12
REMARK    6  A    between atoms: C_17  and  N_18
REMARK                            x       y       z     vdW  Elec       q    Type
REMARK                         _______ _______ _______ _____ _____    ______ ____
ROOT
ATOM      1  S   UNL     1      -1.194  -1.491   5.295  0.00  0.00    +0.094 S 
ATOM      2  O   UNL     1      -2.605  -1.349   5.387  0.00  0.00    -0.148 OA
ATOM      3  O   UNL     1      -0.483  -2.498   6.003  0.00  0.00    -0.148 OA
ENDROOT
BRANCH   1   4
ATOM      4  C   UNL     1      -0.500   0.053   5.782  0.00  0.00    +0.140 A 
ATOM      5  C   UNL     1       0.546   0.087   6.685  0.00  0.00    +0.031 A 
ATOM      6  C   UNL     1       1.091   1.298   7.067  0.00  0.00    +0.002 A 
ATOM      7  C   UNL     1       0.590   2.476   6.545  0.00  0.00    +0.002 A 
ATOM      8  C   UNL     1      -0.455   2.443   5.642  0.00  0.00    +0.035 A 
ATOM      9  C   UNL     1      -0.997   1.231   5.257  0.00  0.00    +0.153 A 
BRANCH   9  10
ATOM     10  N   UNL     1      -2.113   1.194   4.285  0.00  0.00    +0.058 N 
ATOM     11  O   UNL     1      -2.981   2.036   4.329  0.00  0.00    -0.126 OA
ATOM     12  O   UNL     1      -2.158   0.324   3.448  0.00  0.00    -0.126 OA
ENDBRANCH   9  10
ENDBRANCH   1   4
BRANCH   1  13
ATOM     13  N   UNL     1      -0.843  -1.702   3.691  0.00  0.00    -0.097 NA
BRANCH  13  20
ATOM     14  C   UNL     1      -0.195  -1.983   0.937  0.00  0.00    +0.048 C 
ATOM     15  C   UNL     1      -0.979  -3.031   1.683  0.00  0.00    -0.005 A 
ATOM     16  C   UNL     1      -1.403  -4.180   1.029  0.00  0.00    +0.029 A 
ATOM     17  C   UNL     1      -2.126  -5.144   1.720  0.00  0.00    +0.023 A 
ATOM     18  C   UNL     1      -2.422  -4.962   3.058  0.00  0.00    +0.004 A 
ATOM     19  C   UNL     1      -2.002  -3.820   3.712  0.00  0.00    +0.027 A 
ATOM     20  C   UNL     1      -1.273  -2.854   3.027  0.00  0.00    +0.079 A 
BRANCH  16  21
ATOM     21  N   UNL     1      -1.105  -4.365  -0.323  0.00  0.00    -0.358 N 
ATOM     22  H   UNL     1      -0.601  -3.691  -0.805  0.00  0.00    +0.142 HD
ATOM     23  H   UNL     1      -1.401  -5.168  -0.779  0.00  0.00    +0.142 HD
ENDBRANCH  16  21
ENDBRANCH  13  20
ENDBRANCH   1  13
TORSDOF 5
