REMARK  Name = ZINC36072010
REMARK  10 active torsions:
REMARK  status: ('A' for Active; 'I' for Inactive)
REMARK    1  A    between atoms: C_1  and  C_2
REMARK    2  A    between atoms: C_5  and  C_39
REMARK    3  A    between atoms: C_6  and  C_8
REMARK    4  A    between atoms: C_10  and  C_30
REMARK    5  A    between atoms: C_11  and  C_29
REMARK    6  A    between atoms: C_15  and  C_18
REMARK    7  A    between atoms: C_19  and  N_21
REMARK    8  A    between atoms: N_21  and  C_22
REMARK    9  A    between atoms: C_22  and  C_23
REMARK   10  A    between atoms: N_32  and  C_33
REMARK                            x       y       z     vdW  Elec       q    Type
REMARK                         _______ _______ _______ _____ _____    ______ ____
ROOT
ATOM      1  C   UNL     1       0.220  -3.011   2.724  0.00  0.00    +0.148 C 
ATOM      2  C   UNL     1       1.699  -3.020   3.042  0.00  0.00    +0.061 C 
ATOM      3  C   UNL     1       2.146  -2.190   4.050  0.00  0.00    +0.051 C 
ATOM      4  N   UNL     1       1.297  -1.417   4.709  0.00  0.00    -0.230 NA
ATOM      5  C   UNL     1       0.001  -1.361   4.483  0.00  0.00    +0.166 C 
ATOM      6  N   UNL     1      -0.639  -2.102   3.530  0.00  0.00    -0.267 N 
ATOM      7  C   UNL     1      -2.004  -1.930   3.416  0.00  0.00    +0.048 C 
ATOM      8  C   UNL     1      -2.597  -1.048   4.250  0.00  0.00    +0.072 C 
ATOM      9  S   UNL     1      -1.215  -0.457   5.205  0.00  0.00    -0.060 S 
ATOM     10  C   UNL     1       3.611  -2.164   4.403  0.00  0.00    +0.066 C 
ENDROOT
BRANCH   1  16
ATOM     11  C   UNL     1      -0.283   0.487  -0.820  0.00  0.00    +0.044 C 
ATOM     12  C   UNL     1      -0.182  -0.963  -0.422  0.00  0.00    -0.050 A 
ATOM     13  C   UNL     1      -0.237  -1.951  -1.388  0.00  0.00    +0.003 A 
ATOM     14  C   UNL     1      -0.144  -3.280  -1.024  0.00  0.00    +0.004 A 
ATOM     15  C   UNL     1       0.004  -3.624   0.308  0.00  0.00    -0.045 A 
ATOM     16  C   UNL     1       0.059  -2.637   1.274  0.00  0.00    -0.019 A 
ATOM     17  C   UNL     1      -0.029  -1.306   0.908  0.00  0.00    +0.009 A 
ATOM     18  C   UNL     1       0.104  -5.074   0.705  0.00  0.00    +0.044 C 
ENDBRANCH   1  16
BRANCH   2  19
ATOM     19  C   UNL     1       2.586  -3.845   2.335  0.00  0.00    +0.248 C 
ATOM     20  O   UNL     1       2.672  -5.029   2.616  0.00  0.00    -0.270 OA
ATOM     21  N   UNL     1       3.343  -3.330   1.347  0.00  0.00    -0.282 N 
ATOM     22  H   UNL     1       3.340  -2.374   1.181  0.00  0.00    +0.155 HD
BRANCH  21  23
ATOM     23  C   UNL     1       4.133  -4.173   0.559  0.00  0.00    +0.034 A 
ATOM     24  C   UNL     1       3.732  -5.481   0.322  0.00  0.00    +0.023 A 
ATOM     25  C   UNL     1       4.514  -6.311  -0.457  0.00  0.00    +0.002 A 
ATOM     26  C   UNL     1       5.696  -5.841  -1.000  0.00  0.00    +0.000 A 
ATOM     27  C   UNL     1       6.099  -4.539  -0.765  0.00  0.00    +0.002 A 
ATOM     28  C   UNL     1       5.318  -3.702   0.008  0.00  0.00    +0.023 A 
ENDBRANCH  21  23
ENDBRANCH   2  19
BRANCH   7  29
ATOM     29  C   UNL     1      -2.785  -2.679   2.421  0.00  0.00    +0.091 C 
ATOM     30  C   UNL     1      -4.088  -2.396   2.235  0.00  0.00    +0.239 C 
ATOM     31  O   UNL     1      -4.648  -1.335   2.867  0.00  0.00    -0.271 OA
BRANCH  30  32
ATOM     32  N   UNL     1      -4.857  -3.188   1.399  0.00  0.00    -0.309 N 
ATOM     33  H   UNL     1      -4.456  -3.947   0.947  0.00  0.00    +0.149 HD
BRANCH  32  34
ATOM     34  C   UNL     1      -6.275  -2.879   1.197  0.00  0.00    +0.136 C 
BRANCH  34  35
ATOM     35  C   UNL     1      -6.887  -3.900   0.235  0.00  0.00    +0.135 C 
ATOM     36  C   UNL     1      -8.348  -3.513  -0.078  0.00  0.00    +0.035 C 
ATOM     37  C   UNL     1      -9.057  -4.895  -0.101  0.00  0.00    +0.031 C 
ATOM     38  C   UNL     1      -8.257  -5.653   0.988  0.00  0.00    +0.160 C 
ATOM     39  O   UNL     1      -6.901  -5.195   0.846  0.00  0.00    -0.375 OA
ENDBRANCH  34  35
ENDBRANCH  32  34
ENDBRANCH  30  32
ENDBRANCH   7  29
TORSDOF 7
