REMARK  Name = ZINC39859556
REMARK  10 active torsions:
REMARK  status: ('A' for Active; 'I' for Inactive)
REMARK    1  A    between atoms: C_1  and  O_2
REMARK    2  A    between atoms: O_2  and  C_3
REMARK    3  A    between atoms: C_5  and  C_17
REMARK    4  A    between atoms: C_8  and  O_9
REMARK    5  A    between atoms: O_9  and  C_10
REMARK    6  A    between atoms: C_10  and  C_11
REMARK    7  A    between atoms: C_17  and  N_18
REMARK    8  A    between atoms: C_17  and  N_28
REMARK    9  A    between atoms: C_19  and  C_21
REMARK   10  A    between atoms: C_29  and  C_31
REMARK                            x       y       z     vdW  Elec       q    Type
REMARK                         _______ _______ _______ _____ _____    ______ ____
ROOT
ATOM      1  C   UNL     1      -4.871   0.257   0.037  0.00  0.00    +0.192 C 
ENDROOT
BRANCH   1   4
ATOM      2  C   UNL     1      -1.201  -0.638   0.010  0.00  0.00    +0.162 A 
ATOM      3  C   UNL     1      -2.374   0.099   0.019  0.00  0.00    +0.056 A 
ATOM      4  C   UNL     1      -3.596  -0.546   0.027  0.00  0.00    -0.006 A 
ATOM      5  C   UNL     1      -3.652  -1.928   0.026  0.00  0.00    +0.011 A 
ATOM      6  C   UNL     1      -2.485  -2.669   0.017  0.00  0.00    +0.050 A 
ATOM      7  C   UNL     1      -1.257  -2.028   0.003  0.00  0.00    +0.162 A 
BRANCH   2   9
ATOM      8  C   UNL     1      -0.017   1.425   0.010  0.00  0.00    +0.277 C 
ATOM      9  O   UNL     1       0.002  -0.004   0.002  0.00  0.00    -0.491 OA
ENDBRANCH   2   9
BRANCH   7  10
ATOM     10  O   UNL     1      -0.108  -2.756  -0.012  0.00  0.00    -0.484 OA
BRANCH  10  11
ATOM     11  C   UNL     1      -0.242  -4.179  -0.018  0.00  0.00    +0.264 C 
BRANCH  11  12
ATOM     12  C   UNL     1       1.125  -4.812  -0.034  0.00  0.00    -0.010 A 
ATOM     13  C   UNL     1       1.744  -5.091  -1.239  0.00  0.00    +0.007 A 
ATOM     14  C   UNL     1       2.998  -5.671  -1.254  0.00  0.00    +0.000 A 
ATOM     15  C   UNL     1       3.635  -5.973  -0.064  0.00  0.00    +0.000 A 
ATOM     16  C   UNL     1       3.017  -5.693   1.140  0.00  0.00    +0.000 A 
ATOM     17  C   UNL     1       1.764  -5.109   1.155  0.00  0.00    +0.007 A 
ENDBRANCH  11  12
ENDBRANCH  10  11
ENDBRANCH   7  10
ENDBRANCH   1   4
BRANCH   1  18
ATOM     18  N   UNL     1      -5.917  -0.495   0.734  0.00  0.00    -0.289 N 
ATOM     19  C   UNL     1      -7.156  -0.573   0.208  0.00  0.00    +0.246 C 
ATOM     20  O   UNL     1      -7.405  -0.019  -0.845  0.00  0.00    -0.270 OA
ATOM     21  H   UNL     1      -5.719  -0.938   1.574  0.00  0.00    +0.151 HD
BRANCH  19  22
ATOM     22  C   UNL     1      -8.211  -1.332   0.911  0.00  0.00    +0.037 A 
ATOM     23  C   UNL     1      -7.929  -1.965   2.123  0.00  0.00    +0.016 A 
ATOM     24  C   UNL     1      -8.916  -2.672   2.775  0.00  0.00    +0.039 A 
ATOM     25  C   UNL     1     -10.188  -2.755   2.229  0.00  0.00    +0.123 A 
ATOM     26  C   UNL     1     -10.473  -2.129   1.025  0.00  0.00    +0.039 A 
ATOM     27  C   UNL     1      -9.495  -1.414   0.368  0.00  0.00    +0.016 A 
ATOM     28  F   UNL     1     -11.152  -3.450   2.871  0.00  0.00    -0.205 F 
ENDBRANCH  19  22
ENDBRANCH   1  18
BRANCH   1  29
ATOM     29  N   UNL     1      -4.642   1.528   0.728  0.00  0.00    -0.289 N 
ATOM     30  C   UNL     1      -5.108   2.677   0.199  0.00  0.00    +0.246 C 
ATOM     31  O   UNL     1      -5.718   2.658  -0.853  0.00  0.00    -0.270 OA
ATOM     32  H   UNL     1      -4.155   1.544   1.567  0.00  0.00    +0.151 HD
BRANCH  30  33
ATOM     33  C   UNL     1      -4.876   3.959   0.895  0.00  0.00    +0.037 A 
ATOM     34  C   UNL     1      -4.170   3.984   2.100  0.00  0.00    +0.016 A 
ATOM     35  C   UNL     1      -3.957   5.183   2.746  0.00  0.00    +0.039 A 
ATOM     36  C   UNL     1      -4.443   6.362   2.201  0.00  0.00    +0.123 A 
ATOM     37  C   UNL     1      -5.144   6.343   1.006  0.00  0.00    +0.039 A 
ATOM     38  C   UNL     1      -5.358   5.150   0.348  0.00  0.00    +0.016 A 
ATOM     39  F   UNL     1      -4.232   7.535   2.839  0.00  0.00    -0.205 F 
ENDBRANCH  30  33
ENDBRANCH   1  29
TORSDOF 9
