REMARK  Name = ZINC34785235
REMARK  7 active torsions:
REMARK  status: ('A' for Active; 'I' for Inactive)
REMARK    1  A    between atoms: C_4  and  C_7
REMARK    2  A    between atoms: C_7  and  C_8
REMARK    3  A    between atoms: N_16  and  C_17
REMARK    4  A    between atoms: C_18  and  C_33
REMARK    5  A    between atoms: N_20  and  C_23
REMARK    6  A    between atoms: C_21  and  N_22
REMARK    7  A    between atoms: C_26  and  C_29
REMARK                            x       y       z     vdW  Elec       q    Type
REMARK                         _______ _______ _______ _____ _____    ______ ____
ROOT
ATOM      1  C   UNL     1       6.976  -5.367   4.877  0.00  0.00    +0.103 A 
ATOM      2  C   UNL     1       8.234  -5.649   5.451  0.00  0.00    +0.116 A 
ATOM      3  N   UNL     1       8.094  -6.674   6.267  0.00  0.00    -0.163 NA
ATOM      4  N   UNL     1       6.753  -7.078   6.243  0.00  0.00    -0.216 N 
ATOM      5  C   UNL     1       6.080  -6.258   5.386  0.00  0.00    +0.142 A 
ENDROOT
BRANCH   1  14
ATOM      6  C   UNL     1       5.132  -0.012   2.336  0.00  0.00    -0.004 C 
ATOM      7  C   UNL     1       5.877   0.168   3.660  0.00  0.00    +0.023 C 
ATOM      8  C   UNL     1       7.141  -0.698   3.651  0.00  0.00    +0.109 C 
ATOM      9  N   UNL     1       6.761  -2.087   3.356  0.00  0.00    -0.285 N 
ATOM     10  C   UNL     1       5.964  -2.360   2.152  0.00  0.00    +0.109 C 
ATOM     11  C   UNL     1       4.713  -1.475   2.178  0.00  0.00    +0.023 C 
ATOM     12  C   UNL     1       7.137  -3.090   4.173  0.00  0.00    +0.307 C 
ATOM     13  O   UNL     1       7.875  -2.865   5.113  0.00  0.00    -0.252 OA
ATOM     14  N   UNL     1       6.696  -4.344   3.948  0.00  0.00    -0.265 N 
ATOM     15  H   UNL     1       6.186  -4.542   3.147  0.00  0.00    +0.157 HD
BRANCH   6  16
ATOM     16  C   UNL     1       3.887   0.878   2.327  0.00  0.00    +0.038 C 
BRANCH  16  20
ATOM     17  C   UNL     1       5.067   4.982   2.417  0.00  0.00    +0.000 A 
ATOM     18  C   UNL     1       4.900   4.338   1.206  0.00  0.00    +0.000 A 
ATOM     19  C   UNL     1       4.518   3.010   1.177  0.00  0.00    +0.003 A 
ATOM     20  C   UNL     1       4.304   2.326   2.359  0.00  0.00    -0.047 A 
ATOM     21  C   UNL     1       4.473   2.970   3.570  0.00  0.00    +0.003 A 
ATOM     22  C   UNL     1       4.853   4.299   3.599  0.00  0.00    +0.000 A 
ENDBRANCH  16  20
ENDBRANCH   6  16
ENDBRANCH   1  14
BRANCH   4  23
ATOM     23  C   UNL     1       6.199  -8.136   6.976  0.00  0.00    +0.068 A 
ATOM     24  C   UNL     1       4.901  -8.043   7.458  0.00  0.00    +0.028 A 
ATOM     25  C   UNL     1       4.357  -9.088   8.180  0.00  0.00    +0.014 A 
ATOM     26  C   UNL     1       5.105 -10.226   8.422  0.00  0.00    +0.055 A 
ATOM     27  C   UNL     1       6.399 -10.321   7.943  0.00  0.00    +0.014 A 
ATOM     28  C   UNL     1       6.946  -9.282   7.216  0.00  0.00    +0.028 A 
BRANCH  26  29
ATOM     29  C   UNL     1       4.510 -11.364   9.210  0.00  0.00    +0.417 C 
ATOM     30  F   UNL     1       3.872 -12.252   8.338  0.00  0.00    -0.166 F 
ATOM     31  F   UNL     1       5.525 -12.035   9.899  0.00  0.00    -0.166 F 
ATOM     32  F   UNL     1       3.579 -10.860  10.126  0.00  0.00    -0.166 F 
ENDBRANCH  26  29
ENDBRANCH   4  23
BRANCH   2  33
ATOM     33  C   UNL     1       9.496  -4.918   5.181  0.00  0.00    +0.004 A 
ATOM     34  C   UNL     1       9.727  -4.361   3.925  0.00  0.00    +0.010 A 
ATOM     35  C   UNL     1      10.903  -3.681   3.679  0.00  0.00    +0.001 A 
ATOM     36  C   UNL     1      11.852  -3.554   4.678  0.00  0.00    +0.000 A 
ATOM     37  C   UNL     1      11.628  -4.105   5.926  0.00  0.00    +0.001 A 
ATOM     38  C   UNL     1      10.454  -4.782   6.184  0.00  0.00    +0.010 A 
ENDBRANCH   2  33
BRANCH   5  39
ATOM     39  N   UNL     1       4.719  -6.322   5.083  0.00  0.00    -0.342 N 
ATOM     40  H   UNL     1       4.342  -5.727   4.417  0.00  0.00    +0.144 HD
ATOM     41  H   UNL     1       4.150  -6.962   5.539  0.00  0.00    +0.144 HD
ENDBRANCH   5  39
TORSDOF 7
