REMARK  Name = ZINC09317617
REMARK  8 active torsions:
REMARK  status: ('A' for Active; 'I' for Inactive)
REMARK    1  A    between atoms: C_1  and  C_2
REMARK    2  A    between atoms: C_7  and  N_8
REMARK    3  A    between atoms: C_9  and  C_11
REMARK    4  A    between atoms: C_14  and  O_29
REMARK    5  A    between atoms: N_17  and  N_18
REMARK    6  A    between atoms: C_19  and  C_20
REMARK    7  A    between atoms: C_23  and  O_26
REMARK    8  A    between atoms: O_26  and  C_27
REMARK                            x       y       z     vdW  Elec       q    Type
REMARK                         _______ _______ _______ _____ _____    ______ ____
ROOT
ATOM      1  C   UNL     1       4.866   4.229  -0.234  0.00  0.00    +0.149 C 
ATOM      2  C   UNL     1       4.631   5.529  -1.010  0.00  0.00    +0.119 C 
ATOM      3  C   UNL     1       5.903   6.315  -1.105  0.00  0.00    +0.191 C 
ATOM      4  N   UNL     1       6.827   6.348  -0.214  0.00  0.00    -0.190 NA
ATOM      5  C   UNL     1       6.835   5.685   0.951  0.00  0.00    +0.213 C 
ATOM      6  N   UNL     1       7.872   5.805   1.762  0.00  0.00    -0.122 NA
ATOM      7  S   UNL     1       5.480   4.657   1.418  0.00  0.00    -0.071 S 
ENDROOT
BRANCH   1   9
ATOM      8  N   UNL     1       3.585   2.123  -0.019  0.00  0.00    -0.284 N 
ATOM      9  C   UNL     1       3.571   3.468  -0.114  0.00  0.00    +0.231 C 
ATOM     10  O   UNL     1       2.515   4.065  -0.101  0.00  0.00    -0.274 OA
ATOM     11  H   UNL     1       4.429   1.651   0.051  0.00  0.00    +0.155 HD
BRANCH   8  18
ATOM     12  C   UNL     1       3.541  -0.440   1.214  0.00  0.00    +0.045 C 
ATOM     13  C   UNL     1       2.316   0.154   0.567  0.00  0.00    -0.029 A 
ATOM     14  C   UNL     1       1.127  -0.550   0.562  0.00  0.00    +0.006 A 
ATOM     15  C   UNL     1       0.003  -0.006  -0.030  0.00  0.00    +0.020 A 
ATOM     16  C   UNL     1       0.065   1.245  -0.620  0.00  0.00    +0.043 A 
ATOM     17  C   UNL     1       1.252   1.953  -0.619  0.00  0.00    +0.043 A 
ATOM     18  C   UNL     1       2.382   1.409  -0.024  0.00  0.00    +0.038 A 
ATOM     19 CL   UNL     1      -1.348   1.921  -1.369  0.00  0.00    -0.083 Cl
ENDBRANCH   8  18
ENDBRANCH   1   9
BRANCH   6  20
ATOM     20  N   UNL     1       8.867   6.554   1.429  0.00  0.00    -0.155 NA
ATOM     21  C   UNL     1       9.893   6.672   2.231  0.00  0.00    +0.143 C 
BRANCH  21  22
ATOM     22  C   UNL     1      11.028   7.527   1.852  0.00  0.00    -0.005 A 
ATOM     23  C   UNL     1      11.015   8.210   0.631  0.00  0.00    +0.013 A 
ATOM     24  C   UNL     1      12.079   9.015   0.284  0.00  0.00    +0.046 A 
ATOM     25  C   UNL     1      13.167   9.138   1.138  0.00  0.00    +0.120 A 
ATOM     26  C   UNL     1      13.188   8.457   2.348  0.00  0.00    +0.046 A 
ATOM     27  C   UNL     1      12.127   7.655   2.708  0.00  0.00    +0.013 A 
BRANCH  25  28
ATOM     28  O   UNL     1      14.216   9.928   0.788  0.00  0.00    -0.495 OA
ATOM     29  C   UNL     1      14.130  10.600  -0.471  0.00  0.00    +0.277 C 
ENDBRANCH  25  28
ENDBRANCH  21  22
ENDBRANCH   6  20
BRANCH   3  30
ATOM     30  O   UNL     1       6.093   7.046  -2.218  0.00  0.00    -0.495 OA
ATOM     31  H   UNL     1       6.916   7.552  -2.276  0.00  0.00    +0.293 HD
ENDBRANCH   3  30
TORSDOF 6
