REMARK  Name = ZINC33422401
REMARK  8 active torsions:
REMARK  status: ('A' for Active; 'I' for Inactive)
REMARK    1  A    between atoms: C_1  and  C_2
REMARK    2  A    between atoms: C_2  and  C_3
REMARK    3  A    between atoms: C_3  and  C_5
REMARK    4  A    between atoms: C_3  and  N_6
REMARK    5  A    between atoms: C_7  and  C_9
REMARK    6  A    between atoms: C_11  and  N_20
REMARK    7  A    between atoms: C_14  and  N_15
REMARK    8  A    between atoms: N_23  and  C_24
REMARK                            x       y       z     vdW  Elec       q    Type
REMARK                         _______ _______ _______ _____ _____    ______ ____
ROOT
ATOM      1  C   UNL     1      -4.502  -5.636  -0.176  0.00  0.00    +0.059 A 
ATOM      2  C   UNL     1      -4.357  -4.250  -0.073  0.00  0.00    +0.038 A 
ATOM      3  C   UNL     1      -3.093  -3.688  -0.077  0.00  0.00    +0.036 A 
ATOM      4  C   UNL     1      -1.967  -4.497  -0.188  0.00  0.00    +0.025 A 
ATOM      5  C   UNL     1      -2.100  -5.867  -0.284  0.00  0.00    +0.026 A 
ATOM      6  C   UNL     1      -3.362  -6.447  -0.281  0.00  0.00    +0.042 A 
ENDROOT
BRANCH   3   7
ATOM      7  N   UNL     1      -2.946  -2.297   0.025  0.00  0.00    -0.269 N 
ATOM      8  C   UNL     1      -1.885  -1.777   0.672  0.00  0.00    +0.304 C 
ATOM      9  O   UNL     1      -1.105  -2.511   1.248  0.00  0.00    -0.252 OA
ATOM     10  N   UNL     1      -1.688  -0.444   0.681  0.00  0.00    -0.294 N 
ATOM     11  H   UNL     1      -3.698  -1.630  -0.423  0.00  0.00    +0.156 HD
ATOM     12  H   UNL     1      -2.393   0.220   0.160  0.00  0.00    +0.151 HD
BRANCH  10  13
ATOM     13  C   UNL     1      -0.533   0.121   1.385  0.00  0.00    +0.037 C 
ATOM     14  C   UNL     1      -0.544   1.645   1.240  0.00  0.00    +0.029 C 
ATOM     15  C   UNL     1       0.661   2.235   1.975  0.00  0.00    -0.008 C 
ATOM     16  C   UNL     1       1.951   1.674   1.372  0.00  0.00    +0.007 C 
ATOM     17  C   UNL     1       1.961   0.151   1.516  0.00  0.00    -0.008 C 
ATOM     18  C   UNL     1       0.756  -0.439   0.781  0.00  0.00    +0.029 C 
ATOM     19  C   UNL     1       1.888  -0.221   2.998  0.00  0.00    +0.007 C 
ATOM     20  C   UNL     1       0.598   0.340   3.601  0.00  0.00    -0.008 C 
ATOM     21  C   UNL     1       0.588   1.863   3.457  0.00  0.00    +0.007 C 
ATOM     22  C   UNL     1      -0.607  -0.251   2.867  0.00  0.00    +0.029 C 
ENDBRANCH  10  13
ENDBRANCH   3   7
BRANCH   6  23
ATOM     23  N   UNL     1      -3.495  -7.828  -0.384  0.00  0.00    -0.329 N 
ATOM     24  C   UNL     1      -2.755  -8.348  -1.561  0.00  0.00    +0.105 C 
ATOM     25  C   UNL     1      -2.568  -9.850  -1.226  0.00  0.00    +0.020 C 
ATOM     26  C   UNL     1      -2.312  -9.835   0.298  0.00  0.00    +0.020 C 
ATOM     27  C   UNL     1      -2.909  -8.505   0.793  0.00  0.00    +0.105 C 
ENDBRANCH   6  23
BRANCH   1  29
ATOM     28  N   UNL     1      -6.940  -5.456  -0.177  0.00  0.00    -0.309 N 
ATOM     29  C   UNL     1      -5.846  -6.243  -0.172  0.00  0.00    +0.246 C 
ATOM     30  O   UNL     1      -5.966  -7.453  -0.164  0.00  0.00    -0.270 OA
ATOM     31  H   UNL     1      -6.831  -4.362  -0.184  0.00  0.00    +0.149 HD
BRANCH  28  32
ATOM     32  C   UNL     1      -8.275  -6.059  -0.174  0.00  0.00    +0.070 C 
ATOM     33  C   UNL     1      -8.688  -6.393  -1.609  0.00  0.00    +0.028 C 
BRANCH  32  35
ATOM     34  C   UNL     1      -8.937  -4.836   1.902  0.00  0.00    +0.005 C 
ATOM     35  C   UNL     1      -9.278  -5.074   0.429  0.00  0.00    +0.018 C 
ENDBRANCH  32  35
ENDBRANCH  28  32
ENDBRANCH   1  29
TORSDOF 6
