REMARK  Name = ZINC12767399
REMARK  6 active torsions:
REMARK  status: ('A' for Active; 'I' for Inactive)
REMARK    1  A    between atoms: C_1  and  C_2
REMARK    2  A    between atoms: C_7  and  N_8
REMARK    3  A    between atoms: C_9  and  C_11
REMARK    4  A    between atoms: C_11  and  N_12
REMARK    5  A    between atoms: C_13  and  C_15
REMARK    6  A    between atoms: C_21  and  C_23
REMARK                            x       y       z     vdW  Elec       q    Type
REMARK                         _______ _______ _______ _____ _____    ______ ____
ROOT
ATOM      1  N   UNL     1      -4.300   2.671   2.325  0.00  0.00    -0.306 N 
ATOM      2  C   UNL     1      -3.490   3.042   1.314  0.00  0.00    +0.217 C 
ATOM      3  O   UNL     1      -3.268   2.273   0.402  0.00  0.00    -0.275 OA
ATOM      4  H   UNL     1      -4.477   3.286   3.055  0.00  0.00    +0.149 HD
ENDROOT
BRANCH   2   5
ATOM      5  C   UNL     1      -2.860   4.411   1.315  0.00  0.00    +0.084 C 
ATOM      6  C   UNL     1      -3.956   5.477   1.320  0.00  0.00    +0.013 C 
ATOM      7  C   UNL     1      -4.828   5.319   0.072  0.00  0.00    +0.001 C 
ATOM      8  C   UNL     1      -3.962   5.483  -1.178  0.00  0.00    +0.001 C 
ATOM      9  C   UNL     1      -2.865   4.416  -1.183  0.00  0.00    +0.011 C 
ATOM     10  C   UNL     1      -1.994   4.575   0.065  0.00  0.00    +0.056 C 
BRANCH  10  11
ATOM     11  C   UNL     1      -0.913   3.525   0.060  0.00  0.00    +0.083 A 
ATOM     12  N   UNL     1      -1.046   2.228   0.052  0.00  0.00    -0.244 NA
ATOM     13  C   UNL     1       0.012   1.391   0.053  0.00  0.00    +0.078 A 
ATOM     14  C   UNL     1       0.030  -0.022   0.050  0.00  0.00    +0.029 A 
ATOM     15  C   UNL     1       1.208  -0.701   0.046  0.00  0.00    +0.002 A 
ATOM     16  C   UNL     1       2.429  -0.041   0.045  0.00  0.00    +0.001 A 
ATOM     17  C   UNL     1       2.454   1.341   0.048  0.00  0.00    +0.017 A 
ATOM     18  C   UNL     1       1.270   2.036   0.052  0.00  0.00    +0.039 A 
ATOM     19  S   UNL     1       0.808   3.750   0.057  0.00  0.00    -0.072 S 
ENDBRANCH  10  11
ENDBRANCH   2   5
BRANCH   1  20
ATOM     20  C   UNL     1      -4.912   1.341   2.324  0.00  0.00    +0.200 C 
BRANCH  20  22
ATOM     21  N   UNL     1      -6.431   0.026   3.768  0.00  0.00    -0.284 N 
ATOM     22  C   UNL     1      -5.765   1.179   3.555  0.00  0.00    +0.234 C 
ATOM     23  O   UNL     1      -5.853   2.086   4.356  0.00  0.00    -0.274 OA
ATOM     24  H   UNL     1      -6.426  -0.668   3.090  0.00  0.00    +0.155 HD
BRANCH  21  31
ATOM     25  C   UNL     1      -8.615  -1.797   3.768  0.00  0.00    +0.046 C 
ATOM     26  C   UNL     1      -8.201  -1.050   5.009  0.00  0.00    -0.028 A 
ATOM     27  C   UNL     1      -8.884  -1.244   6.194  0.00  0.00    +0.020 A 
ATOM     28  C   UNL     1      -8.509  -0.554   7.332  0.00  0.00    +0.018 A 
ATOM     29  C   UNL     1      -7.444   0.329   7.289  0.00  0.00    +0.017 A 
ATOM     30  C   UNL     1      -6.754   0.523   6.109  0.00  0.00    +0.024 A 
ATOM     31  C   UNL     1      -7.129  -0.169   4.965  0.00  0.00    +0.036 A 
ATOM     32 BR   UNL     1      -9.452  -0.818   8.950  0.00  0.00    -0.050 Br
ENDBRANCH  21  31
ENDBRANCH  20  22
ENDBRANCH   1  20
TORSDOF 5
