REMARK  Name = ZINC64774488
REMARK  11 active torsions:
REMARK  status: ('A' for Active; 'I' for Inactive)
REMARK    1  A    between atoms: C_1  and  C_2
REMARK    2  A    between atoms: C_4  and  C_32
REMARK    3  A    between atoms: C_6  and  N_8
REMARK    4  A    between atoms: C_9  and  C_11
REMARK    5  A    between atoms: C_11  and  S_12
REMARK    6  A    between atoms: S_12  and  C_13
REMARK    7  A    between atoms: C_17  and  C_20
REMARK    8  A    between atoms: C_22  and  C_31
REMARK    9  A    between atoms: C_24  and  C_30
REMARK   10  A    between atoms: C_25  and  N_26
REMARK   11  A    between atoms: C_27  and  C_29
REMARK                            x       y       z     vdW  Elec       q    Type
REMARK                         _______ _______ _______ _____ _____    ______ ____
ROOT
ATOM      1  C   UNL     1      -0.618  -4.206   7.140  0.00  0.00    +0.213 A 
ATOM      2  N   UNL     1      -0.727  -3.399   8.190  0.00  0.00    -0.180 NA
ATOM      3  C   UNL     1      -0.337  -3.826   9.384  0.00  0.00    +0.300 A 
ATOM      4  O   UNL     1      -0.437  -3.025  10.472  0.00  0.00    -0.263 OA
ATOM      5  C   UNL     1       0.182  -5.129   9.496  0.00  0.00    +0.161 A 
ATOM      6  N   UNL     1       0.264  -5.885   8.408  0.00  0.00    -0.141 NA
ATOM      7  N   UNL     1      -0.130  -5.434   7.269  0.00  0.00    -0.122 NA
ENDROOT
BRANCH   5   8
ATOM      8  C   UNL     1       0.631  -5.649  10.809  0.00  0.00    +0.029 A 
ATOM      9  C   UNL     1      -0.158  -5.463  11.943  0.00  0.00    +0.015 A 
ATOM     10  C   UNL     1       0.264  -5.949  13.163  0.00  0.00    -0.049 A 
ATOM     11  C   UNL     1       1.470  -6.622  13.267  0.00  0.00    +0.008 A 
ATOM     12  C   UNL     1       2.260  -6.813  12.150  0.00  0.00    -0.028 A 
ATOM     13  C   UNL     1       1.846  -6.336  10.915  0.00  0.00    +0.046 A 
ATOM     14  C   UNL     1       3.571  -7.547  12.273  0.00  0.00    +0.046 C 
ATOM     15  C   UNL     1      -0.590  -5.747  14.388  0.00  0.00    +0.044 C 
BRANCH  13  16
ATOM     16  N   UNL     1       2.642  -6.534   9.784  0.00  0.00    -0.285 N 
ATOM     17  C   UNL     1       2.835  -5.525   8.911  0.00  0.00    +0.214 C 
ATOM     18  O   UNL     1       2.362  -4.430   9.135  0.00  0.00    -0.276 OA
ATOM     19  C   UNL     1       3.637  -5.757   7.657  0.00  0.00    +0.109 C 
ATOM     20  H   UNL     1       3.055  -7.397   9.627  0.00  0.00    +0.155 HD
ENDBRANCH  13  16
ENDBRANCH   5   8
BRANCH   1  21
ATOM     21  S   UNL     1      -1.135  -3.640   5.554  0.00  0.00    -0.075 S 
BRANCH  21  22
ATOM     22  C   UNL     1      -0.806  -5.047   4.457  0.00  0.00    +0.173 C 
BRANCH  22  24
ATOM     23  N   UNL     1      -1.055  -5.590   2.056  0.00  0.00    -0.285 N 
ATOM     24  C   UNL     1      -1.209  -4.691   3.049  0.00  0.00    +0.227 C 
ATOM     25  O   UNL     1      -1.673  -3.596   2.809  0.00  0.00    -0.275 OA
ATOM     26  H   UNL     1      -0.753  -6.489   2.259  0.00  0.00    +0.155 HD
BRANCH  23  32
ATOM     27  C   UNL     1      -2.696  -6.806  -2.415  0.00  0.00    +0.044 C 
ATOM     28  C   UNL     1      -2.124  -5.795  -1.456  0.00  0.00    -0.048 A 
ATOM     29  C   UNL     1      -1.870  -4.504  -1.882  0.00  0.00    +0.006 A 
ATOM     30  C   UNL     1      -1.346  -3.573  -1.005  0.00  0.00    -0.048 A 
ATOM     31  C   UNL     1      -1.075  -3.930   0.302  0.00  0.00    +0.026 A 
ATOM     32  C   UNL     1      -1.329  -5.225   0.734  0.00  0.00    +0.034 A 
ATOM     33  C   UNL     1      -1.860  -6.156  -0.149  0.00  0.00    +0.026 A 
ATOM     34  C   UNL     1      -1.071  -2.168  -1.474  0.00  0.00    +0.044 C 
ENDBRANCH  23  32
ENDBRANCH  22  24
ENDBRANCH  21  22
ENDBRANCH   1  21
TORSDOF 6
