REMARK  Name = ZINC09236237
REMARK  7 active torsions:
REMARK  status: ('A' for Active; 'I' for Inactive)
REMARK    1  A    between atoms: C_1  and  O_2
REMARK    2  A    between atoms: O_2  and  C_3
REMARK    3  A    between atoms: C_3  and  C_5
REMARK    4  A    between atoms: C_8  and  C_11
REMARK    5  A    between atoms: C_13  and  C_28
REMARK    6  A    between atoms: C_19  and  C_22
REMARK    7  A    between atoms: N_30  and  C_31
REMARK                            x       y       z     vdW  Elec       q    Type
REMARK                         _______ _______ _______ _____ _____    ______ ____
ROOT
ATOM      1  C   UNL     1      -0.265   5.458   0.035  0.00  0.00    +0.140 C 
ATOM      2  C   UNL     1      -0.372   6.113  -1.349  0.00  0.00    +0.166 C 
ATOM      3  S   UNL     1       0.154   7.846  -1.187  0.00  0.00    -0.069 S 
ATOM      4  C   UNL     1      -0.722   8.229   0.297  0.00  0.00    +0.210 A 
ATOM      5  N   UNL     1      -0.936   9.404   0.826  0.00  0.00    -0.121 NA
ATOM      6  N   UNL     1      -1.604   9.273   1.919  0.00  0.00    -0.127 NA
ATOM      7  C   UNL     1      -1.855   8.002   2.144  0.00  0.00    +0.182 A 
ATOM      8  N   UNL     1      -1.302   7.292   1.106  0.00  0.00    -0.221 N 
ATOM      9  N   UNL     1      -1.327   5.948   0.915  0.00  0.00    -0.272 N 
ATOM     10  H   UNL     1      -2.233   5.645   0.592  0.00  0.00    +0.167 HD
ENDROOT
BRANCH   1  14
ATOM     11  C   UNL     1      -0.615   1.216  -0.377  0.00  0.00    +0.059 A 
ATOM     12  C   UNL     1      -1.759   2.017  -0.371  0.00  0.00    +0.015 A 
ATOM     13  C   UNL     1      -1.639   3.384  -0.232  0.00  0.00    +0.006 A 
ATOM     14  C   UNL     1      -0.388   3.963  -0.111  0.00  0.00    -0.024 A 
ATOM     15  C   UNL     1       0.750   3.176  -0.122  0.00  0.00    +0.006 A 
ATOM     16  C   UNL     1       0.644   1.808  -0.255  0.00  0.00    +0.015 A 
BRANCH  11  17
ATOM     17  C   UNL     1      -0.736  -0.249  -0.520  0.00  0.00    +0.339 C 
ATOM     18  O   UNL     1       0.262  -0.943  -0.530  0.00  0.00    -0.245 OA
BRANCH  17  20
ATOM     19  C   UNL     1      -1.995  -2.261  -0.774  0.00  0.00    +0.280 C 
ATOM     20  O   UNL     1      -1.952  -0.816  -0.638  0.00  0.00    -0.464 OA
ENDBRANCH  17  20
ENDBRANCH  11  17
ENDBRANCH   1  14
BRANCH   7  21
ATOM     21  C   UNL     1      -2.593   7.443   3.296  0.00  0.00    +0.021 A 
ATOM     22  C   UNL     1      -3.061   6.128   3.257  0.00  0.00    +0.011 A 
ATOM     23  C   UNL     1      -3.745   5.611   4.338  0.00  0.00    +0.001 A 
ATOM     24  C   UNL     1      -3.976   6.395   5.454  0.00  0.00    +0.000 A 
ATOM     25  C   UNL     1      -3.519   7.700   5.497  0.00  0.00    +0.001 A 
ATOM     26  C   UNL     1      -2.829   8.228   4.425  0.00  0.00    +0.011 A 
ENDBRANCH   7  21
BRANCH   2  27
ATOM     27  C   UNL     1       0.527   5.396  -2.323  0.00  0.00    +0.233 C 
ATOM     28  O   UNL     1       1.544   4.864  -1.931  0.00  0.00    -0.274 OA
ATOM     29  N   UNL     1       0.200   5.345  -3.630  0.00  0.00    -0.285 N 
ATOM     30  H   UNL     1      -0.650   5.703  -3.931  0.00  0.00    +0.155 HD
BRANCH  29  31
ATOM     31  C   UNL     1       1.086   4.777  -4.551  0.00  0.00    +0.033 A 
ATOM     32  C   UNL     1       2.457   4.894  -4.362  0.00  0.00    +0.023 A 
ATOM     33  C   UNL     1       3.329   4.328  -5.271  0.00  0.00    +0.002 A 
ATOM     34  C   UNL     1       2.839   3.653  -6.374  0.00  0.00    +0.000 A 
ATOM     35  C   UNL     1       1.474   3.539  -6.568  0.00  0.00    +0.002 A 
ATOM     36  C   UNL     1       0.597   4.099  -5.660  0.00  0.00    +0.023 A 
ENDBRANCH  29  31
ENDBRANCH   2  27
TORSDOF 6
