REMARK  Name = ZINC57355146
REMARK  9 active torsions:
REMARK  status: ('A' for Active; 'I' for Inactive)
REMARK    1  A    between atoms: C_1  and  C_2
REMARK    2  A    between atoms: C_2  and  C_4
REMARK    3  A    between atoms: C_2  and  N_14
REMARK    4  A    between atoms: C_7  and  S_10
REMARK    5  A    between atoms: S_10  and  N_13
REMARK    6  A    between atoms: N_14  and  C_15
REMARK    7  A    between atoms: C_15  and  C_16
REMARK    8  A    between atoms: N_18  and  C_19
REMARK    9  A    between atoms: C_20  and  C_29
REMARK                            x       y       z     vdW  Elec       q    Type
REMARK                         _______ _______ _______ _____ _____    ______ ____
ROOT
ATOM      1  C   UNL     1      -0.235  -0.547  -2.346  0.00  0.00    +0.178 C 
ENDROOT
BRANCH   1   2
ATOM      2  C   UNL     1       0.504  -1.036  -3.564  0.00  0.00    +0.231 C 
ATOM      3  O   UNL     1       1.685  -1.300  -3.491  0.00  0.00    -0.274 OA
ATOM      4  N   UNL     1      -0.147  -1.179  -4.736  0.00  0.00    -0.278 N 
ATOM      5  H   UNL     1      -1.092  -0.967  -4.794  0.00  0.00    +0.155 HD
BRANCH   4   6
ATOM      6  C   UNL     1       0.534  -1.629  -5.858  0.00  0.00    +0.090 A 
ATOM      7  C   UNL     1       0.035  -1.829  -7.133  0.00  0.00    +0.084 A 
ATOM      8  C   UNL     1       0.960  -2.312  -8.147  0.00  0.00    -0.018 A 
ATOM      9  C   UNL     1       2.216  -2.510  -7.692  0.00  0.00    -0.004 A 
ATOM     10  S   UNL     1       2.154  -2.049  -5.983  0.00  0.00    -0.077 S 
ATOM     11  C   UNL     1       3.398  -3.016  -8.459  0.00  0.00    +0.043 C 
ATOM     12  C   UNL     1       3.516  -2.234  -9.774  0.00  0.00    +0.005 C 
ATOM     13  C   UNL     1       2.696  -2.951 -10.842  0.00  0.00    +0.001 C 
ATOM     14  C   UNL     1       1.471  -3.611 -10.213  0.00  0.00    +0.005 C 
ATOM     15  C   UNL     1       0.557  -2.558  -9.593  0.00  0.00    +0.037 C 
BRANCH   7  16
ATOM     16  C   UNL     1      -1.339  -1.571  -7.442  0.00  0.00    +0.102 C 
ATOM     17  N   UNL     1      -2.430  -1.366  -7.688  0.00  0.00    -0.191 NA
ENDBRANCH   7  16
ENDBRANCH   4   6
ENDBRANCH   1   2
BRANCH   1  18
ATOM     18  N   UNL     1       0.690  -0.478  -1.207  0.00  0.00    -0.302 NA
ATOM     19  H   UNL     1       1.485   0.104  -1.422  0.00  0.00    +0.123 HD
BRANCH  18  21
ATOM     20  C   UNL     1      -0.019   1.526   0.010  0.00  0.00    +0.029 C 
ATOM     21  C   UNL     1       0.002  -0.004   0.002  0.00  0.00    +0.081 C 
BRANCH  21  22
ATOM     22  C   UNL     1       0.731  -0.503   1.223  0.00  0.00    -0.031 A 
ATOM     23  C   UNL     1       2.113  -0.514   1.247  0.00  0.00    +0.007 A 
ATOM     24  C   UNL     1       2.782  -0.972   2.366  0.00  0.00    +0.029 A 
ATOM     25  C   UNL     1       2.068  -1.419   3.463  0.00  0.00    +0.105 A 
ATOM     26  C   UNL     1       0.686  -1.407   3.439  0.00  0.00    +0.029 A 
ATOM     27  C   UNL     1       0.017  -0.945   2.321  0.00  0.00    +0.007 A 
BRANCH  25  28
ATOM     28  S   UNL     1       2.920  -2.003   4.890  0.00  0.00    +0.056 S 
ATOM     29  O   UNL     1       2.026  -2.874   5.569  0.00  0.00    -0.153 OA
ATOM     30  O   UNL     1       4.206  -2.422   4.452  0.00  0.00    -0.153 OA
BRANCH  28  31
ATOM     31  N   UNL     1       3.159  -0.702   5.885  0.00  0.00    -0.204 NA
ATOM     32  H   UNL     1       3.198  -0.827   6.846  0.00  0.00    +0.144 HD
ATOM     33  H   UNL     1       3.261   0.186   5.507  0.00  0.00    +0.144 HD
ENDBRANCH  28  31
ENDBRANCH  25  28
ENDBRANCH  21  22
ENDBRANCH  18  21
ENDBRANCH   1  18
TORSDOF 8
