REMARK  Name = ZINC56744312
REMARK  9 active torsions:
REMARK  status: ('A' for Active; 'I' for Inactive)
REMARK    1  A    between atoms: C_1  and  C_2
REMARK    2  A    between atoms: C_2  and  C_4
REMARK    3  A    between atoms: C_2  and  N_10
REMARK    4  A    between atoms: C_13  and  N_16
REMARK    5  A    between atoms: N_19  and  C_20
REMARK    6  A    between atoms: C_25  and  C_26
REMARK    7  A    between atoms: C_26  and  C_27
REMARK    8  A    between atoms: N_29  and  C_30
REMARK    9  A    between atoms: N_29  and  C_31
REMARK                            x       y       z     vdW  Elec       q    Type
REMARK                         _______ _______ _______ _____ _____    ______ ____
ROOT
ATOM      1  N   UNL     1      -2.659  -3.568   1.430  0.00  0.00    -0.298 N 
ATOM      2  C   UNL     1      -3.741  -4.340   1.649  0.00  0.00    +0.304 C 
ATOM      3  O   UNL     1      -4.809  -4.045   1.149  0.00  0.00    -0.253 OA
ATOM      4  N   UNL     1      -3.640  -5.438   2.423  0.00  0.00    -0.269 N 
ATOM      5  H   UNL     1      -1.806  -3.803   1.829  0.00  0.00    +0.150 HD
ATOM      6  H   UNL     1      -2.773  -5.720   2.755  0.00  0.00    +0.156 HD
ENDROOT
BRANCH   1  10
ATOM      7  N   UNL     1      -1.386  -0.491   0.046  0.00  0.00    +0.385 N 
ATOM      8  C   UNL     1      -2.075  -0.139   1.315  0.00  0.00    -0.076 C 
ATOM      9  C   UNL     1      -3.223  -1.164   1.432  0.00  0.00    +0.002 C 
ATOM     10  C   UNL     1      -2.768  -2.373   0.589  0.00  0.00    +0.056 C 
ATOM     11  C   UNL     1      -1.384  -1.977   0.033  0.00  0.00    -0.056 C 
ATOM     12  H   UNL     1      -1.897  -0.132  -0.746  0.00  0.00    -0.081 HD
BRANCH   7  14
ATOM     13  C   UNL     1      -0.040   1.554   0.061  0.00  0.00    -0.008 C 
ATOM     14  C   UNL     1      -0.011   0.025   0.047  0.00  0.00    -0.041 C 
BRANCH  14  15
ATOM     15  C   UNL     1       0.706  -0.453  -1.189  0.00  0.00    -0.061 A 
ATOM     16  C   UNL     1       0.045  -0.484  -2.403  0.00  0.00    +0.002 A 
ATOM     17  C   UNL     1       0.703  -0.922  -3.537  0.00  0.00    +0.000 A 
ATOM     18  C   UNL     1       2.021  -1.329  -3.458  0.00  0.00    +0.000 A 
ATOM     19  C   UNL     1       2.683  -1.297  -2.244  0.00  0.00    +0.000 A 
ATOM     20  C   UNL     1       2.026  -0.855  -1.111  0.00  0.00    +0.002 A 
ENDBRANCH  14  15
ENDBRANCH   7  14
ENDBRANCH   1  10
BRANCH   4  21
ATOM     21  C   UNL     1      -4.786  -6.174   2.747  0.00  0.00    +0.038 A 
ATOM     22  C   UNL     1      -6.032  -5.560   2.742  0.00  0.00    +0.023 A 
ATOM     23  C   UNL     1      -7.160  -6.288   3.062  0.00  0.00    +0.002 A 
ATOM     24  C   UNL     1      -7.051  -7.628   3.387  0.00  0.00    +0.000 A 
ATOM     25  C   UNL     1      -5.812  -8.242   3.393  0.00  0.00    +0.006 A 
ATOM     26  C   UNL     1      -4.680  -7.521   3.068  0.00  0.00    -0.017 A 
BRANCH  26  27
ATOM     27  C   UNL     1      -3.331  -8.192   3.069  0.00  0.00    +0.133 C 
BRANCH  27  28
ATOM     28  C   UNL     1      -2.661  -7.971   4.400  0.00  0.00    +0.219 C 
ATOM     29  O   UNL     1      -3.223  -7.330   5.263  0.00  0.00    -0.275 OA
ATOM     30  N   UNL     1      -1.436  -8.484   4.632  0.00  0.00    -0.307 N 
ATOM     31  C   UNL     1      -0.784  -8.269   5.926  0.00  0.00    +0.131 C 
ATOM     32  C   UNL     1      -0.757  -9.258   3.589  0.00  0.00    +0.131 C 
ENDBRANCH  27  28
ENDBRANCH  26  27
ENDBRANCH   4  21
TORSDOF 6
