REMARK  Name = ZINC63376103
REMARK  7 active torsions:
REMARK  status: ('A' for Active; 'I' for Inactive)
REMARK    1  A    between atoms: C_1  and  O_2
REMARK    2  A    between atoms: O_2  and  C_3
REMARK    3  A    between atoms: C_6  and  C_9
REMARK    4  A    between atoms: N_27  and  C_30
REMARK    5  A    between atoms: C_35  and  C_36
REMARK    6  A    between atoms: N_38  and  C_39
REMARK    7  A    between atoms: C_39  and  C_40
REMARK                            x       y       z     vdW  Elec       q    Type
REMARK                         _______ _______ _______ _____ _____    ______ ____
ROOT
ATOM      1  C   UNL     1       2.587  -2.550   4.310  0.00  0.00    +0.135 C 
ATOM      2  C   UNL     1       3.989  -3.005   3.882  0.00  0.00    +0.131 C 
ATOM      3  C   UNL     1       4.462  -4.028   4.907  0.00  0.00    -0.034 C 
ATOM      4  C   UNL     1       5.606  -3.564   5.399  0.00  0.00    -0.001 A 
ATOM      5  C   UNL     1       6.554  -4.133   6.370  0.00  0.00    +0.010 A 
ATOM      6  C   UNL     1       7.641  -3.370   6.664  0.00  0.00    +0.001 A 
ATOM      7  C   UNL     1       7.875  -2.114   6.095  0.00  0.00    +0.002 A 
ATOM      8  C   UNL     1       7.059  -1.518   5.189  0.00  0.00    +0.026 A 
ATOM      9  C   UNL     1       5.885  -2.225   4.798  0.00  0.00    +0.043 A 
ATOM     10  N   UNL     1       4.947  -1.898   3.943  0.00  0.00    -0.375 N 
ATOM     11  C   UNL     1       3.669  -5.262   5.269  0.00  0.00    +0.065 C 
ATOM     12  C   UNL     1       2.316  -5.139   4.547  0.00  0.00    +0.169 C 
ATOM     13  N   UNL     1       1.837  -3.749   4.705  0.00  0.00    -0.264 N 
ATOM     14  C   UNL     1       0.630  -3.816   5.282  0.00  0.00    +0.317 C 
ATOM     15  O   UNL     1      -0.093  -2.855   5.455  0.00  0.00    -0.252 OA
ATOM     16  N   UNL     1       0.313  -5.066   5.648  0.00  0.00    -0.192 N 
ATOM     17  C   UNL     1       1.274  -5.970   5.263  0.00  0.00    +0.248 C 
ATOM     18  O   UNL     1       1.297  -7.167   5.456  0.00  0.00    -0.273 OA
ATOM     19  H   UNL     1       4.891  -1.071   3.440  0.00  0.00    +0.160 HD
ENDROOT
BRANCH   1  23
ATOM     20  C   UNL     1       0.626  -0.618   1.042  0.00  0.00    +0.120 A 
ATOM     21  C   UNL     1       1.202   0.138   2.051  0.00  0.00    +0.046 A 
ATOM     22  C   UNL     1       1.835  -0.488   3.107  0.00  0.00    +0.009 A 
ATOM     23  C   UNL     1       1.895  -1.869   3.158  0.00  0.00    -0.024 A 
ATOM     24  C   UNL     1       1.322  -2.625   2.152  0.00  0.00    +0.009 A 
ATOM     25  C   UNL     1       0.682  -2.003   1.098  0.00  0.00    +0.046 A 
BRANCH  20  27
ATOM     26  C   UNL     1      -0.017   1.425   0.010  0.00  0.00    +0.277 C 
ATOM     27  O   UNL     1       0.002  -0.004   0.002  0.00  0.00    -0.495 OA
ENDBRANCH  20  27
ENDBRANCH   1  23
BRANCH  16  28
ATOM     28  C   UNL     1      -0.858  -5.412   6.326  0.00  0.00    +0.058 A 
ATOM     29  C   UNL     1      -1.999  -5.756   5.615  0.00  0.00    +0.025 A 
ATOM     30  C   UNL     1      -3.155  -6.098   6.287  0.00  0.00    +0.002 A 
ATOM     31  C   UNL     1      -3.187  -6.101   7.672  0.00  0.00    +0.001 A 
ATOM     32  C   UNL     1      -2.063  -5.761   8.394  0.00  0.00    +0.015 A 
ATOM     33  C   UNL     1      -0.884  -5.419   7.728  0.00  0.00    +0.059 A 
BRANCH  33  34
ATOM     34  C   UNL     1       0.325  -5.060   8.495  0.00  0.00    +0.246 C 
ATOM     35  O   UNL     1       1.347  -4.758   7.911  0.00  0.00    -0.270 OA
ATOM     36  N   UNL     1       0.295  -5.068   9.842  0.00  0.00    -0.308 N 
ATOM     37  H   UNL     1      -0.521  -5.309  10.308  0.00  0.00    +0.149 HD
BRANCH  36  38
ATOM     38  C   UNL     1       1.495  -4.712  10.603  0.00  0.00    +0.131 C 
BRANCH  38  39
ATOM     39  C   UNL     1       1.198  -4.799  12.078  0.00  0.00    -0.016 C 
ATOM     40  C   UNL     1       1.944  -5.547  12.853  0.00  0.00    +0.005 C 
ENDBRANCH  38  39
ENDBRANCH  36  38
ENDBRANCH  33  34
ENDBRANCH  16  28
TORSDOF 6
