REMARK  Name = ZINC08684788
REMARK  6 active torsions:
REMARK  status: ('A' for Active; 'I' for Inactive)
REMARK    1  A    between atoms: C_1  and  C_2
REMARK    2  A    between atoms: C_5  and  C_8
REMARK    3  A    between atoms: C_8  and  C_10
REMARK    4  A    between atoms: C_12  and  C_30
REMARK    5  A    between atoms: C_22  and  C_29
REMARK    6  A    between atoms: C_34  and  N_36
REMARK                            x       y       z     vdW  Elec       q    Type
REMARK                         _______ _______ _______ _____ _____    ______ ____
ROOT
ATOM      1  C   UNL     1       2.678   3.202   2.186  0.00  0.00    +0.069 C 
ATOM      2  C   UNL     1       1.790   3.222   0.912  0.00  0.00    +0.016 C 
ATOM      3  C   UNL     1       1.617   1.724   0.582  0.00  0.00    -0.047 C 
ATOM      4  C   UNL     1       0.198   1.279   1.004  0.00  0.00    +0.052 C 
ATOM      5  S   UNL     1       0.567  -0.418   1.635  0.00  0.00    -0.181 S 
ATOM      6  C   UNL     1       2.287  -0.059   2.203  0.00  0.00    -0.005 C 
ATOM      7  C   UNL     1       3.566   1.972   1.923  0.00  0.00    +0.052 C 
ATOM      8  C   UNL     1       4.135   1.427   3.201  0.00  0.00    -0.027 A 
ATOM      9  C   UNL     1       3.572   0.930   4.355  0.00  0.00    +0.008 A 
ATOM     10  C   UNL     1       4.381   0.492   5.389  0.00  0.00    -0.050 A 
ATOM     11  C   UNL     1       5.757   0.555   5.259  0.00  0.00    +0.005 A 
ATOM     12  C   UNL     1       6.326   1.052   4.105  0.00  0.00    +0.024 A 
ATOM     13  C   UNL     1       5.518   1.495   3.060  0.00  0.00    +0.036 A 
ATOM     14  N   UNL     1       5.851   2.029   1.813  0.00  0.00    -0.286 N 
ATOM     15  C   UNL     1       4.760   2.335   1.085  0.00  0.00    +0.212 C 
ATOM     16  O   UNL     1       4.744   2.811  -0.031  0.00  0.00    -0.277 OA
ATOM     17  C   UNL     1       3.766  -0.051   6.652  0.00  0.00    +0.044 C 
ATOM     18  H   UNL     1       6.761   2.164   1.508  0.00  0.00    +0.155 HD
ATOM     19  N   UNL     1       2.742   0.998   1.223  0.00  0.00    +0.401 N 
ATOM     20  H   UNL     1       3.299   0.543   0.490  0.00  0.00    -0.078 HD
ENDROOT
BRANCH   2  21
ATOM     21  C   UNL     1       0.458   3.865   1.201  0.00  0.00    -0.043 A 
ATOM     22  C   UNL     1      -0.248   3.511   2.336  0.00  0.00    +0.004 A 
ATOM     23  C   UNL     1      -1.470   4.101   2.601  0.00  0.00    +0.002 A 
ATOM     24  C   UNL     1      -1.986   5.044   1.732  0.00  0.00    +0.033 A 
ATOM     25  C   UNL     1      -1.279   5.399   0.598  0.00  0.00    +0.126 A 
ATOM     26  C   UNL     1      -0.055   4.812   0.334  0.00  0.00    +0.036 A 
BRANCH  25  27
ATOM     27  N   UNL     1      -1.831   6.409  -0.333  0.00  0.00    +0.056 N 
ATOM     28  O   UNL     1      -2.908   6.929  -0.099  0.00  0.00    -0.126 OA
ATOM     29  O   UNL     1      -1.208   6.721  -1.332  0.00  0.00    -0.126 OA
ENDBRANCH  25  27
ENDBRANCH   2  21
BRANCH   1  30
ATOM     30  C   UNL     1       1.841   3.010   3.425  0.00  0.00    +0.166 C 
ATOM     31  O   UNL     1       1.399   1.914   3.694  0.00  0.00    -0.292 OA
BRANCH  30  36
ATOM     32  C   UNL     1       0.747   7.476   6.876  0.00  0.00    +0.044 C 
ATOM     33  C   UNL     1       1.034   6.305   5.971  0.00  0.00    -0.050 A 
ATOM     34  C   UNL     1       0.527   5.055   6.281  0.00  0.00    +0.004 A 
ATOM     35  C   UNL     1       0.785   3.979   5.458  0.00  0.00    +0.011 A 
ATOM     36  C   UNL     1       1.561   4.153   4.308  0.00  0.00    +0.018 A 
ATOM     37  C   UNL     1       2.074   5.418   4.005  0.00  0.00    +0.011 A 
ATOM     38  C   UNL     1       1.803   6.486   4.835  0.00  0.00    +0.004 A 
ENDBRANCH  30  36
ENDBRANCH   1  30
TORSDOF 4
