REMARK  Name = ZINC02247497
REMARK  4 active torsions:
REMARK  status: ('A' for Active; 'I' for Inactive)
REMARK    1  A    between atoms: C_9  and  C_22
REMARK    2  A    between atoms: C_10  and  N_21
REMARK    3  A    between atoms: N_11  and  C_14
REMARK    4  A    between atoms: N_24  and  C_25
REMARK                            x       y       z     vdW  Elec       q    Type
REMARK                         _______ _______ _______ _____ _____    ______ ____
ROOT
ATOM      1  C   UNL     1      -1.173  -2.091   0.003  0.00  0.00    +0.002 A 
ATOM      2  C   UNL     1       0.039  -2.780  -0.013  0.00  0.00    +0.002 A 
ATOM      3  C   UNL     1       1.224  -2.111  -0.021  0.00  0.00    +0.030 A 
ATOM      4  C   UNL     1       1.235  -0.704  -0.013  0.00  0.00    +0.092 A 
ATOM      5  C   UNL     1       0.002  -0.004   0.002  0.00  0.00    +0.090 A 
ATOM      6  C   UNL     1      -1.203  -0.731   0.010  0.00  0.00    +0.030 A 
ATOM      7  N   UNL     1      -0.016   1.334   0.009  0.00  0.00    -0.241 NA
ATOM      8  C   UNL     1       1.122   2.000   0.002  0.00  0.00    +0.123 A 
ATOM      9  C   UNL     1       1.480   3.427   0.006  0.00  0.00    +0.104 A 
ATOM     10  C   UNL     1       2.870   3.486  -0.006  0.00  0.00    +0.117 A 
ATOM     11  N   UNL     1       3.399   2.230  -0.018  0.00  0.00    -0.280 N 
ATOM     12  C   UNL     1       2.397   1.278  -0.014  0.00  0.00    +0.166 A 
ATOM     13  N   UNL     1       2.396  -0.038  -0.020  0.00  0.00    -0.225 NA
ENDROOT
BRANCH  11  14
ATOM     14  C   UNL     1       4.770   1.943  -0.031  0.00  0.00    +0.050 A 
ATOM     15  C   UNL     1       5.358   1.303   1.052  0.00  0.00    +0.027 A 
ATOM     16  C   UNL     1       6.709   1.018   1.035  0.00  0.00    +0.017 A 
ATOM     17  C   UNL     1       7.479   1.377  -0.057  0.00  0.00    +0.018 A 
ATOM     18  C   UNL     1       6.897   2.019  -1.136  0.00  0.00    +0.017 A 
ATOM     19  C   UNL     1       5.545   2.303  -1.125  0.00  0.00    +0.027 A 
ATOM     20 BR   UNL     1       9.330   0.991  -0.075  0.00  0.00    -0.050 Br
ENDBRANCH  11  14
BRANCH   9  21
ATOM     21  C   UNL     1       0.558   4.560   0.020  0.00  0.00    +0.250 C 
ATOM     22  O   UNL     1       0.164   5.038  -1.028  0.00  0.00    -0.270 OA
ATOM     23  N   UNL     1       0.143   5.077   1.194  0.00  0.00    -0.308 N 
ATOM     24  H   UNL     1       0.456   4.696   2.029  0.00  0.00    +0.149 HD
BRANCH  23  25
ATOM     25  C   UNL     1      -0.782   6.213   1.208  0.00  0.00    +0.073 C 
ATOM     26  C   UNL     1       0.007   7.537   1.154  0.00  0.00    +0.022 C 
ATOM     27  C   UNL     1      -0.793   8.493   2.073  0.00  0.00    +0.002 C 
ATOM     28  C   UNL     1      -1.244   7.562   3.225  0.00  0.00    +0.002 C 
ATOM     29  C   UNL     1      -1.577   6.228   2.525  0.00  0.00    +0.022 C 
ENDBRANCH  23  25
ENDBRANCH   9  21
BRANCH  10  30
ATOM     30  N   UNL     1       3.604   4.643  -0.006  0.00  0.00    -0.343 N 
ATOM     31  H   UNL     1       4.573   4.603  -0.015  0.00  0.00    +0.144 HD
ATOM     32  H   UNL     1       3.154   5.503   0.002  0.00  0.00    +0.144 HD
ENDBRANCH  10  30
TORSDOF 4
