REMARK  Name = ZINC37602346
REMARK  9 active torsions:
REMARK  status: ('A' for Active; 'I' for Inactive)
REMARK    1  A    between atoms: C_1  and  C_2
REMARK    2  A    between atoms: C_2  and  C_3
REMARK    3  A    between atoms: C_2  and  N_4
REMARK    4  A    between atoms: C_5  and  C_7
REMARK    5  A    between atoms: C_10  and  C_12
REMARK    6  A    between atoms: C_12  and  O_13
REMARK    7  A    between atoms: O_13  and  C_14
REMARK    8  A    between atoms: C_20  and  C_32
REMARK    9  A    between atoms: C_25  and  C_27
REMARK                            x       y       z     vdW  Elec       q    Type
REMARK                         _______ _______ _______ _____ _____    ______ ____
ROOT
ATOM      1  C   UNL     1      -9.378  -0.527   0.361  0.00  0.00    +0.121 A 
ATOM      2  C   UNL     1     -10.241  -0.366   1.436  0.00  0.00    +0.046 A 
ATOM      3  C   UNL     1     -11.268   0.548   1.358  0.00  0.00    +0.007 A 
ATOM      4  C   UNL     1     -11.449   1.316   0.213  0.00  0.00    -0.040 A 
ATOM      5  C   UNL     1     -10.588   1.164  -0.851  0.00  0.00    -0.016 A 
ATOM      6  C   UNL     1      -9.553   0.242  -0.777  0.00  0.00    +0.051 A 
ATOM      7  C   UNL     1     -10.709   1.984  -2.110  0.00  0.00    +0.137 C 
ATOM      8  N   UNL     1     -11.989   2.701  -2.112  0.00  0.00    -0.290 N 
ATOM      9  C   UNL     1     -12.393   3.364  -0.862  0.00  0.00    +0.113 C 
ATOM     10  C   UNL     1     -12.603   2.283   0.198  0.00  0.00    +0.054 C 
ATOM     11  C   UNL     1     -12.763   2.751  -3.214  0.00  0.00    +0.219 C 
ATOM     12  O   UNL     1     -12.433   2.149  -4.215  0.00  0.00    -0.275 OA
ENDROOT
BRANCH   7  13
ATOM     13  C   UNL     1     -10.643   1.074  -3.310  0.00  0.00    -0.023 A 
ATOM     14  C   UNL     1     -11.524   0.015  -3.422  0.00  0.00    +0.006 A 
ATOM     15  C   UNL     1     -11.464  -0.820  -4.522  0.00  0.00    +0.000 A 
ATOM     16  C   UNL     1     -10.523  -0.595  -5.510  0.00  0.00    +0.000 A 
ATOM     17  C   UNL     1      -9.643   0.465  -5.398  0.00  0.00    +0.000 A 
ATOM     18  C   UNL     1      -9.706   1.302  -4.300  0.00  0.00    +0.006 A 
ENDBRANCH   7  13
BRANCH  11  19
ATOM     19  C   UNL     1     -14.038   3.553  -3.204  0.00  0.00    +0.075 C 
ATOM     20  C   UNL     1     -15.019   2.973  -2.163  0.00  0.00    +0.013 C 
ATOM     21  C   UNL     1     -16.410   3.127  -2.825  0.00  0.00    +0.001 C 
ATOM     22  C   UNL     1     -16.117   2.812  -4.314  0.00  0.00    +0.001 C 
ATOM     23  C   UNL     1     -14.737   3.451  -4.571  0.00  0.00    +0.013 C 
ENDBRANCH  11  19
BRANCH   1  24
ATOM     24  O   UNL     1      -8.365  -1.431   0.426  0.00  0.00    -0.485 OA
BRANCH  24  25
ATOM     25  C   UNL     1      -8.248  -2.188   1.633  0.00  0.00    +0.291 C 
BRANCH  25  29
ATOM     26  C   UNL     1      -4.947  -3.896   1.674  0.00  0.00    +0.133 A 
ATOM     27  C   UNL     1      -5.437  -5.058   1.142  0.00  0.00    +0.080 A 
ATOM     28  S   UNL     1      -7.067  -4.705   0.941  0.00  0.00    -0.076 S 
ATOM     29  C   UNL     1      -7.077  -3.130   1.522  0.00  0.00    +0.116 A 
ATOM     30  N   UNL     1      -5.836  -2.915   1.862  0.00  0.00    -0.236 NA
BRANCH  26  32
ATOM     31  N   UNL     1      -3.086  -2.576   2.549  0.00  0.00    -0.308 N 
ATOM     32  C   UNL     1      -3.525  -3.736   2.023  0.00  0.00    +0.263 C 
ATOM     33  O   UNL     1      -2.747  -4.652   1.837  0.00  0.00    -0.269 OA
ATOM     34  H   UNL     1      -3.707  -1.845   2.697  0.00  0.00    +0.149 HD
BRANCH  31  36
ATOM     35  C   UNL     1      -1.302  -0.933   2.866  0.00  0.00    +0.027 C 
ATOM     36  C   UNL     1      -1.672  -2.417   2.896  0.00  0.00    +0.067 C 
ATOM     37  C   UNL     1      -1.425  -2.976   4.299  0.00  0.00    +0.027 C 
ENDBRANCH  31  36
ENDBRANCH  26  32
ENDBRANCH  25  29
ENDBRANCH  24  25
ENDBRANCH   1  24
TORSDOF 7
