REMARK  Name = ZINC44162062
REMARK  7 active torsions:
REMARK  status: ('A' for Active; 'I' for Inactive)
REMARK    1  A    between atoms: C_1  and  C_2
REMARK    2  A    between atoms: C_7  and  N_8
REMARK    3  A    between atoms: C_11  and  C_14
REMARK    4  A    between atoms: C_16  and  C_29
REMARK    5  A    between atoms: C_17  and  C_28
REMARK    6  A    between atoms: N_18  and  C_19
REMARK    7  A    between atoms: C_19  and  C_20
REMARK                            x       y       z     vdW  Elec       q    Type
REMARK                         _______ _______ _______ _____ _____    ______ ____
ROOT
ATOM      1  C   UNL     1      -0.213  -1.026   6.724  0.00  0.00    +0.069 A 
ATOM      2  C   UNL     1      -0.390   0.310   6.559  0.00  0.00    +0.042 A 
ATOM      3  C   UNL     1      -0.449   0.886   7.856  0.00  0.00    +0.058 A 
ATOM      4  C   UNL     1      -0.302  -0.143   8.759  0.00  0.00    +0.029 A 
ATOM      5  N   UNL     1      -0.166  -1.295   8.069  0.00  0.00    -0.338 N 
ATOM      6  C   UNL     1      -0.299  -0.008  10.260  0.00  0.00    +0.064 C 
ENDROOT
BRANCH   1  10
ATOM      7  N   UNL     1      -0.381  -2.359   2.027  0.00  0.00    -0.294 N 
ATOM      8  C   UNL     1      -0.203  -2.544   3.390  0.00  0.00    +0.163 A 
ATOM      9  N   UNL     1      -0.303  -1.666   4.371  0.00  0.00    -0.223 NA
ATOM     10  C   UNL     1      -0.097  -2.023   5.637  0.00  0.00    +0.097 A 
ATOM     11  C   UNL     1       0.224  -3.321   5.922  0.00  0.00    +0.078 A 
ATOM     12  S   UNL     1       0.215  -4.035   4.283  0.00  0.00    -0.060 S 
ATOM     13  H   UNL     1      -0.643  -1.490   1.686  0.00  0.00    +0.154 HD
BRANCH   7  20
ATOM     14  C   UNL     1      -2.004  -2.492  -0.306  0.00  0.00    +0.045 C 
ATOM     15  C   UNL     1      -0.953  -3.529  -0.005  0.00  0.00    -0.029 A 
ATOM     16  C   UNL     1      -0.750  -4.581  -0.878  0.00  0.00    +0.005 A 
ATOM     17  C   UNL     1       0.214  -5.533  -0.602  0.00  0.00    +0.000 A 
ATOM     18  C   UNL     1       0.979  -5.436   0.546  0.00  0.00    +0.002 A 
ATOM     19  C   UNL     1       0.781  -4.387   1.422  0.00  0.00    +0.023 A 
ATOM     20  C   UNL     1      -0.183  -3.426   1.146  0.00  0.00    +0.036 A 
ENDBRANCH   7  20
ENDBRANCH   1  10
BRANCH   3  21
ATOM     21  C   UNL     1      -0.631   2.312   8.174  0.00  0.00    +0.243 C 
ATOM     22  O   UNL     1      -0.663   2.677   9.334  0.00  0.00    -0.270 OA
ATOM     23  N   UNL     1      -0.762   3.213   7.180  0.00  0.00    -0.325 N 
ATOM     24  H   UNL     1      -0.737   2.922   6.255  0.00  0.00    +0.145 HD
ATOM     25  H   UNL     1      -0.882   4.153   7.390  0.00  0.00    +0.145 HD
ENDBRANCH   3  21
BRANCH   5  26
ATOM     26  C   UNL     1       0.009  -2.623   8.662  0.00  0.00    +0.160 C 
BRANCH  26  27
ATOM     27  C   UNL     1       1.459  -2.827   9.019  0.00  0.00    +0.008 A 
ATOM     28  C   UNL     1       2.397  -3.015   8.020  0.00  0.00    +0.011 A 
ATOM     29  C   UNL     1       3.727  -3.202   8.346  0.00  0.00    +0.039 A 
ATOM     30  C   UNL     1       4.122  -3.201   9.673  0.00  0.00    +0.126 A 
ATOM     31  C   UNL     1       3.184  -3.013  10.674  0.00  0.00    +0.077 A 
ATOM     32  C   UNL     1       1.853  -2.820  10.346  0.00  0.00    +0.131 A 
ATOM     33  F   UNL     1       0.938  -2.631  11.321  0.00  0.00    -0.205 F 
ATOM     34  F   UNL     1       5.422  -3.384   9.992  0.00  0.00    -0.205 F 
ENDBRANCH  26  27
ENDBRANCH   5  26
TORSDOF 5
