REMARK  Name = ZINC63205566
REMARK  12 active torsions:
REMARK  status: ('A' for Active; 'I' for Inactive)
REMARK    1  A    between atoms: C_1  and  O_2
REMARK    2  A    between atoms: O_2  and  C_3
REMARK    3  A    between atoms: C_6  and  C_11
REMARK    4  A    between atoms: C_8  and  O_9
REMARK    5  A    between atoms: O_9  and  C_10
REMARK    6  A    between atoms: C_11  and  C_13
REMARK    7  A    between atoms: C_11  and  N_22
REMARK    8  A    between atoms: N_15  and  C_16
REMARK    9  A    between atoms: N_22  and  C_23
REMARK   10  A    between atoms: C_23  and  C_24
REMARK   11  A    between atoms: C_29  and  C_31
REMARK   12  A    between atoms: C_31  and  C_32
REMARK                            x       y       z     vdW  Elec       q    Type
REMARK                         _______ _______ _______ _____ _____    ______ ____
ROOT
ATOM      1  C   UNL     1       2.300  -1.757   4.473  0.00  0.00    +0.193 C 
ENDROOT
BRANCH   1   5
ATOM      2  C   UNL     1       2.507   2.481   3.938  0.00  0.00    +0.162 A 
ATOM      3  C   UNL     1       3.263   1.866   4.923  0.00  0.00    +0.050 A 
ATOM      4  C   UNL     1       3.194   0.496   5.093  0.00  0.00    +0.010 A 
ATOM      5  C   UNL     1       2.371  -0.264   4.283  0.00  0.00    -0.015 A 
ATOM      6  C   UNL     1       1.615   0.343   3.298  0.00  0.00    +0.055 A 
ATOM      7  C   UNL     1       1.675   1.717   3.125  0.00  0.00    +0.162 A 
BRANCH   2   9
ATOM      8  C   UNL     1       3.450   4.549   4.638  0.00  0.00    +0.277 C 
ATOM      9  O   UNL     1       2.574   3.829   3.769  0.00  0.00    -0.491 OA
ENDBRANCH   2   9
BRANCH   7  10
ATOM     10  O   UNL     1       0.927   2.316   2.161  0.00  0.00    -0.491 OA
ATOM     11  C   UNL     1       0.096   1.469   1.365  0.00  0.00    +0.277 C 
ENDBRANCH   7  10
ENDBRANCH   1   5
BRANCH   1  12
ATOM     12  C   UNL     1       1.518  -2.067   5.724  0.00  0.00    +0.238 C 
ATOM     13  O   UNL     1       2.102  -2.293   6.763  0.00  0.00    -0.273 OA
ATOM     14  N   UNL     1       0.171  -2.093   5.688  0.00  0.00    -0.311 N 
ATOM     15  H   UNL     1      -0.295  -1.913   4.857  0.00  0.00    +0.149 HD
BRANCH  14  16
ATOM     16  C   UNL     1      -0.588  -2.395   6.904  0.00  0.00    +0.073 C 
ATOM     17  C   UNL     1      -0.709  -3.911   7.067  0.00  0.00    +0.022 C 
ATOM     18  C   UNL     1      -1.502  -4.226   8.337  0.00  0.00    +0.002 C 
ATOM     19  C   UNL     1      -2.899  -3.611   8.231  0.00  0.00    +0.000 C 
ATOM     20  C   UNL     1      -2.778  -2.095   8.068  0.00  0.00    +0.002 C 
ATOM     21  C   UNL     1      -1.985  -1.780   6.798  0.00  0.00    +0.022 C 
ENDBRANCH  14  16
ENDBRANCH   1  12
BRANCH   1  22
ATOM     22  N   UNL     1       3.655  -2.299   4.597  0.00  0.00    -0.278 N 
ATOM     23  C   UNL     1       4.165  -3.070   3.615  0.00  0.00    +0.221 C 
ATOM     24  O   UNL     1       3.501  -3.314   2.630  0.00  0.00    -0.275 OA
BRANCH  22  25
ATOM     25  C   UNL     1       4.456  -2.003   5.787  0.00  0.00    +0.183 C 
BRANCH  25  26
ATOM     26  C   UNL     1       4.698  -3.275   6.558  0.00  0.00    +0.122 A 
ATOM     27  C   UNL     1       5.870  -3.930   6.649  0.00  0.00    +0.046 A 
ATOM     28  C   UNL     1       5.644  -5.062   7.465  0.00  0.00    +0.041 A 
ATOM     29  C   UNL     1       4.348  -5.032   7.824  0.00  0.00    +0.195 A 
ATOM     30  O   UNL     1       3.781  -3.944   7.277  0.00  0.00    -0.466 OA
ENDBRANCH  25  26
ENDBRANCH  22  25
BRANCH  23  31
ATOM     31  C   UNL     1       5.559  -3.627   3.743  0.00  0.00    +0.129 C 
BRANCH  31  32
ATOM     32  C   UNL     1       5.885  -4.448   2.522  0.00  0.00    -0.033 C 
ATOM     33  C   UNL     1       6.546  -4.034   1.417  0.00  0.00    -0.001 A 
ATOM     34  C   UNL     1       7.135  -2.745   1.035  0.00  0.00    +0.010 A 
ATOM     35  C   UNL     1       7.746  -2.633  -0.167  0.00  0.00    +0.001 A 
ATOM     36  C   UNL     1       7.830  -3.715  -1.054  0.00  0.00    +0.002 A 
ATOM     37  C   UNL     1       7.313  -4.929  -0.775  0.00  0.00    +0.026 A 
ATOM     38  C   UNL     1       6.648  -5.160   0.461  0.00  0.00    +0.043 A 
ATOM     39  N   UNL     1       6.073  -6.229   0.957  0.00  0.00    -0.380 N 
ATOM     40  C   UNL     1       5.545  -5.903   2.286  0.00  0.00    +0.145 C 
ATOM     41  H   UNL     1       6.010  -7.093   0.519  0.00  0.00    +0.160 HD
ENDBRANCH  31  32
ENDBRANCH  23  31
ENDBRANCH   1  22
TORSDOF 10
