REMARK  Name = ZINC27550467
REMARK  8 active torsions:
REMARK  status: ('A' for Active; 'I' for Inactive)
REMARK    1  A    between atoms: C_1  and  C_2
REMARK    2  A    between atoms: C_4  and  C_9
REMARK    3  A    between atoms: C_5  and  S_7
REMARK    4  A    between atoms: S_7  and  C_8
REMARK    5  A    between atoms: C_11  and  C_32
REMARK    6  A    between atoms: C_12  and  N_31
REMARK    7  A    between atoms: N_13  and  C_21
REMARK    8  A    between atoms: C_23  and  N_28
REMARK                            x       y       z     vdW  Elec       q    Type
REMARK                         _______ _______ _______ _____ _____    ______ ____
ROOT
ATOM      1  C   UNL     1       1.107   3.724   0.016  0.00  0.00    +0.099 C 
ATOM      2  C   UNL     1      -0.237   4.249  -0.395  0.00  0.00    +0.077 C 
ATOM      3  C   UNL     1      -1.338   3.454  -0.374  0.00  0.00    +0.107 C 
ATOM      4  N   UNL     1      -1.233   2.139   0.020  0.00  0.00    -0.259 N 
ATOM      5  C   UNL     1      -0.018   1.505   0.010  0.00  0.00    +0.025 C 
ATOM      6  C   UNL     1       1.129   2.216   0.003  0.00  0.00    +0.025 C 
ATOM      7  C   UNL     1       2.380   1.574  -0.012  0.00  0.00    +0.162 C 
ATOM      8  O   UNL     1       3.393   2.243  -0.039  0.00  0.00    -0.292 OA
ATOM      9  C   UNL     1       2.486   0.073   0.004  0.00  0.00    +0.080 C 
ATOM     10  C   UNL     1       1.259  -0.505   0.717  0.00  0.00    +0.014 C 
ATOM     11  C   UNL     1       0.002  -0.004   0.002  0.00  0.00    +0.052 C 
ENDROOT
BRANCH   4  12
ATOM     12  C   UNL     1      -2.376   1.445   0.434  0.00  0.00    +0.060 A 
ATOM     13  C   UNL     1      -2.750   1.455   1.771  0.00  0.00    +0.058 A 
ATOM     14  C   UNL     1      -3.878   0.770   2.176  0.00  0.00    +0.128 A 
ATOM     15  C   UNL     1      -4.636   0.074   1.252  0.00  0.00    +0.034 A 
ATOM     16  C   UNL     1      -4.267   0.061  -0.080  0.00  0.00    +0.024 A 
ATOM     17  C   UNL     1      -3.142   0.749  -0.493  0.00  0.00    +0.063 A 
ATOM     18 CL   UNL     1      -2.683   0.738  -2.168  0.00  0.00    -0.082 Cl
BRANCH  14  19
ATOM     19  N   UNL     1      -4.278   0.781   3.602  0.00  0.00    +0.056 N 
ATOM     20  O   UNL     1      -3.611   1.394   4.416  0.00  0.00    -0.126 OA
ATOM     21  O   UNL     1      -5.273   0.177   3.960  0.00  0.00    -0.126 OA
ENDBRANCH  14  19
ENDBRANCH   4  12
BRANCH   1  25
ATOM     22  C   UNL     1       0.224   4.071   5.020  0.00  0.00    +0.051 C 
ATOM     23  C   UNL     1       0.934   4.313   3.713  0.00  0.00    -0.012 A 
ATOM     24  C   UNL     1       0.617   3.863   2.476  0.00  0.00    +0.016 A 
ATOM     25  C   UNL     1       1.423   4.211   1.406  0.00  0.00    -0.014 A 
ATOM     26  C   UNL     1       2.506   5.007   1.633  0.00  0.00    +0.049 A 
ATOM     27  S   UNL     1       2.404   5.274   3.395  0.00  0.00    -0.087 S 
BRANCH  26  28
ATOM     28  S   UNL     1       3.697   5.614   0.485  0.00  0.00    -0.121 S 
ATOM     29  C   UNL     1       4.829   6.597   1.507  0.00  0.00    +0.090 C 
ENDBRANCH  26  28
ENDBRANCH   1  25
BRANCH   3  30
ATOM     30  N   UNL     1      -2.559   3.962  -0.748  0.00  0.00    -0.345 N 
ATOM     31  H   UNL     1      -3.451   3.318  -0.732  0.00  0.00    +0.144 HD
ATOM     32  H   UNL     1      -2.644   5.012  -1.063  0.00  0.00    +0.144 HD
ENDBRANCH   3  30
BRANCH   2  33
ATOM     33  C   UNL     1      -0.362   5.612  -0.816  0.00  0.00    +0.099 C 
ATOM     34  N   UNL     1      -0.460   6.693  -1.151  0.00  0.00    -0.191 NA
ENDBRANCH   2  33
TORSDOF 6
