REMARK  Name = ZINC02058397
REMARK  3 active torsions:
REMARK  status: ('A' for Active; 'I' for Inactive)
REMARK    1  A    between atoms: C_4  and  C_7
REMARK    2  A    between atoms: C_10  and  N_11
REMARK    3  A    between atoms: N_11  and  C_12
REMARK                            x       y       z     vdW  Elec       q    Type
REMARK                         _______ _______ _______ _____ _____    ______ ____
ROOT
ATOM      1  C   UNL     1       1.173   3.564   0.011  0.00  0.00    +0.024 C 
ATOM      2  C   UNL     1       2.233   4.398   0.010  0.00  0.00    +0.029 C 
ATOM      3  C   UNL     1       1.999   5.826   0.016  0.00  0.00    +0.044 C 
ATOM      4  C   UNL     1       3.027   6.748   0.012  0.00  0.00    +0.084 C 
ATOM      5  C   UNL     1       0.582   6.221   0.033  0.00  0.00    +0.225 C 
ATOM      6  O   UNL     1       0.098   7.340   0.044  0.00  0.00    -0.279 OA
ATOM      7  S   UNL     1      -0.245   4.641   0.031  0.00  0.00    -0.046 S 
ENDROOT
BRANCH   1  11
ATOM      8  C   UNL     1       1.208  -0.683  -0.013  0.00  0.00    +0.000 A 
ATOM      9  C   UNL     1       0.002  -0.004   0.002  0.00  0.00    +0.001 A 
ATOM     10  C   UNL     1      -0.017   1.375   0.010  0.00  0.00    +0.009 A 
ATOM     11  C   UNL     1       1.185   2.087   0.002  0.00  0.00    -0.011 A 
ATOM     12  C   UNL     1       2.398   1.395  -0.012  0.00  0.00    +0.009 A 
ATOM     13  C   UNL     1       2.402   0.016  -0.020  0.00  0.00    +0.001 A 
ENDBRANCH   1  11
BRANCH   4  14
ATOM     14  N   UNL     1       4.319   6.325  -0.004  0.00  0.00    -0.319 N 
ATOM     15  H   UNL     1       4.519   5.376  -0.012  0.00  0.00    +0.152 HD
BRANCH  14  16
ATOM     16  C   UNL     1       5.360   7.258  -0.009  0.00  0.00    +0.049 A 
ATOM     17  C   UNL     1       5.076   8.618  -0.004  0.00  0.00    +0.025 A 
ATOM     18  C   UNL     1       6.106   9.537  -0.005  0.00  0.00    +0.002 A 
ATOM     19  C   UNL     1       7.420   9.106  -0.020  0.00  0.00    +0.002 A 
ATOM     20  C   UNL     1       7.707   7.753  -0.030  0.00  0.00    +0.022 A 
ATOM     21  C   UNL     1       6.681   6.828  -0.025  0.00  0.00    +0.062 A 
ATOM     22 CL   UNL     1       7.042   5.130  -0.039  0.00  0.00    -0.082 Cl
ENDBRANCH  14  16
ENDBRANCH   4  14
TORSDOF 3
