REMARK  Name = ZINC01849196
REMARK  7 active torsions:
REMARK  status: ('A' for Active; 'I' for Inactive)
REMARK    1  A    between atoms: C_1  and  C_2
REMARK    2  A    between atoms: C_5  and  C_9
REMARK    3  A    between atoms: C_6  and  C_8
REMARK    4  A    between atoms: N_11  and  C_12
REMARK    5  A    between atoms: C_12  and  N_14
REMARK    6  A    between atoms: N_14  and  C_15
REMARK    7  A    between atoms: C_22  and  C_24
REMARK                            x       y       z     vdW  Elec       q    Type
REMARK                         _______ _______ _______ _____ _____    ______ ____
ROOT
ATOM      1  C   UNL     1      -1.242   3.100  -0.202  0.00  0.00    +0.035 A 
ATOM      2  C   UNL     1      -1.111   1.907  -0.908  0.00  0.00    +0.027 A 
ATOM      3  C   UNL     1       0.083   1.217  -0.897  0.00  0.00    +0.050 A 
ATOM      4  C   UNL     1       1.165   1.715  -0.187  0.00  0.00    +0.156 A 
ATOM      5  C   UNL     1       1.042   2.920   0.523  0.00  0.00    +0.112 A 
ATOM      6  C   UNL     1      -0.172   3.610   0.511  0.00  0.00    +0.054 A 
ATOM      7  N   UNL     1       2.245   3.152   1.110  0.00  0.00    -0.209 NA
ATOM      8  C   UNL     1       3.061   2.176   0.797  0.00  0.00    +0.234 A 
ATOM      9  O   UNL     1       2.432   1.284   0.008  0.00  0.00    -0.435 OA
ENDROOT
BRANCH   8  10
ATOM     10  C   UNL     1       4.463   2.069   1.245  0.00  0.00    +0.113 A 
ATOM     11  C   UNL     1       5.016   3.060   2.063  0.00  0.00    +0.176 A 
ATOM     12  C   UNL     1       6.329   2.951   2.484  0.00  0.00    +0.197 A 
ATOM     13  C   UNL     1       7.100   1.868   2.088  0.00  0.00    +0.199 A 
ATOM     14  C   UNL     1       6.559   0.885   1.272  0.00  0.00    +0.197 A 
ATOM     15  C   UNL     1       5.245   0.980   0.849  0.00  0.00    +0.176 A 
ATOM     16  F   UNL     1       4.719   0.022   0.055  0.00  0.00    -0.201 F 
ATOM     17  F   UNL     1       7.316  -0.167   0.891  0.00  0.00    -0.199 F 
ATOM     18  F   UNL     1       8.383   1.770   2.498  0.00  0.00    -0.199 F 
ATOM     19  F   UNL     1       6.863   3.904   3.279  0.00  0.00    -0.199 F 
ATOM     20  F   UNL     1       4.269   4.118   2.444  0.00  0.00    -0.201 F 
ENDBRANCH   8  10
BRANCH   1  21
ATOM     21  N   UNL     1      -2.462   3.789  -0.217  0.00  0.00    -0.297 N 
ATOM     22  H   UNL     1      -2.473   4.885  -0.310  0.00  0.00    +0.154 HD
BRANCH  21  23
ATOM     23  C   UNL     1      -3.621   3.109  -0.117  0.00  0.00    +0.141 C 
ATOM     24  S   UNL     1      -3.602   1.421   0.170  0.00  0.00    -0.018 S 
BRANCH  23  27
ATOM     25  C   UNL     1      -5.955   3.077  -0.145  0.00  0.00    +0.250 C 
ATOM     26  O   UNL     1      -5.941   1.879   0.059  0.00  0.00    -0.270 OA
ATOM     27  N   UNL     1      -4.796   3.757  -0.244  0.00  0.00    -0.264 N 
ATOM     28  H   UNL     1      -4.808   4.842  -0.428  0.00  0.00    +0.157 HD
BRANCH  25  33
ATOM     29  C   UNL     1     -10.970   5.846  -0.687  0.00  0.00    +0.044 C 
ATOM     30  C   UNL     1      -9.657   5.121  -0.544  0.00  0.00    -0.050 A 
ATOM     31  C   UNL     1      -8.474   5.838  -0.511  0.00  0.00    +0.004 A 
ATOM     32  C   UNL     1      -7.268   5.181  -0.381  0.00  0.00    +0.013 A 
ATOM     33  C   UNL     1      -7.243   3.788  -0.283  0.00  0.00    +0.040 A 
ATOM     34  C   UNL     1      -8.440   3.070  -0.323  0.00  0.00    -0.038 A 
ATOM     35  C   UNL     1      -9.639   3.741  -0.448  0.00  0.00    +0.007 A 
ATOM     36  C   UNL     1      -8.422   1.567  -0.225  0.00  0.00    +0.044 C 
ENDBRANCH  25  33
ENDBRANCH  23  27
ENDBRANCH  21  23
ENDBRANCH   1  21
TORSDOF 5
