REMARK  Name = ZINC14740943
REMARK  6 active torsions:
REMARK  status: ('A' for Active; 'I' for Inactive)
REMARK    1  A    between atoms: C_1  and  N_2
REMARK    2  A    between atoms: C_5  and  C_7
REMARK    3  A    between atoms: C_20  and  N_64
REMARK    4  A    between atoms: C_24  and  C_25
REMARK    5  A    between atoms: C_24  and  N_64
REMARK    6  A    between atoms: C_25  and  O_31
REMARK                            x       y       z     vdW  Elec       q    Type
REMARK                         _______ _______ _______ _____ _____    ______ ____
ROOT
ATOM      1  C   UNL     1      -1.184  -0.866  -0.122  0.00  0.00    +0.172 C 
ATOM      2  N   UNL     1       0.003  -0.009  -0.085  0.00  0.00    -0.270 N 
ATOM      3  C   UNL     1      -0.018   1.333  -0.042  0.00  0.00    +0.043 A 
ATOM      4  C   UNL     1       1.271   1.754  -0.014  0.00  0.00    +0.004 A 
ATOM      5  C   UNL     1       2.058   0.590  -0.046  0.00  0.00    +0.151 A 
ATOM      6  N   UNL     1       1.220  -0.432  -0.088  0.00  0.00    -0.166 NA
ATOM      7  C   UNL     1       1.699   3.195   0.043  0.00  0.00    +0.023 C 
ATOM      8  C   UNL     1       0.490   4.039   0.468  0.00  0.00    -0.067 C 
ATOM      9  C   UNL     1      -0.720   3.671  -0.394  0.00  0.00    -0.009 C 
ATOM     10  C   UNL     1      -1.205   2.262  -0.030  0.00  0.00    +0.054 C 
ENDROOT
BRANCH   5  11
ATOM     11  C   UNL     1       3.533   0.522  -0.035  0.00  0.00    +0.267 C 
ATOM     12  O   UNL     1       4.189   1.543  -0.104  0.00  0.00    -0.268 OA
ATOM     13  N   UNL     1       4.152  -0.672   0.051  0.00  0.00    -0.292 N 
ATOM     14  C   UNL     1       5.618  -0.770   0.145  0.00  0.00    +0.113 C 
ATOM     15  C   UNL     1       5.961  -1.380   1.503  0.00  0.00    +0.054 C 
ATOM     16  C   UNL     1       5.119  -2.599   1.773  0.00  0.00    -0.041 A 
ATOM     17  C   UNL     1       5.576  -3.500   2.727  0.00  0.00    +0.004 A 
ATOM     18  C   UNL     1       4.848  -4.631   3.029  0.00  0.00    +0.000 A 
ATOM     19  C   UNL     1       3.651  -4.873   2.380  0.00  0.00    +0.000 A 
ATOM     20  C   UNL     1       3.197  -3.982   1.430  0.00  0.00    +0.005 A 
ATOM     21  C   UNL     1       3.932  -2.846   1.120  0.00  0.00    -0.027 A 
ATOM     22  C   UNL     1       3.391  -1.927   0.060  0.00  0.00    +0.143 C 
ENDBRANCH   5  11
BRANCH   8  23
ATOM     23  N   UNL     1       0.809   5.468   0.284  0.00  0.00    +0.383 N 
ATOM     24  H   UNL     1       0.617   5.735  -0.689  0.00  0.00    -0.085 HD
ATOM     25  H   UNL     1       1.803   5.622   0.491  0.00  0.00    -0.085 HD
BRANCH  23  26
ATOM     26  C   UNL     1      -0.012   6.296   1.187  0.00  0.00    -0.047 C 
BRANCH  26  27
ATOM     27  C   UNL     1       0.340   7.770   0.974  0.00  0.00    +0.051 C 
ATOM     28  C   UNL     1       1.847   7.966   1.158  0.00  0.00    +0.033 C 
ATOM     29  C   UNL     1       2.199   9.440   0.945  0.00  0.00    +0.003 C 
ATOM     30  C   UNL     1       1.444  10.297   1.963  0.00  0.00    +0.000 C 
ATOM     31  C   UNL     1      -0.062  10.101   1.778  0.00  0.00    +0.003 C 
ATOM     32  C   UNL     1      -0.414   8.627   1.992  0.00  0.00    +0.033 C 
BRANCH  27  33
ATOM     33  O   UNL     1      -0.033   8.162  -0.349  0.00  0.00    -0.390 OA
ATOM     34  H   UNL     1       0.408   7.659  -1.047  0.00  0.00    +0.210 HD
ENDBRANCH  27  33
ENDBRANCH  26  27
ENDBRANCH  23  26
ENDBRANCH   8  23
TORSDOF 5
