REMARK  Name = ZINC64557888
REMARK  10 active torsions:
REMARK  status: ('A' for Active; 'I' for Inactive)
REMARK    1  A    between atoms: C_1  and  C_2
REMARK    2  A    between atoms: C_2  and  O_3
REMARK    3  A    between atoms: O_3  and  C_4
REMARK    4  A    between atoms: C_4  and  C_6
REMARK    5  A    between atoms: C_9  and  N_12
REMARK    6  A    between atoms: C_13  and  C_29
REMARK    7  A    between atoms: C_15  and  S_20
REMARK    8  A    between atoms: S_20  and  C_23
REMARK    9  A    between atoms: C_32  and  S_35
REMARK   10  A    between atoms: S_35  and  C_36
REMARK                            x       y       z     vdW  Elec       q    Type
REMARK                         _______ _______ _______ _____ _____    ______ ____
ROOT
ATOM      1  N   UNL     1       3.479  -3.957   5.780  0.00  0.00    -0.252 N 
ATOM      2  C   UNL     1       3.686  -5.382   6.068  0.00  0.00    +0.164 C 
ATOM      3  C   UNL     1       4.450  -5.434   7.370  0.00  0.00    +0.148 C 
ATOM      4  C   UNL     1       4.644  -4.174   7.760  0.00  0.00    +0.264 C 
ATOM      5  C   UNL     1       4.051  -3.256   6.777  0.00  0.00    +0.293 C 
ATOM      6  O   UNL     1       4.071  -2.043   6.855  0.00  0.00    -0.266 OA
ATOM      7  O   UNL     1       5.297  -3.795   8.891  0.00  0.00    -0.281 OA
ENDROOT
BRANCH   1  11
ATOM      8  C   UNL     1       1.501  -2.373   2.475  0.00  0.00    +0.059 A 
ATOM      9  C   UNL     1       2.049  -1.521   3.438  0.00  0.00    +0.017 A 
ATOM     10  C   UNL     1       2.702  -2.048   4.529  0.00  0.00    +0.024 A 
ATOM     11  C   UNL     1       2.817  -3.427   4.675  0.00  0.00    +0.038 A 
ATOM     12  C   UNL     1       2.273  -4.279   3.717  0.00  0.00    +0.024 A 
ATOM     13  C   UNL     1       1.614  -3.759   2.627  0.00  0.00    +0.017 A 
BRANCH   8  14
ATOM     14  C   UNL     1       0.801  -1.813   1.304  0.00  0.00    +0.339 C 
ATOM     15  O   UNL     1       0.321  -2.555   0.470  0.00  0.00    -0.245 OA
BRANCH  14  16
ATOM     16  O   UNL     1       0.693  -0.477   1.160  0.00  0.00    -0.461 OA
BRANCH  16  18
ATOM     17  C   UNL     1      -0.019   1.526   0.010  0.00  0.00    +0.048 C 
ATOM     18  C   UNL     1       0.002  -0.004   0.002  0.00  0.00    +0.229 C 
ENDBRANCH  16  18
ENDBRANCH  14  16
ENDBRANCH   8  14
ENDBRANCH   1  11
BRANCH   2  19
ATOM     19  C   UNL     1       2.359  -6.080   6.214  0.00  0.00    -0.021 A 
ATOM     20  C   UNL     1       1.308  -5.441   6.846  0.00  0.00    +0.007 A 
ATOM     21  C   UNL     1       0.091  -6.078   6.982  0.00  0.00    +0.015 A 
ATOM     22  C   UNL     1      -0.077  -7.364   6.483  0.00  0.00    +0.008 A 
ATOM     23  C   UNL     1       0.981  -8.004   5.848  0.00  0.00    +0.015 A 
ATOM     24  C   UNL     1       2.193  -7.358   5.711  0.00  0.00    +0.007 A 
BRANCH  22  25
ATOM     25  S   UNL     1      -1.629  -8.182   6.655  0.00  0.00    -0.129 S 
ATOM     26  C   UNL     1      -1.364  -9.795   5.868  0.00  0.00    +0.090 C 
ENDBRANCH  22  25
ENDBRANCH   2  19
BRANCH   3  27
ATOM     27  S   UNL     1       4.984  -6.886   8.215  0.00  0.00    +0.027 S 
ATOM     28  O   UNL     1       5.629  -7.704   7.248  0.00  0.00    -0.164 OA
ATOM     29  O   UNL     1       5.635  -6.450   9.400  0.00  0.00    -0.164 OA
BRANCH  27  30
ATOM     30  C   UNL     1       3.537  -7.753   8.725  0.00  0.00    +0.093 A 
ATOM     31  C   UNL     1       2.970  -7.487   9.957  0.00  0.00    +0.027 A 
ATOM     32  C   UNL     1       1.835  -8.167  10.357  0.00  0.00    +0.002 A 
ATOM     33  C   UNL     1       1.267  -9.114   9.524  0.00  0.00    +0.000 A 
ATOM     34  C   UNL     1       1.834  -9.380   8.292  0.00  0.00    +0.002 A 
ATOM     35  C   UNL     1       2.967  -8.696   7.890  0.00  0.00    +0.027 A 
ENDBRANCH  27  30
ENDBRANCH   3  27
TORSDOF 8
