REMARK  Name = ZINC02203885
REMARK  6 active torsions:
REMARK  status: ('A' for Active; 'I' for Inactive)
REMARK    1  A    between atoms: C_4  and  O_18
REMARK    2  A    between atoms: C_5  and  O_7
REMARK    3  A    between atoms: O_7  and  C_8
REMARK    4  A    between atoms: C_10  and  N_16
REMARK    5  A    between atoms: O_18  and  C_19
REMARK    6  A    between atoms: C_21  and  N_27
REMARK                            x       y       z     vdW  Elec       q    Type
REMARK                         _______ _______ _______ _____ _____    ______ ____
ROOT
ATOM      1  C   UNL     1       4.051  -0.866  -3.638  0.00  0.00    +0.004 A 
ATOM      2  C   UNL     1       5.269  -1.518  -3.704  0.00  0.00    +0.004 A 
ATOM      3  C   UNL     1       5.930  -1.873  -2.543  0.00  0.00    +0.050 A 
ATOM      4  C   UNL     1       5.372  -1.575  -1.309  0.00  0.00    +0.171 A 
ATOM      5  C   UNL     1       4.147  -0.917  -1.244  0.00  0.00    +0.171 A 
ATOM      6  C   UNL     1       3.487  -0.570  -2.412  0.00  0.00    +0.050 A 
ENDROOT
BRANCH   5   7
ATOM      7  O   UNL     1       3.596  -0.622  -0.036  0.00  0.00    -0.446 OA
BRANCH   7   8
ATOM      8  C   UNL     1       2.399   0.020  -0.021  0.00  0.00    +0.206 A 
ATOM      9  C   UNL     1       1.206  -0.697  -0.014  0.00  0.00    +0.208 A 
ATOM     10  C   UNL     1       0.002  -0.004   0.002  0.00  0.00    +0.159 A 
ATOM     11  N   UNL     1      -0.016   1.321   0.009  0.00  0.00    -0.199 NA
ATOM     12  C   UNL     1       1.099   2.032   0.003  0.00  0.00    +0.254 A 
ATOM     13  C   UNL     1       2.335   1.413  -0.013  0.00  0.00    +0.222 A 
ATOM     14  F   UNL     1       3.468   2.148  -0.020  0.00  0.00    -0.197 F 
ATOM     15  F   UNL     1       1.029   3.381   0.010  0.00  0.00    -0.181 F 
ATOM     16  F   UNL     1       1.219  -2.048  -0.022  0.00  0.00    -0.198 F 
BRANCH  10  17
ATOM     17  N   UNL     1      -1.199  -0.710   0.010  0.00  0.00    -0.341 N 
ATOM     18  H   UNL     1      -2.043  -0.231   0.020  0.00  0.00    +0.144 HD
ATOM     19  H   UNL     1      -1.192  -1.680   0.004  0.00  0.00    +0.144 HD
ENDBRANCH  10  17
ENDBRANCH   7   8
ENDBRANCH   5   7
BRANCH   4  20
ATOM     20  O   UNL     1       6.021  -1.922  -0.166  0.00  0.00    -0.446 OA
BRANCH  20  21
ATOM     21  C   UNL     1       7.214  -2.562  -0.279  0.00  0.00    +0.206 A 
ATOM     22  C   UNL     1       7.276  -3.951  -0.333  0.00  0.00    +0.208 A 
ATOM     23  C   UNL     1       8.514  -4.568  -0.454  0.00  0.00    +0.159 A 
ATOM     24  N   UNL     1       9.626  -3.849  -0.507  0.00  0.00    -0.199 NA
ATOM     25  C   UNL     1       9.603  -2.527  -0.454  0.00  0.00    +0.254 A 
ATOM     26  C   UNL     1       8.407  -1.843  -0.339  0.00  0.00    +0.222 A 
ATOM     27  F   UNL     1       8.395  -0.493  -0.285  0.00  0.00    -0.197 F 
ATOM     28  F   UNL     1      10.764  -1.838  -0.513  0.00  0.00    -0.181 F 
ATOM     29  F   UNL     1       6.146  -4.689  -0.273  0.00  0.00    -0.198 F 
BRANCH  23  30
ATOM     30  N   UNL     1       8.589  -5.958  -0.513  0.00  0.00    -0.341 N 
ATOM     31  H   UNL     1       9.452  -6.394  -0.593  0.00  0.00    +0.144 HD
ATOM     32  H   UNL     1       7.779  -6.489  -0.474  0.00  0.00    +0.144 HD
ENDBRANCH  23  30
ENDBRANCH  20  21
ENDBRANCH   4  20
TORSDOF 6
