REMARK  Name = ZINC39675449
REMARK  11 active torsions:
REMARK  status: ('A' for Active; 'I' for Inactive)
REMARK    1  A    between atoms: C_1  and  C_2
REMARK    2  A    between atoms: C_5  and  C_9
REMARK    3  A    between atoms: C_6  and  C_8
REMARK    4  A    between atoms: C_13  and  C_22
REMARK    5  A    between atoms: N_24  and  C_25
REMARK    6  A    between atoms: C_25  and  C_27
REMARK    7  A    between atoms: C_25  and  C_28
REMARK    8  A    between atoms: C_28  and  C_29
REMARK    9  A    between atoms: C_29  and  C_30
REMARK   10  A    between atoms: C_33  and  O_36
REMARK   11  A    between atoms: O_36  and  C_37
REMARK                            x       y       z     vdW  Elec       q    Type
REMARK                         _______ _______ _______ _____ _____    ______ ____
ROOT
ATOM      1  C   UNL     1       0.133  -4.109  -0.019  0.00  0.00    +0.247 C 
ATOM      2  O   UNL     1       0.238  -4.686   1.045  0.00  0.00    -0.270 OA
ATOM      3  N   UNL     1       0.083  -4.814  -1.166  0.00  0.00    -0.296 N 
ATOM      4  C   UNL     1       0.065  -4.293  -2.554  0.00  0.00    +0.121 C 
ATOM      5  C   UNL     1       0.964  -5.267  -3.348  0.00  0.00    +0.100 C 
ATOM      6  C   UNL     1       0.939  -6.574  -2.538  0.00  0.00    -0.004 C 
ATOM      7  C   UNL     1       0.042  -6.288  -1.325  0.00  0.00    +0.115 C 
ATOM      8  C   UNL     1       2.346  -6.934  -2.072  0.00  0.00    -0.010 C 
ATOM      9  C   UNL     1       2.304  -8.266  -1.319  0.00  0.00    -0.082 C 
ATOM     10  N   UNL     1       1.776  -9.313  -2.201  0.00  0.00    +0.379 N 
ATOM     11  C   UNL     1       0.390  -9.006  -2.570  0.00  0.00    -0.082 C 
ATOM     12  C   UNL     1       0.350  -7.705  -3.377  0.00  0.00    -0.010 C 
ATOM     13  H   UNL     1       2.342  -9.365  -3.036  0.00  0.00    -0.086 HD
ATOM     14  H   UNL     1       1.807 -10.201  -1.723  0.00  0.00    -0.086 HD
ENDROOT
BRANCH   1  19
ATOM     15  C   UNL     1      -0.154   1.637  -0.162  0.00  0.00    +0.044 C 
ATOM     16  C   UNL     1      -0.079   0.133  -0.124  0.00  0.00    -0.050 A 
ATOM     17  C   UNL     1      -0.977  -0.620  -0.861  0.00  0.00    +0.004 A 
ATOM     18  C   UNL     1      -0.913  -1.998  -0.831  0.00  0.00    +0.013 A 
ATOM     19  C   UNL     1       0.059  -2.632  -0.056  0.00  0.00    +0.040 A 
ATOM     20  C   UNL     1       0.962  -1.867   0.684  0.00  0.00    -0.038 A 
ATOM     21  C   UNL     1       0.890  -0.490   0.642  0.00  0.00    +0.007 A 
ATOM     22  C   UNL     1       2.015  -2.543   1.524  0.00  0.00    +0.044 C 
ENDBRANCH   1  19
BRANCH   5  23
ATOM     23  C   UNL     1       2.369  -4.729  -3.438  0.00  0.00    +0.218 C 
ATOM     24  O   UNL     1       2.788  -3.982  -2.579  0.00  0.00    -0.275 OA
ATOM     25  N   UNL     1       3.159  -5.079  -4.472  0.00  0.00    -0.312 N 
ATOM     26  H   UNL     1       2.824  -5.676  -5.158  0.00  0.00    +0.149 HD
BRANCH  25  27
ATOM     27  C   UNL     1       4.525  -4.556  -4.559  0.00  0.00    +0.070 C 
ATOM     28  C   UNL     1       4.503  -3.181  -5.231  0.00  0.00    +0.028 C 
BRANCH  27  29
ATOM     29  C   UNL     1       5.386  -5.514  -5.385  0.00  0.00    +0.026 C 
BRANCH  29  30
ATOM     30  C   UNL     1       5.510  -6.850  -4.651  0.00  0.00    +0.037 C 
BRANCH  30  31
ATOM     31  C   UNL     1       6.358  -7.793  -5.465  0.00  0.00    -0.047 A 
ATOM     32  C   UNL     1       5.766  -8.620  -6.401  0.00  0.00    +0.007 A 
ATOM     33  C   UNL     1       6.541  -9.486  -7.148  0.00  0.00    +0.046 A 
ATOM     34  C   UNL     1       7.915  -9.525  -6.958  0.00  0.00    +0.120 A 
ATOM     35  C   UNL     1       8.507  -8.694  -6.018  0.00  0.00    +0.046 A 
ATOM     36  C   UNL     1       7.728  -7.827  -5.277  0.00  0.00    +0.007 A 
BRANCH  34  37
ATOM     37  O   UNL     1       8.679 -10.377  -7.691  0.00  0.00    -0.495 OA
ATOM     38  C   UNL     1      10.086 -10.363  -7.442  0.00  0.00    +0.277 C 
ENDBRANCH  34  37
ENDBRANCH  30  31
ENDBRANCH  29  30
ENDBRANCH  27  29
ENDBRANCH  25  27
ENDBRANCH   5  23
TORSDOF 7
