REMARK  Name = ZINC10812230
REMARK  7 active torsions:
REMARK  status: ('A' for Active; 'I' for Inactive)
REMARK    1  A    between atoms: C_1  and  C_2
REMARK    2  A    between atoms: N_13  and  C_27
REMARK    3  A    between atoms: C_14  and  S_16
REMARK    4  A    between atoms: S_16  and  C_17
REMARK    5  A    between atoms: C_17  and  C_19
REMARK    6  A    between atoms: C_17  and  C_20
REMARK    7  A    between atoms: N_25  and  C_26
REMARK                            x       y       z     vdW  Elec       q    Type
REMARK                         _______ _______ _______ _____ _____    ______ ____
ROOT
ATOM      1  C   UNL     1       1.397   3.572   0.258  0.00  0.00    +0.008 C 
ATOM      2  C   UNL     1       1.415   2.064  -0.000  0.00  0.00    -0.009 C 
ATOM      3  C   UNL     1      -0.019   1.524   0.010  0.00  0.00    +0.008 C 
ATOM      4  C   UNL     1       0.002  -0.004   0.002  0.00  0.00    +0.037 C 
ATOM      5  C   UNL     1       0.873  -0.481  -1.157  0.00  0.00    -0.023 A 
ATOM      6  C   UNL     1       1.763   0.356  -1.737  0.00  0.00    -0.004 A 
ATOM      7  S   UNL     1       2.539  -0.602  -3.015  0.00  0.00    -0.073 S 
ATOM      8  C   UNL     1       1.672  -2.119  -2.769  0.00  0.00    +0.117 A 
ATOM      9  C   UNL     1       0.800  -1.830  -1.694  0.00  0.00    +0.076 A 
ATOM     10  C   UNL     1      -0.059  -2.885  -1.246  0.00  0.00    +0.268 A 
ATOM     11  O   UNL     1      -0.845  -2.733  -0.327  0.00  0.00    -0.267 OA
ATOM     12  N   UNL     1       0.055  -4.062  -1.906  0.00  0.00    -0.253 N 
ATOM     13  C   UNL     1       0.927  -4.253  -2.937  0.00  0.00    +0.178 A 
ATOM     14  N   UNL     1       1.736  -3.298  -3.376  0.00  0.00    -0.215 NA
ATOM     15  C   UNL     1       2.035   1.784  -1.376  0.00  0.00    +0.046 C 
ENDROOT
BRANCH  12  16
ATOM     16  C   UNL     1      -0.761  -5.132  -1.513  0.00  0.00    +0.087 A 
ATOM     17  C   UNL     1      -0.321  -6.022  -0.543  0.00  0.00    +0.029 A 
ATOM     18  C   UNL     1      -1.129  -7.073  -0.154  0.00  0.00    +0.002 A 
ATOM     19  C   UNL     1      -2.371  -7.245  -0.736  0.00  0.00    +0.003 A 
ATOM     20  C   UNL     1      -2.812  -6.364  -1.706  0.00  0.00    +0.040 A 
ATOM     21  C   UNL     1      -2.010  -5.307  -2.097  0.00  0.00    +0.147 A 
ATOM     22  F   UNL     1      -2.440  -4.447  -3.046  0.00  0.00    -0.203 F 
ENDBRANCH  12  16
BRANCH  13  23
ATOM     23  S   UNL     1       0.982  -5.832  -3.716  0.00  0.00    -0.075 S 
BRANCH  23  24
ATOM     24  C   UNL     1       2.260  -5.525  -4.960  0.00  0.00    +0.137 C 
ATOM     25  C   UNL     1       1.760  -4.478  -5.958  0.00  0.00    +0.029 C 
BRANCH  24  26
ATOM     26  C   UNL     1       2.570  -6.807  -5.689  0.00  0.00    +0.233 C 
ATOM     27  O   UNL     1       1.737  -7.685  -5.751  0.00  0.00    -0.274 OA
ATOM     28  N   UNL     1       3.773  -6.976  -6.272  0.00  0.00    -0.239 N 
ATOM     29  C   UNL     1       4.050  -8.123  -6.925  0.00  0.00    +0.306 C 
ATOM     30  O   UNL     1       3.215  -9.004  -6.987  0.00  0.00    -0.252 OA
ATOM     31  N   UNL     1       5.253  -8.292  -7.508  0.00  0.00    -0.302 N 
ATOM     32  C   UNL     1       5.555  -9.538  -8.217  0.00  0.00    +0.129 C 
ATOM     33  H   UNL     1       4.439  -6.273  -6.223  0.00  0.00    +0.159 HD
ATOM     34  H   UNL     1       5.920  -7.589  -7.459  0.00  0.00    +0.150 HD
ENDBRANCH  24  26
ENDBRANCH  23  24
ENDBRANCH  13  23
TORSDOF 4
