REMARK  Name = ZINC28525746
REMARK  7 active torsions:
REMARK  status: ('A' for Active; 'I' for Inactive)
REMARK    1  A    between atoms: C_4  and  N_17
REMARK    2  A    between atoms: C_5  and  N_7
REMARK    3  A    between atoms: C_8  and  C_10
REMARK    4  A    between atoms: C_18  and  O_20
REMARK    5  A    between atoms: O_20  and  C_21
REMARK    6  A    between atoms: C_21  and  C_22
REMARK    7  A    between atoms: N_25  and  C_28
REMARK                            x       y       z     vdW  Elec       q    Type
REMARK                         _______ _______ _______ _____ _____    ______ ____
ROOT
ATOM      1  N   UNL     1       2.499  -0.443   0.274  0.00  0.00    -0.249 N 
ATOM      2  C   UNL     1       3.637  -1.135   0.479  0.00  0.00    +0.405 C 
ATOM      3  O   UNL     1       4.705  -0.556   0.503  0.00  0.00    -0.226 OA
ATOM      4  H   UNL     1       1.542  -0.975   0.174  0.00  0.00    +0.158 HD
ENDROOT
BRANCH   1   8
ATOM      5  C   UNL     1       2.610   3.720   0.013  0.00  0.00    +0.002 A 
ATOM      6  C   UNL     1       3.659   2.967  -0.480  0.00  0.00    +0.002 A 
ATOM      7  C   UNL     1       3.625   1.587  -0.395  0.00  0.00    +0.025 A 
ATOM      8  C   UNL     1       2.536   0.955   0.187  0.00  0.00    +0.058 A 
ATOM      9  C   UNL     1       1.478   1.715   0.685  0.00  0.00    +0.055 A 
ATOM     10  C   UNL     1       1.519   3.099   0.591  0.00  0.00    +0.025 A 
BRANCH   9  11
ATOM     11  N   UNL     1       0.376   1.083   1.273  0.00  0.00    -0.280 N 
ATOM     12  C   UNL     1      -0.822   1.700   1.295  0.00  0.00    +0.248 C 
ATOM     13  O   UNL     1      -0.971   2.760   0.717  0.00  0.00    -0.270 OA
ATOM     14  H   UNL     1       0.488   0.084   1.718  0.00  0.00    +0.155 HD
BRANCH  12  15
ATOM     15  C   UNL     1      -1.955   1.089   2.020  0.00  0.00    +0.037 A 
ATOM     16  C   UNL     1      -1.789  -0.131   2.679  0.00  0.00    +0.014 A 
ATOM     17  C   UNL     1      -2.849  -0.694   3.358  0.00  0.00    +0.021 A 
ATOM     18  C   UNL     1      -4.079  -0.057   3.379  0.00  0.00    +0.041 A 
ATOM     19  C   UNL     1      -4.251   1.150   2.722  0.00  0.00    +0.021 A 
ATOM     20  C   UNL     1      -3.197   1.726   2.044  0.00  0.00    +0.014 A 
ATOM     21 CL   UNL     1      -5.410  -0.775   4.231  0.00  0.00    -0.084 Cl
ENDBRANCH  12  15
ENDBRANCH   9  11
ENDBRANCH   1   8
BRANCH   2  22
ATOM     22  O   UNL     1       3.590  -2.469   0.657  0.00  0.00    -0.450 OA
BRANCH  22  23
ATOM     23  C   UNL     1       4.854  -3.150   0.873  0.00  0.00    +0.237 C 
BRANCH  23  24
ATOM     24  C   UNL     1       4.602  -4.648   1.053  0.00  0.00    +0.030 C 
ATOM     25  C   UNL     1       3.801  -4.881   2.337  0.00  0.00    +0.026 C 
ATOM     26  C   UNL     1       3.604  -6.385   2.544  0.00  0.00    +0.105 C 
ATOM     27  N   UNL     1       4.914  -7.043   2.637  0.00  0.00    -0.330 N 
ATOM     28  C   UNL     1       5.683  -6.873   1.398  0.00  0.00    +0.105 C 
ATOM     29  C   UNL     1       5.941  -5.384   1.157  0.00  0.00    +0.026 C 
BRANCH  27  30
ATOM     30  C   UNL     1       4.774  -8.390   2.956  0.00  0.00    +0.032 A 
ATOM     31  C   UNL     1       5.322  -9.380   2.140  0.00  0.00    +0.040 A 
ATOM     32  C   UNL     1       5.165 -10.703   2.495  0.00  0.00    +0.084 A 
ATOM     33  N   UNL     1       4.498 -11.038   3.583  0.00  0.00    -0.367 N 
ATOM     34  C   UNL     1       3.960 -10.132   4.378  0.00  0.00    +0.084 A 
ATOM     35  C   UNL     1       4.076  -8.787   4.097  0.00  0.00    +0.040 A 
ATOM     36  H   UNL     1       4.378 -12.098   3.850  0.00  0.00    +0.165 HD
ENDBRANCH  27  30
ENDBRANCH  23  24
ENDBRANCH  22  23
ENDBRANCH   2  22
TORSDOF 7
