REMARK  Name = ZINC44171456
REMARK  10 active torsions:
REMARK  status: ('A' for Active; 'I' for Inactive)
REMARK    1  A    between atoms: C_1  and  C_2
REMARK    2  A    between atoms: C_2  and  C_3
REMARK    3  A    between atoms: C_8  and  C_9
REMARK    4  A    between atoms: C_15  and  C_18
REMARK    5  A    between atoms: N_20  and  C_21
REMARK    6  A    between atoms: C_21  and  C_22
REMARK    7  A    between atoms: C_30  and  C_36
REMARK    8  A    between atoms: C_30  and  C_37
REMARK    9  A    between atoms: C_33  and  C_34
REMARK   10  A    between atoms: C_33  and  C_35
REMARK                            x       y       z     vdW  Elec       q    Type
REMARK                         _______ _______ _______ _____ _____    ______ ____
ROOT
ATOM      1  C   UNL     1       2.885  -0.215   0.204  0.00  0.00    -0.027 C 
ATOM      2  C   UNL     1       3.208   1.271   0.399  0.00  0.00    +0.092 C 
ATOM      3  S   UNL     1       4.189   1.447   1.922  0.00  0.00    +0.020 S 
ATOM      4  O   UNL     1       3.388   1.102   3.044  0.00  0.00    -0.257 OA
ATOM      5  C   UNL     1       5.494   0.197   1.702  0.00  0.00    +0.097 C 
ATOM      6  C   UNL     1       4.829  -1.128   1.312  0.00  0.00    +0.029 C 
ATOM      7  N   UNL     1       4.126  -0.974   0.036  0.00  0.00    +0.392 N 
ATOM      8  H   UNL     1       3.907  -1.887  -0.333  0.00  0.00    -0.084 HD
ATOM      9  H   UNL     1       4.724  -0.490  -0.616  0.00  0.00    -0.084 HD
ENDROOT
BRANCH   1  15
ATOM     10  C   UNL     1       0.654  -0.227  -0.934  0.00  0.00    -0.046 A 
ATOM     11  C   UNL     1      -0.126  -0.381  -2.062  0.00  0.00    +0.008 A 
ATOM     12  C   UNL     1       0.454  -0.695  -3.284  0.00  0.00    -0.038 A 
ATOM     13  C   UNL     1       1.819  -0.851  -3.371  0.00  0.00    -0.038 A 
ATOM     14  C   UNL     1       2.603  -0.700  -2.234  0.00  0.00    +0.006 A 
ATOM     15  C   UNL     1       2.025  -0.384  -1.022  0.00  0.00    -0.057 A 
ATOM     16  C   UNL     1       2.517  -1.176  -4.666  0.00  0.00    -0.010 C 
ATOM     17  C   UNL     1       1.524  -1.724  -5.688  0.00  0.00    +0.012 C 
ATOM     18  C   UNL     1       0.335  -0.760  -5.774  0.00  0.00    +0.012 C 
ATOM     19  C   UNL     1      -0.458  -0.856  -4.472  0.00  0.00    -0.010 C 
ATOM     20  C   UNL     1      -1.146  -2.221  -4.399  0.00  0.00    +0.016 C 
ATOM     21  C   UNL     1      -1.520   0.245  -4.446  0.00  0.00    +0.016 C 
ATOM     22  C   UNL     1       3.165   0.093  -5.222  0.00  0.00    +0.016 C 
ATOM     23  C   UNL     1       3.602  -2.223  -4.405  0.00  0.00    +0.016 C 
BRANCH  10  25
ATOM     24  C   UNL     1      -1.507   0.100   0.236  0.00  0.00    +0.009 C 
ATOM     25  C   UNL     1       0.015   0.116   0.387  0.00  0.00    +0.032 C 
ENDBRANCH  10  25
ENDBRANCH   1  15
BRANCH   6  26
ATOM     26  C   UNL     1       3.845  -1.528   2.381  0.00  0.00    +0.200 C 
ATOM     27  O   UNL     1       4.015  -1.169   3.527  0.00  0.00    -0.278 OA
ATOM     28  N   UNL     1       2.776  -2.285   2.063  0.00  0.00    -0.312 N 
ATOM     29  H   UNL     1       2.640  -2.572   1.147  0.00  0.00    +0.149 HD
BRANCH  28  30
ATOM     30  C   UNL     1       1.819  -2.674   3.102  0.00  0.00    +0.142 C 
BRANCH  30  31
ATOM     31  C   UNL     1       0.725  -3.510   2.490  0.00  0.00    +0.008 A 
ATOM     32  C   UNL     1      -0.492  -2.935   2.178  0.00  0.00    +0.046 A 
ATOM     33  C   UNL     1      -1.497  -3.704   1.615  0.00  0.00    +0.124 A 
ATOM     34  C   UNL     1      -1.282  -5.049   1.365  0.00  0.00    +0.041 A 
ATOM     35  C   UNL     1      -0.065  -5.624   1.678  0.00  0.00    +0.041 A 
ATOM     36  C   UNL     1       0.942  -4.854   2.236  0.00  0.00    +0.128 A 
ATOM     37  F   UNL     1       2.133  -5.415   2.536  0.00  0.00    -0.205 F 
ATOM     38  F   UNL     1      -2.687  -3.142   1.311  0.00  0.00    -0.205 F 
ENDBRANCH  30  31
ENDBRANCH  28  30
ENDBRANCH   6  26
TORSDOF 5
