REMARK  Name = ZINC54201083
REMARK  8 active torsions:
REMARK  status: ('A' for Active; 'I' for Inactive)
REMARK    1  A    between atoms: C_4  and  C_7
REMARK    2  A    between atoms: C_7  and  C_9
REMARK    3  A    between atoms: C_7  and  N_22
REMARK    4  A    between atoms: C_9  and  C_10
REMARK    5  A    between atoms: N_12  and  C_13
REMARK    6  A    between atoms: C_18  and  N_19
REMARK    7  A    between atoms: N_22  and  S_23
REMARK    8  A    between atoms: S_23  and  C_26
REMARK                            x       y       z     vdW  Elec       q    Type
REMARK                         _______ _______ _______ _____ _____    ______ ____
ROOT
ATOM      1  C   UNL     1       3.690  -0.737  -0.047  0.00  0.00    +0.115 C 
ENDROOT
BRANCH   1   5
ATOM      2  C   UNL     1      -0.065   1.300  -0.004  0.00  0.00    +0.000 A 
ATOM      3  C   UNL     1       1.113   2.022  -0.017  0.00  0.00    +0.000 A 
ATOM      4  C   UNL     1       2.328   1.363  -0.030  0.00  0.00    +0.005 A 
ATOM      5  C   UNL     1       2.365  -0.018  -0.031  0.00  0.00    -0.028 A 
ATOM      6  C   UNL     1       1.187  -0.741  -0.017  0.00  0.00    +0.005 A 
ATOM      7  C   UNL     1      -0.028  -0.082  -0.004  0.00  0.00    +0.000 A 
ENDBRANCH   1   5
BRANCH   1   8
ATOM      8  N   UNL     1       3.626  -1.900   0.842  0.00  0.00    -0.182 NA
ATOM      9  H   UNL     1       3.271  -2.741   0.514  0.00  0.00    +0.149 HD
BRANCH   8  10
ATOM     10  S   UNL     1       4.159  -1.778   2.405  0.00  0.00    +0.059 S 
ATOM     11  O   UNL     1       3.943  -3.046   3.008  0.00  0.00    -0.153 OA
ATOM     12  O   UNL     1       5.441  -1.169   2.350  0.00  0.00    -0.153 OA
BRANCH  10  13
ATOM     13  C   UNL     1       3.096  -0.640   3.230  0.00  0.00    +0.105 A 
ATOM     14  C   UNL     1       3.397   0.709   3.233  0.00  0.00    +0.029 A 
ATOM     15  C   UNL     1       2.564   1.602   3.880  0.00  0.00    +0.017 A 
ATOM     16  C   UNL     1       1.429   1.145   4.525  0.00  0.00    +0.018 A 
ATOM     17  C   UNL     1       1.128  -0.205   4.522  0.00  0.00    +0.017 A 
ATOM     18  C   UNL     1       1.959  -1.097   3.870  0.00  0.00    +0.029 A 
ATOM     19 BR   UNL     1       0.288   2.366   5.411  0.00  0.00    -0.050 Br
ENDBRANCH  10  13
ENDBRANCH   8  10
ENDBRANCH   1   8
BRANCH   1  20
ATOM     20  C   UNL     1       4.001  -1.200  -1.472  0.00  0.00    +0.121 C 
BRANCH  20  21
ATOM     21  C   UNL     1       5.379  -1.809  -1.512  0.00  0.00    +0.219 C 
ATOM     22  O   UNL     1       6.046  -1.867  -0.500  0.00  0.00    -0.275 OA
ATOM     23  N   UNL     1       5.870  -2.289  -2.671  0.00  0.00    -0.284 N 
ATOM     24  H   UNL     1       5.313  -2.303  -3.465  0.00  0.00    +0.155 HD
BRANCH  23  25
ATOM     25  C   UNL     1       7.183  -2.769  -2.730  0.00  0.00    +0.064 A 
ATOM     26  C   UNL     1       7.731  -3.432  -1.639  0.00  0.00    +0.025 A 
ATOM     27  C   UNL     1       9.027  -3.905  -1.700  0.00  0.00    +0.002 A 
ATOM     28  C   UNL     1       9.780  -3.717  -2.845  0.00  0.00    +0.002 A 
ATOM     29  C   UNL     1       9.238  -3.057  -3.932  0.00  0.00    +0.034 A 
ATOM     30  C   UNL     1       7.940  -2.588  -3.880  0.00  0.00    +0.147 A 
BRANCH  30  31
ATOM     31  N   UNL     1       7.358  -1.887  -5.047  0.00  0.00    +0.058 N 
ATOM     32  O   UNL     1       7.980  -1.815  -6.080  0.00  0.00    -0.126 OA
ATOM     33  O   UNL     1       6.260  -1.387  -4.966  0.00  0.00    -0.126 OA
ENDBRANCH  30  31
ENDBRANCH  23  25
ENDBRANCH  20  21
ENDBRANCH   1  20
TORSDOF 8
