REMARK  Name = ZINC39944453
REMARK  7 active torsions:
REMARK  status: ('A' for Active; 'I' for Inactive)
REMARK    1  A    between atoms: C_4  and  O_7
REMARK    2  A    between atoms: O_7  and  C_8
REMARK    3  A    between atoms: C_12  and  N_14
REMARK    4  A    between atoms: C_15  and  C_17
REMARK    5  A    between atoms: C_17  and  S_18
REMARK    6  A    between atoms: S_18  and  C_19
REMARK    7  A    between atoms: C_23  and  C_25
REMARK                            x       y       z     vdW  Elec       q    Type
REMARK                         _______ _______ _______ _____ _____    ______ ____
ROOT
ATOM      1  C   UNL     1       7.679  -6.583  -0.265  0.00  0.00    +0.170 C 
ENDROOT
BRANCH   1   3
ATOM      2  N   UNL     1       6.237  -4.585  -0.046  0.00  0.00    -0.285 N 
ATOM      3  C   UNL     1       6.328  -5.926  -0.153  0.00  0.00    +0.227 C 
ATOM      4  O   UNL     1       5.322  -6.603  -0.159  0.00  0.00    -0.275 OA
ATOM      5  H   UNL     1       7.042  -4.048   0.023  0.00  0.00    +0.155 HD
BRANCH   2  10
ATOM      6  C   UNL     1       3.567  -2.118  -0.617  0.00  0.00    +0.130 A 
ATOM      7  C   UNL     1       2.493  -2.751  -0.006  0.00  0.00    +0.046 A 
ATOM      8  C   UNL     1       2.664  -3.986   0.588  0.00  0.00    +0.005 A 
ATOM      9  C   UNL     1       3.903  -4.596   0.576  0.00  0.00    +0.023 A 
ATOM     10  C   UNL     1       4.981  -3.968  -0.034  0.00  0.00    +0.037 A 
ATOM     11  C   UNL     1       4.811  -2.729  -0.636  0.00  0.00    +0.069 A 
BRANCH   6  12
ATOM     12  O   UNL     1       3.397  -0.902  -1.201  0.00  0.00    -0.456 OA
BRANCH  12  16
ATOM     13  C   UNL     1       3.100   2.401   1.252  0.00  0.00    +0.000 A 
ATOM     14  C   UNL     1       3.171   1.135   1.804  0.00  0.00    +0.004 A 
ATOM     15  C   UNL     1       3.271   0.027   0.985  0.00  0.00    +0.046 A 
ATOM     16  C   UNL     1       3.299   0.185  -0.393  0.00  0.00    +0.128 A 
ATOM     17  C   UNL     1       3.226   1.457  -0.945  0.00  0.00    +0.046 A 
ATOM     18  C   UNL     1       3.127   2.561  -0.121  0.00  0.00    +0.004 A 
ENDBRANCH  12  16
ENDBRANCH   6  12
ENDBRANCH   2  10
ENDBRANCH   1   3
BRANCH   1  19
ATOM     19  S   UNL     1       7.469  -8.380  -0.393  0.00  0.00    -0.087 S 
BRANCH  19  20
ATOM     20  C   UNL     1       9.165  -9.012  -0.519  0.00  0.00    +0.339 C 
ATOM     21  N   UNL     1       9.848  -8.424  -1.684  0.00  0.00    -0.219 N 
ATOM     22  N   UNL     1      10.942  -7.718  -1.162  0.00  0.00    -0.145 NA
ATOM     23  C   UNL     1      10.968  -7.829   0.140  0.00  0.00    +0.238 C 
ATOM     24  O   UNL     1       9.943  -8.586   0.609  0.00  0.00    -0.443 OA
ATOM     25  H   UNL     1       9.594  -8.508  -2.616  0.00  0.00    +0.173 HD
BRANCH  23  26
ATOM     26  C   UNL     1      11.941  -7.236   0.957  0.00  0.00    +0.043 C 
ATOM     27  C   UNL     1      13.016  -6.444   0.550  0.00  0.00    +0.008 A 
ATOM     28  C   UNL     1      13.452  -6.008  -0.719  0.00  0.00    +0.010 A 
ATOM     29  C   UNL     1      14.558  -5.226  -0.819  0.00  0.00    +0.001 A 
ATOM     30  C   UNL     1      15.283  -4.838   0.309  0.00  0.00    +0.002 A 
ATOM     31  C   UNL     1      14.921  -5.220   1.559  0.00  0.00    +0.026 A 
ATOM     32  C   UNL     1      13.776  -6.037   1.743  0.00  0.00    +0.043 A 
ATOM     33  N   UNL     1      13.226  -6.535   2.833  0.00  0.00    -0.380 N 
ATOM     34  C   UNL     1      12.041  -7.315   2.464  0.00  0.00    +0.154 C 
ATOM     35  H   UNL     1      13.551  -6.402   3.737  0.00  0.00    +0.160 HD
ENDBRANCH  23  26
ENDBRANCH  19  20
ENDBRANCH   1  19
TORSDOF 7
