REMARK  Name = ZINC02188618
REMARK  10 active torsions:
REMARK  status: ('A' for Active; 'I' for Inactive)
REMARK    1  A    between atoms: C_1  and  C_2
REMARK    2  A    between atoms: C_2  and  C_34
REMARK    3  A    between atoms: C_6  and  C_23
REMARK    4  A    between atoms: C_8  and  C_19
REMARK    5  A    between atoms: C_9  and  N_18
REMARK    6  A    between atoms: N_10  and  C_11
REMARK    7  A    between atoms: C_19  and  O_21
REMARK    8  A    between atoms: O_21  and  C_22
REMARK    9  A    between atoms: C_26  and  O_29
REMARK   10  A    between atoms: O_29  and  C_30
REMARK                            x       y       z     vdW  Elec       q    Type
REMARK                         _______ _______ _______ _____ _____    ______ ____
ROOT
ATOM      1  C   UNL     1       5.495   5.125  -0.954  0.00  0.00    +0.011 C 
ATOM      2  C   UNL     1       5.187   4.303  -2.208  0.00  0.00    -0.023 C 
ATOM      3  C   UNL     1       4.849   2.865  -1.810  0.00  0.00    +0.058 C 
ATOM      4  C   UNL     1       3.623   2.857  -0.930  0.00  0.00    +0.025 C 
ATOM      5  C   UNL     1       2.662   3.795  -1.068  0.00  0.00    +0.025 C 
ATOM      6  C   UNL     1       1.437   3.785  -0.193  0.00  0.00    +0.094 C 
ATOM      7  C   UNL     1       1.253   2.452   0.471  0.00  0.00    +0.084 C 
ATOM      8  C   UNL     1       2.278   1.559   0.549  0.00  0.00    +0.103 C 
ATOM      9  N   UNL     1       3.505   1.870   0.014  0.00  0.00    -0.261 N 
ATOM     10  C   UNL     1       2.775   4.811  -2.034  0.00  0.00    +0.162 C 
ATOM     11  O   UNL     1       1.883   5.629  -2.146  0.00  0.00    -0.292 OA
ATOM     12  C   UNL     1       3.978   4.904  -2.932  0.00  0.00    +0.086 C 
ATOM     13  C   UNL     1       6.403   4.307  -3.137  0.00  0.00    +0.011 C 
ENDROOT
BRANCH   9  14
ATOM     14  C   UNL     1       4.644   1.173   0.435  0.00  0.00    +0.040 A 
ATOM     15  C   UNL     1       5.376   1.629   1.523  0.00  0.00    +0.025 A 
ATOM     16  C   UNL     1       6.495   0.936   1.940  0.00  0.00    +0.017 A 
ATOM     17  C   UNL     1       6.894  -0.206   1.268  0.00  0.00    +0.018 A 
ATOM     18  C   UNL     1       6.170  -0.660   0.180  0.00  0.00    +0.017 A 
ATOM     19  C   UNL     1       5.046   0.026  -0.238  0.00  0.00    +0.025 A 
ATOM     20 BR   UNL     1       8.432  -1.148   1.837  0.00  0.00    -0.050 Br
ENDBRANCH   9  14
BRANCH   6  21
ATOM     21  C   UNL     1       1.583   4.848   0.866  0.00  0.00    -0.035 A 
ATOM     22  C   UNL     1       2.617   4.773   1.780  0.00  0.00    +0.008 A 
ATOM     23  C   UNL     1       2.756   5.749   2.748  0.00  0.00    +0.046 A 
ATOM     24  C   UNL     1       1.850   6.799   2.809  0.00  0.00    +0.120 A 
ATOM     25  C   UNL     1       0.810   6.868   1.893  0.00  0.00    +0.046 A 
ATOM     26  C   UNL     1       0.679   5.893   0.924  0.00  0.00    +0.008 A 
BRANCH  24  27
ATOM     27  O   UNL     1       1.982   7.757   3.764  0.00  0.00    -0.495 OA
ATOM     28  C   UNL     1       3.076   7.621   4.673  0.00  0.00    +0.277 C 
ENDBRANCH  24  27
ENDBRANCH   6  21
BRANCH   8  29
ATOM     29  N   UNL     1       2.086   0.348   1.163  0.00  0.00    -0.346 N 
ATOM     30  H   UNL     1       1.256  -0.136   1.031  0.00  0.00    +0.143 HD
ATOM     31  H   UNL     1       2.780  -0.025   1.729  0.00  0.00    +0.143 HD
ENDBRANCH   8  29
BRANCH   7  32
ATOM     32  C   UNL     1       0.005   2.118   1.014  0.00  0.00    +0.339 C 
ATOM     33  O   UNL     1      -0.132   1.077   1.633  0.00  0.00    -0.245 OA
BRANCH  32  34
ATOM     34  O   UNL     1      -1.048   2.947   0.848  0.00  0.00    -0.465 OA
ATOM     35  C   UNL     1      -2.292   2.541   1.423  0.00  0.00    +0.280 C 
ENDBRANCH  32  34
ENDBRANCH   7  32
TORSDOF 6
