REMARK  Name = ZINC34899773
REMARK  8 active torsions:
REMARK  status: ('A' for Active; 'I' for Inactive)
REMARK    1  A    between atoms: C_1  and  C_2
REMARK    2  A    between atoms: C_7  and  C_8
REMARK    3  A    between atoms: N_10  and  C_11
REMARK    4  A    between atoms: C_17  and  N_19
REMARK    5  A    between atoms: C_20  and  C_22
REMARK    6  A    between atoms: C_28  and  C_30
REMARK    7  A    between atoms: C_35  and  O_36
REMARK    8  A    between atoms: O_36  and  C_37
REMARK                            x       y       z     vdW  Elec       q    Type
REMARK                         _______ _______ _______ _____ _____    ______ ____
ROOT
ATOM      1  N   UNL     1      -1.336  -2.299   5.459  0.00  0.00    -0.310 N 
ATOM      2  C   UNL     1      -2.043  -2.619   6.561  0.00  0.00    +0.216 C 
ATOM      3  O   UNL     1      -1.483  -2.731   7.631  0.00  0.00    -0.276 OA
ATOM      4  H   UNL     1      -1.784  -2.210   4.604  0.00  0.00    +0.149 HD
ENDROOT
BRANCH   2   5
ATOM      5  C   UNL     1      -3.531  -2.839   6.464  0.00  0.00    +0.078 C 
ATOM      6  C   UNL     1      -4.202  -1.564   5.949  0.00  0.00    +0.032 C 
ATOM      7  C   UNL     1      -5.710  -1.802   5.819  0.00  0.00    +0.109 C 
ATOM      8  N   UNL     1      -6.227  -2.278   7.109  0.00  0.00    -0.297 N 
ATOM      9  C   UNL     1      -5.593  -3.445   7.737  0.00  0.00    +0.109 C 
ATOM     10  C   UNL     1      -4.086  -3.188   7.846  0.00  0.00    +0.032 C 
ATOM     11  C   UNL     1      -7.263  -1.655   7.705  0.00  0.00    +0.250 C 
ATOM     12  O   UNL     1      -7.825  -0.735   7.143  0.00  0.00    -0.270 OA
BRANCH  11  13
ATOM     13  C   UNL     1      -7.716  -2.091   9.040  0.00  0.00    +0.078 A 
ATOM     14  C   UNL     1      -8.034  -3.431   9.272  0.00  0.00    +0.017 A 
ATOM     15  C   UNL     1      -8.455  -3.831  10.521  0.00  0.00    +0.001 A 
ATOM     16  C   UNL     1      -8.566  -2.910  11.550  0.00  0.00    +0.004 A 
ATOM     17  C   UNL     1      -8.255  -1.582  11.335  0.00  0.00    +0.046 A 
ATOM     18  C   UNL     1      -7.824  -1.163  10.085  0.00  0.00    +0.132 A 
BRANCH  18  19
ATOM     19  O   UNL     1      -7.513   0.141   9.873  0.00  0.00    -0.494 OA
ATOM     20  C   UNL     1      -7.648   1.029  10.985  0.00  0.00    +0.277 C 
ENDBRANCH  18  19
ENDBRANCH  11  13
ENDBRANCH   2   5
BRANCH   1  26
ATOM     21  C   UNL     1       0.566  -1.171   4.415  0.00  0.00    +0.093 C 
ATOM     22  C   UNL     1       2.077  -0.947   4.514  0.00  0.00    +0.024 C 
ATOM     23  C   UNL     1       2.799  -2.292   4.409  0.00  0.00    +0.002 C 
ATOM     24  C   UNL     1       2.343  -3.207   5.547  0.00  0.00    +0.002 C 
ATOM     25  C   UNL     1       0.833  -3.430   5.448  0.00  0.00    +0.024 C 
ATOM     26  C   UNL     1       0.110  -2.085   5.554  0.00  0.00    +0.093 C 
BRANCH  21  29
ATOM     27  C   UNL     1       0.076  -1.032   2.033  0.00  0.00    +0.245 C 
ATOM     28  O   UNL     1       0.186   0.177   2.111  0.00  0.00    -0.270 OA
ATOM     29  N   UNL     1       0.248  -1.796   3.129  0.00  0.00    -0.307 N 
ATOM     30  H   UNL     1       0.161  -2.760   3.067  0.00  0.00    +0.149 HD
BRANCH  27  37
ATOM     31  C   UNL     1      -0.224   0.619  -0.325  0.00  0.00    +0.044 C 
ATOM     32  C   UNL     1      -0.392  -0.877  -0.409  0.00  0.00    -0.038 A 
ATOM     33  C   UNL     1      -0.686  -1.473  -1.619  0.00  0.00    +0.004 A 
ATOM     34  C   UNL     1      -0.840  -2.845  -1.698  0.00  0.00    +0.000 A 
ATOM     35  C   UNL     1      -0.701  -3.629  -0.566  0.00  0.00    +0.001 A 
ATOM     36  C   UNL     1      -0.407  -3.046   0.649  0.00  0.00    +0.013 A 
ATOM     37  C   UNL     1      -0.244  -1.663   0.735  0.00  0.00    +0.040 A 
ENDBRANCH  27  37
ENDBRANCH  21  29
ENDBRANCH   1  26
TORSDOF 6
