REMARK  Name = ZINC20139441
REMARK  8 active torsions:
REMARK  status: ('A' for Active; 'I' for Inactive)
REMARK    1  A    between atoms: C_1  and  C_2
REMARK    2  A    between atoms: C_3  and  C_9
REMARK    3  A    between atoms: C_4  and  O_8
REMARK    4  A    between atoms: C_9  and  C_10
REMARK    5  A    between atoms: C_9  and  C_22
REMARK    6  A    between atoms: C_13  and  C_15
REMARK    7  A    between atoms: C_23  and  C_29
REMARK    8  A    between atoms: C_27  and  O_28
REMARK                            x       y       z     vdW  Elec       q    Type
REMARK                         _______ _______ _______ _____ _____    ______ ____
ROOT
ATOM      1  C   UNL     1       0.032  -0.291  -2.623  0.00  0.00    +0.129 C 
ENDROOT
BRANCH   1   4
ATOM      2  C   UNL     1       2.437  -0.968  -0.674  0.00  0.00    +0.068 C 
ATOM      3  C   UNL     1       0.986  -1.301  -0.437  0.00  0.00    +0.068 A 
ATOM      4  C   UNL     1      -0.074  -1.002  -1.298  0.00  0.00    +0.051 A 
ATOM      5  C   UNL     1      -1.217  -1.466  -0.728  0.00  0.00    +0.213 A 
ATOM      6  N   UNL     1      -0.883  -2.037   0.451  0.00  0.00    -0.247 N 
ATOM      7  H   UNL     1      -1.496  -2.454   1.077  0.00  0.00    +0.192 HD
ATOM      8  N   UNL     1       0.504  -1.925   0.607  0.00  0.00    -0.176 NA
BRANCH   5   9
ATOM      9  O   UNL     1      -2.468  -1.373  -1.248  0.00  0.00    -0.492 OA
ATOM     10  H   UNL     1      -2.749  -2.157  -1.738  0.00  0.00    +0.294 HD
ENDBRANCH   5   9
ENDBRANCH   1   4
BRANCH   1  11
ATOM     11  C   UNL     1       1.307  -0.701  -3.313  0.00  0.00    +0.051 A 
ATOM     12  C   UNL     1       2.267   0.134  -3.775  0.00  0.00    +0.041 A 
ATOM     13  N   UNL     1       3.241  -0.621  -4.323  0.00  0.00    -0.278 N 
ATOM     14  N   UNL     1       2.872  -1.966  -4.196  0.00  0.00    -0.136 NA
ATOM     15  H   UNL     1       4.055  -0.290  -4.734  0.00  0.00    +0.189 HD
ATOM     16  C   UNL     1       1.713  -2.016  -3.584  0.00  0.00    +0.236 A 
ATOM     17  C   UNL     1       2.249   1.639  -3.692  0.00  0.00    +0.065 C 
BRANCH  16  18
ATOM     18  O   UNL     1       1.024  -3.145  -3.271  0.00  0.00    -0.491 OA
ATOM     19  H   UNL     1       0.413  -3.438  -3.961  0.00  0.00    +0.294 HD
ENDBRANCH  16  18
ENDBRANCH   1  11
BRANCH   1  20
ATOM     20  C   UNL     1      -1.147  -0.659  -3.486  0.00  0.00    +0.118 A 
ATOM     21  C   UNL     1      -2.054   0.203  -3.986  0.00  0.00    +0.046 A 
ATOM     22  C   UNL     1      -2.979  -0.557  -4.730  0.00  0.00    +0.050 A 
ATOM     23  C   UNL     1      -2.580  -1.854  -4.643  0.00  0.00    +0.135 A 
ATOM     24  O   UNL     1      -1.465  -1.900  -3.890  0.00  0.00    -0.459 OA
BRANCH  23  25
ATOM     25  C   UNL     1      -3.251  -3.012  -5.271  0.00  0.00    +0.017 A 
ATOM     26  C   UNL     1      -4.400  -2.823  -6.040  0.00  0.00    +0.012 A 
ATOM     27  C   UNL     1      -5.022  -3.908  -6.624  0.00  0.00    +0.016 A 
ATOM     28  C   UNL     1      -4.509  -5.181  -6.446  0.00  0.00    +0.018 A 
ATOM     29  C   UNL     1      -3.370  -5.375  -5.684  0.00  0.00    +0.016 A 
ATOM     30  C   UNL     1      -2.735  -4.298  -5.101  0.00  0.00    +0.012 A 
ATOM     31 BR   UNL     1      -5.368  -6.662  -7.248  0.00  0.00    -0.050 Br
ENDBRANCH  23  25
ENDBRANCH   1  20
TORSDOF 6
