REMARK  Name = ZINC54620615
REMARK  5 active torsions:
REMARK  status: ('A' for Active; 'I' for Inactive)
REMARK    1  A    between atoms: C_1  and  C_2
REMARK    2  A    between atoms: C_2  and  C_4
REMARK    3  A    between atoms: C_2  and  N_12
REMARK    4  A    between atoms: C_4  and  C_5
REMARK    5  A    between atoms: C_19  and  C_22
REMARK                            x       y       z     vdW  Elec       q    Type
REMARK                         _______ _______ _______ _____ _____    ______ ____
ROOT
ATOM      1  N   UNL     1      -1.259  -0.327   2.431  0.00  0.00    -0.296 N 
ATOM      2  C   UNL     1       0.051  -0.633   2.355  0.00  0.00    +0.302 C 
ATOM      3  O   UNL     1       0.624  -0.595   1.284  0.00  0.00    -0.253 OA
ATOM      4  N   UNL     1       0.727  -0.983   3.468  0.00  0.00    -0.285 N 
ATOM      5  C   UNL     1       2.179  -1.203   3.424  0.00  0.00    +0.109 C 
ATOM      6  C   UNL     1       2.485  -2.587   4.005  0.00  0.00    +0.020 C 
ATOM      7  C   UNL     1       1.875  -2.696   5.404  0.00  0.00    +0.014 C 
ATOM      8  C   UNL     1       0.356  -2.535   5.314  0.00  0.00    +0.072 C 
ATOM      9  C   UNL     1       0.026  -1.145   4.749  0.00  0.00    +0.120 C 
ATOM     10  H   UNL     1      -1.733  -0.427   3.271  0.00  0.00    +0.151 HD
ENDROOT
BRANCH   8  11
ATOM     11  C   UNL     1      -0.247  -2.675   6.688  0.00  0.00    +0.113 A 
ATOM     12  N   UNL     1      -0.370  -1.666   7.592  0.00  0.00    -0.342 N 
ATOM     13  H   UNL     1      -0.089  -0.746   7.467  0.00  0.00    +0.167 HD
ATOM     14  C   UNL     1      -0.968  -2.194   8.719  0.00  0.00    +0.066 A 
ATOM     15  C   UNL     1      -1.345  -1.671   9.948  0.00  0.00    +0.028 A 
ATOM     16  C   UNL     1      -1.938  -2.490  10.885  0.00  0.00    +0.002 A 
ATOM     17  C   UNL     1      -2.157  -3.832  10.609  0.00  0.00    +0.002 A 
ATOM     18  C   UNL     1      -1.792  -4.364   9.405  0.00  0.00    +0.030 A 
ATOM     19  C   UNL     1      -1.190  -3.553   8.439  0.00  0.00    +0.089 A 
ATOM     20  N   UNL     1      -0.732  -3.778   7.180  0.00  0.00    -0.232 NA
ENDBRANCH   8  11
BRANCH   1  22
ATOM     21  C   UNL     1      -2.445  -1.034   0.412  0.00  0.00    +0.028 C 
ATOM     22  C   UNL     1      -1.967   0.158   1.244  0.00  0.00    +0.076 C 
BRANCH  22  23
ATOM     23  C   UNL     1      -3.174   0.995   1.675  0.00  0.00    +0.060 C 
BRANCH  23  24
ATOM     24  C   UNL     1      -2.696   2.233   2.389  0.00  0.00    -0.010 A 
ATOM     25  C   UNL     1      -2.605   2.245   3.768  0.00  0.00    +0.006 A 
ATOM     26  C   UNL     1      -2.167   3.381   4.422  0.00  0.00    +0.000 A 
ATOM     27  C   UNL     1      -1.821   4.507   3.698  0.00  0.00    +0.003 A 
ATOM     28  C   UNL     1      -1.911   4.498   2.319  0.00  0.00    +0.038 A 
ATOM     29  C   UNL     1      -2.344   3.358   1.662  0.00  0.00    +0.127 A 
ATOM     30  F   UNL     1      -2.429   3.346   0.314  0.00  0.00    -0.205 F 
ENDBRANCH  23  24
ENDBRANCH  22  23
ENDBRANCH   1  22
TORSDOF 4
