REMARK  Name = ZINC48599713
REMARK  7 active torsions:
REMARK  status: ('A' for Active; 'I' for Inactive)
REMARK    1  A    between atoms: C_1  and  N_2
REMARK    2  A    between atoms: N_2  and  C_3
REMARK    3  A    between atoms: C_3  and  C_4
REMARK    4  A    between atoms: C_8  and  C_10
REMARK    5  A    between atoms: C_10  and  S_11
REMARK    6  A    between atoms: S_11  and  C_12
REMARK    7  A    between atoms: C_16  and  N_18
REMARK                            x       y       z     vdW  Elec       q    Type
REMARK                         _______ _______ _______ _____ _____    ______ ____
ROOT
ATOM      1  C   UNL     1      -0.047  -0.052  -5.284  0.00  0.00    +0.192 A 
ATOM      2  N   UNL     1      -0.058   1.264  -5.131  0.00  0.00    -0.207 NA
ATOM      3  C   UNL     1      -0.079   2.073  -6.188  0.00  0.00    +0.122 A 
ATOM      4  C   UNL     1      -0.088   1.519  -7.465  0.00  0.00    +0.086 A 
ATOM      5  C   UNL     1      -0.076   0.133  -7.586  0.00  0.00    +0.122 A 
ATOM      6  N   UNL     1      -0.051  -0.614  -6.484  0.00  0.00    -0.207 NA
ATOM      7  N   UNL     1      -0.091   3.449  -6.019  0.00  0.00    -0.343 N 
ATOM      8  H   UNL     1      -0.084   3.828  -5.126  0.00  0.00    +0.144 HD
ATOM      9  H   UNL     1      -0.105   4.032  -6.793  0.00  0.00    +0.144 HD
ENDROOT
BRANCH   5  10
ATOM     10  N   UNL     1      -0.086  -0.463  -8.838  0.00  0.00    -0.343 N 
ATOM     11  H   UNL     1      -0.101   0.087  -9.636  0.00  0.00    +0.144 HD
ATOM     12  H   UNL     1      -0.077  -1.430  -8.915  0.00  0.00    +0.144 HD
ENDBRANCH   5  10
BRANCH   1  13
ATOM     13  S   UNL     1      -0.020  -1.082  -3.855  0.00  0.00    -0.077 S 
BRANCH  13  14
ATOM     14  C   UNL     1      -0.023   0.089  -2.470  0.00  0.00    +0.173 C 
BRANCH  14  17
ATOM     15  C   UNL     1      -0.018   1.461   0.010  0.00  0.00    +0.132 C 
ATOM     16  N   UNL     1       0.002  -0.004   0.002  0.00  0.00    -0.295 N 
ATOM     17  C   UNL     1       0.000  -0.672  -1.169  0.00  0.00    +0.226 C 
ATOM     18  O   UNL     1       0.017  -1.884  -1.175  0.00  0.00    -0.275 OA
BRANCH  16  19
ATOM     19  C   UNL     1       0.024  -0.743   1.267  0.00  0.00    +0.220 C 
BRANCH  19  20
ATOM     20  C   UNL     1      -1.411  -1.020   1.720  0.00  0.00    +0.405 C 
ATOM     21  F   UNL     1      -2.069  -1.780   0.748  0.00  0.00    -0.169 F 
ATOM     22  F   UNL     1      -1.389  -1.726   2.928  0.00  0.00    -0.169 F 
ATOM     23  F   UNL     1      -2.085   0.192   1.901  0.00  0.00    -0.169 F 
ENDBRANCH  19  20
ENDBRANCH  16  19
ENDBRANCH  14  17
ENDBRANCH  13  14
ENDBRANCH   1  13
TORSDOF 6
