REMARK  Name = ZINC16321175
REMARK  8 active torsions:
REMARK  status: ('A' for Active; 'I' for Inactive)
REMARK    1  A    between atoms: C_1  and  C_2
REMARK    2  A    between atoms: N_4  and  C_5
REMARK    3  A    between atoms: C_8  and  C_11
REMARK    4  A    between atoms: N_13  and  N_14
REMARK    5  A    between atoms: C_15  and  C_16
REMARK    6  A    between atoms: C_21  and  O_22
REMARK    7  A    between atoms: O_22  and  C_23
REMARK    8  A    between atoms: C_23  and  C_25
REMARK                            x       y       z     vdW  Elec       q    Type
REMARK                         _______ _______ _______ _____ _____    ______ ____
ROOT
ATOM      1  N   UNL     1       6.055   2.264  -0.272  0.00  0.00    -0.187 NA
ATOM      2  C   UNL     1       7.175   1.623  -0.412  0.00  0.00    +0.142 C 
ENDROOT
BRANCH   2   3
ATOM      3  C   UNL     1       7.178   0.151  -0.484  0.00  0.00    +0.038 A 
ATOM      4  C   UNL     1       8.374  -0.540  -0.691  0.00  0.00    +0.028 A 
ATOM      5  C   UNL     1       8.369  -1.918  -0.758  0.00  0.00    +0.019 A 
ATOM      6  C   UNL     1       7.182  -2.619  -0.620  0.00  0.00    +0.019 A 
ATOM      7  C   UNL     1       5.993  -1.947  -0.409  0.00  0.00    +0.048 A 
ATOM      8  C   UNL     1       5.980  -0.563  -0.345  0.00  0.00    +0.141 A 
ATOM      9 BR   UNL     1       9.988  -2.853  -1.039  0.00  0.00    -0.050 Br
BRANCH   8  10
ATOM     10  O   UNL     1       4.811   0.099  -0.143  0.00  0.00    -0.422 OA
BRANCH  10  11
ATOM     11  C   UNL     1       4.144   0.510  -1.239  0.00  0.00    +0.344 C 
ATOM     12  O   UNL     1       4.636   0.364  -2.341  0.00  0.00    -0.245 OA
BRANCH  11  13
ATOM     13  C   UNL     1       2.813   1.137  -1.102  0.00  0.00    +0.059 A 
ATOM     14  C   UNL     1       2.167   1.664  -2.223  0.00  0.00    +0.015 A 
ATOM     15  C   UNL     1       0.925   2.248  -2.087  0.00  0.00    +0.001 A 
ATOM     16  C   UNL     1       0.320   2.313  -0.845  0.00  0.00    +0.000 A 
ATOM     17  C   UNL     1       0.954   1.794   0.269  0.00  0.00    +0.001 A 
ATOM     18  C   UNL     1       2.196   1.206   0.148  0.00  0.00    +0.015 A 
ENDBRANCH  11  13
ENDBRANCH  10  11
ENDBRANCH   8  10
ENDBRANCH   2   3
BRANCH   1  21
ATOM     19  C   UNL     1       4.892   4.333  -0.087  0.00  0.00    +0.263 C 
ATOM     20  O   UNL     1       3.895   3.729   0.258  0.00  0.00    -0.268 OA
ATOM     21  N   UNL     1       6.038   3.664  -0.322  0.00  0.00    -0.203 N 
ATOM     22  H   UNL     1       6.852   4.152  -0.526  0.00  0.00    +0.178 HD
BRANCH  19  26
ATOM     23  C   UNL     1       4.763   8.553  -0.551  0.00  0.00    +0.033 A 
ATOM     24  C   UNL     1       3.622   7.863  -0.157  0.00  0.00    +0.024 A 
ATOM     25  C   UNL     1       3.660   6.495  -0.005  0.00  0.00    +0.015 A 
ATOM     26  C   UNL     1       4.848   5.799  -0.248  0.00  0.00    +0.038 A 
ATOM     27  C   UNL     1       5.994   6.497  -0.639  0.00  0.00    +0.015 A 
ATOM     28  C   UNL     1       5.947   7.864  -0.794  0.00  0.00    +0.024 A 
BRANCH  23  32
ATOM     29  C   UNL     1       3.604  12.011  -1.463  0.00  0.00    +0.109 C 
ATOM     30  C   UNL     1       3.610  10.529  -1.188  0.00  0.00    +0.214 C 
ATOM     31  O   UNL     1       2.616   9.868  -1.403  0.00  0.00    -0.276 OA
ATOM     32  N   UNL     1       4.721   9.938  -0.704  0.00  0.00    -0.286 N 
ATOM     33  H   UNL     1       5.490  10.477  -0.462  0.00  0.00    +0.155 HD
ENDBRANCH  23  32
ENDBRANCH  19  26
ENDBRANCH   1  21
TORSDOF 7
