REMARK  Name = ZINC57458354
REMARK  5 active torsions:
REMARK  status: ('A' for Active; 'I' for Inactive)
REMARK    1  A    between atoms: C_1  and  C_2
REMARK    2  A    between atoms: C_3  and  C_19
REMARK    3  A    between atoms: C_4  and  C_11
REMARK    4  A    between atoms: N_9  and  C_10
REMARK    5  A    between atoms: N_21  and  C_22
REMARK                            x       y       z     vdW  Elec       q    Type
REMARK                         _______ _______ _______ _____ _____    ______ ____
ROOT
ATOM      1  C   UNL     1       0.312   1.860   0.322  0.00  0.00    +0.061 C 
ATOM      2  C   UNL     1       0.257   0.384   0.019  0.00  0.00    +0.022 C 
ATOM      3  C   UNL     1      -0.930  -0.192  -0.262  0.00  0.00    +0.056 C 
ATOM      4  C   UNL     1      -0.941  -1.677  -0.561  0.00  0.00    +0.142 C 
ATOM      5  N   UNL     1       0.356  -2.375  -0.520  0.00  0.00    -0.288 N 
ATOM      6  C   UNL     1       1.460  -1.661  -0.223  0.00  0.00    +0.307 C 
ATOM      7  O   UNL     1       2.534  -2.228  -0.187  0.00  0.00    -0.252 OA
ATOM      8  N   UNL     1       1.411  -0.347   0.028  0.00  0.00    -0.262 N 
ATOM      9  C   UNL     1       2.666   0.345   0.335  0.00  0.00    +0.139 C 
ATOM     10  H   UNL     1       0.413  -3.326  -0.702  0.00  0.00    +0.151 HD
ENDROOT
BRANCH   4  11
ATOM     11  C   UNL     1      -1.858  -2.345   0.431  0.00  0.00    -0.021 A 
ATOM     12  C   UNL     1      -1.457  -2.501   1.746  0.00  0.00    +0.008 A 
ATOM     13  C   UNL     1      -2.297  -3.112   2.657  0.00  0.00    +0.040 A 
ATOM     14  C   UNL     1      -3.541  -3.568   2.254  0.00  0.00    +0.137 A 
ATOM     15  C   UNL     1      -3.942  -3.411   0.937  0.00  0.00    +0.053 A 
ATOM     16  C   UNL     1      -3.101  -2.794   0.028  0.00  0.00    +0.024 A 
ATOM     17 BR   UNL     1      -5.640  -4.033   0.384  0.00  0.00    -0.047 Br
ATOM     18  F   UNL     1      -4.363  -4.166   3.144  0.00  0.00    -0.204 F 
ENDBRANCH   4  11
BRANCH   3  19
ATOM     19  C   UNL     1      -2.127   0.566  -0.276  0.00  0.00    +0.248 C 
ATOM     20  O   UNL     1      -2.616   0.912  -1.336  0.00  0.00    -0.270 OA
ATOM     21  N   UNL     1      -2.725   0.904   0.884  0.00  0.00    -0.282 N 
ATOM     22  H   UNL     1      -2.285   0.718   1.728  0.00  0.00    +0.155 HD
BRANCH  21  23
ATOM     23  C   UNL     1      -3.979   1.524   0.870  0.00  0.00    +0.034 A 
ATOM     24  C   UNL     1      -4.904   1.199  -0.114  0.00  0.00    +0.026 A 
ATOM     25  C   UNL     1      -6.142   1.812  -0.125  0.00  0.00    +0.040 A 
ATOM     26  C   UNL     1      -6.461   2.749   0.843  0.00  0.00    +0.124 A 
ATOM     27  C   UNL     1      -5.540   3.075   1.824  0.00  0.00    +0.040 A 
ATOM     28  C   UNL     1      -4.303   2.460   1.843  0.00  0.00    +0.026 A 
ATOM     29  F   UNL     1      -7.672   3.347   0.830  0.00  0.00    -0.205 F 
ENDBRANCH  21  23
ENDBRANCH   3  19
TORSDOF 3
