REMARK  Name = ZINC49491760
REMARK  6 active torsions:
REMARK  status: ('A' for Active; 'I' for Inactive)
REMARK    1  A    between atoms: C_1  and  C_2
REMARK    2  A    between atoms: N_4  and  C_5
REMARK    3  A    between atoms: C_8  and  C_11
REMARK    4  A    between atoms: N_13  and  C_14
REMARK    5  A    between atoms: N_20  and  S_24
REMARK    6  A    between atoms: S_24  and  C_27
REMARK                            x       y       z     vdW  Elec       q    Type
REMARK                         _______ _______ _______ _____ _____    ______ ____
ROOT
ATOM      1  C   UNL     1      -2.843  -8.337  -0.897  0.00  0.00    +0.035 A 
ATOM      2  C   UNL     1      -1.629  -9.012  -0.884  0.00  0.00    +0.024 A 
ATOM      3  C   UNL     1      -1.594 -10.369  -0.639  0.00  0.00    +0.007 A 
ATOM      4  C   UNL     1      -2.767 -11.069  -0.403  0.00  0.00    -0.025 A 
ATOM      5  C   UNL     1      -3.981 -10.398  -0.411  0.00  0.00    +0.056 A 
ATOM      6  C   UNL     1      -4.019  -9.031  -0.654  0.00  0.00    +0.048 A 
ATOM      7  N   UNL     1      -5.178 -11.079  -0.167  0.00  0.00    -0.203 N 
ATOM      8  C   UNL     1      -5.180 -12.548  -0.199  0.00  0.00    +0.132 C 
ATOM      9  C   UNL     1      -3.948 -13.036   0.574  0.00  0.00    +0.025 C 
ATOM     10  C   UNL     1      -2.689 -12.551  -0.145  0.00  0.00    +0.038 C 
ENDROOT
BRANCH   1  13
ATOM     11  C   UNL     1      -1.941  -6.394  -1.932  0.00  0.00    +0.248 C 
ATOM     12  O   UNL     1      -1.122  -7.091  -2.500  0.00  0.00    -0.270 OA
ATOM     13  N   UNL     1      -2.879  -6.961  -1.147  0.00  0.00    -0.281 N 
ATOM     14  H   UNL     1      -3.579  -6.415  -0.756  0.00  0.00    +0.155 HD
BRANCH  11  18
ATOM     15  C   UNL     1      -1.847  -2.177  -2.420  0.00  0.00    +0.033 A 
ATOM     16  C   UNL     1      -0.909  -2.972  -3.071  0.00  0.00    +0.024 A 
ATOM     17  C   UNL     1      -0.936  -4.339  -2.914  0.00  0.00    +0.015 A 
ATOM     18  C   UNL     1      -1.908  -4.929  -2.101  0.00  0.00    +0.037 A 
ATOM     19  C   UNL     1      -2.849  -4.127  -1.449  0.00  0.00    +0.015 A 
ATOM     20  C   UNL     1      -2.813  -2.760  -1.606  0.00  0.00    +0.024 A 
BRANCH  15  24
ATOM     21  C   UNL     1      -1.547   1.232  -3.978  0.00  0.00    +0.109 C 
ATOM     22  C   UNL     1      -1.469  -0.259  -3.768  0.00  0.00    +0.214 C 
ATOM     23  O   UNL     1      -1.092  -0.978  -4.669  0.00  0.00    -0.276 OA
ATOM     24  N   UNL     1      -1.817  -0.792  -2.581  0.00  0.00    -0.286 N 
ATOM     25  H   UNL     1      -2.046  -0.212  -1.837  0.00  0.00    +0.155 HD
ENDBRANCH  15  24
ENDBRANCH  11  18
ENDBRANCH   1  13
BRANCH   7  26
ATOM     26  S   UNL     1      -6.571 -10.243   0.154  0.00  0.00    +0.075 S 
ATOM     27  O   UNL     1      -7.465 -11.163   0.767  0.00  0.00    -0.150 OA
ATOM     28  O   UNL     1      -6.181  -9.028   0.780  0.00  0.00    -0.150 OA
BRANCH  26  29
ATOM     29  C   UNL     1      -7.284  -9.805  -1.396  0.00  0.00    +0.109 A 
ATOM     30  C   UNL     1      -6.942  -8.609  -2.000  0.00  0.00    +0.031 A 
ATOM     31  C   UNL     1      -7.500  -8.264  -3.216  0.00  0.00    +0.040 A 
ATOM     32  C   UNL     1      -8.403  -9.116  -3.830  0.00  0.00    +0.124 A 
ATOM     33  C   UNL     1      -8.745 -10.313  -3.224  0.00  0.00    +0.040 A 
ATOM     34  C   UNL     1      -8.181 -10.659  -2.010  0.00  0.00    +0.031 A 
ATOM     35  F   UNL     1      -8.950  -8.780  -5.019  0.00  0.00    -0.205 F 
ENDBRANCH  26  29
ENDBRANCH   7  26
TORSDOF 5
