REMARK  Name = ZINC13547198
REMARK  4 active torsions:
REMARK  status: ('A' for Active; 'I' for Inactive)
REMARK    1  A    between atoms: C_4  and  N_7
REMARK    2  A    between atoms: C_8  and  C_10
REMARK    3  A    between atoms: C_11  and  N_22
REMARK    4  A    between atoms: N_12  and  C_16
REMARK                            x       y       z     vdW  Elec       q    Type
REMARK                         _______ _______ _______ _____ _____    ______ ____
ROOT
ATOM      1  C   UNL     1       3.965  -2.179  -3.697  0.00  0.00    +0.114 A 
ATOM      2  C   UNL     1       4.651  -3.350  -3.913  0.00  0.00    +0.117 A 
ATOM      3  N   UNL     1       5.325  -3.444  -5.079  0.00  0.00    -0.314 N 
ATOM      4  C   UNL     1       5.295  -2.418  -5.952  0.00  0.00    +0.128 A 
ATOM      5  S   UNL     1       6.062  -2.306  -7.479  0.00  0.00    -0.025 S 
ATOM      6  S   UNL     1       4.321  -1.277  -5.194  0.00  0.00    -0.055 S 
ENDROOT
BRANCH   3   7
ATOM      7  C   UNL     1       6.086  -4.656  -5.394  0.00  0.00    +0.090 C 
ATOM      8  C   UNL     1       7.559  -4.295  -5.595  0.00  0.00    +0.025 C 
ATOM      9  C   UNL     1       8.353  -5.561  -5.923  0.00  0.00    +0.002 C 
ATOM     10  C   UNL     1       7.803  -6.191  -7.205  0.00  0.00    +0.000 C 
ATOM     11  C   UNL     1       6.329  -6.551  -7.004  0.00  0.00    +0.002 C 
ATOM     12  C   UNL     1       5.535  -5.285  -6.675  0.00  0.00    +0.025 C 
ENDBRANCH   3   7
BRANCH   1  14
ATOM     13  N   UNL     1       2.578  -0.591  -2.574  0.00  0.00    -0.308 N 
ATOM     14  C   UNL     1       3.181  -1.796  -2.588  0.00  0.00    +0.254 C 
ATOM     15  O   UNL     1       3.049  -2.554  -1.644  0.00  0.00    -0.270 OA
ATOM     16  H   UNL     1       2.683   0.013  -3.325  0.00  0.00    +0.149 HD
BRANCH  13  20
ATOM     17  C   UNL     1      -0.552   1.206  -0.299  0.00  0.00    +0.000 C 
ATOM     18  C   UNL     1       0.868   1.750  -0.132  0.00  0.00    +0.002 C 
ATOM     19  C   UNL     1       1.718   1.335  -1.335  0.00  0.00    +0.022 C 
ATOM     20  C   UNL     1       1.764  -0.192  -1.423  0.00  0.00    +0.073 C 
ATOM     21  C   UNL     1       0.344  -0.737  -1.589  0.00  0.00    +0.022 C 
ATOM     22  C   UNL     1      -0.506  -0.321  -0.387  0.00  0.00    +0.002 C 
ENDBRANCH  13  20
ENDBRANCH   1  14
BRANCH   2  23
ATOM     23  N   UNL     1       4.653  -4.372  -2.990  0.00  0.00    -0.343 N 
ATOM     24  H   UNL     1       4.251  -4.237  -2.117  0.00  0.00    +0.144 HD
ATOM     25  H   UNL     1       5.055  -5.226  -3.212  0.00  0.00    +0.144 HD
ENDBRANCH   2  23
TORSDOF 4
