REMARK  Name = ZINC63538106
REMARK  5 active torsions:
REMARK  status: ('A' for Active; 'I' for Inactive)
REMARK    1  A    between atoms: C_6  and  C_11
REMARK    2  A    between atoms: C_11  and  N_12
REMARK    3  A    between atoms: C_13  and  C_15
REMARK    4  A    between atoms: C_23  and  C_30
REMARK    5  A    between atoms: C_25  and  C_26
REMARK                            x       y       z     vdW  Elec       q    Type
REMARK                         _______ _______ _______ _____ _____    ______ ____
ROOT
ATOM      1  C   UNL     1       7.158  -3.026  -2.542  0.00  0.00    +0.073 C 
ATOM      2  H   UNL     1       9.979  -3.354  -3.940  0.00  0.00    +0.170 HD
ATOM      3  C   UNL     1       7.948  -3.511  -3.522  0.00  0.00    +0.100 C 
ATOM      4  N   UNL     1       9.261  -3.212  -3.303  0.00  0.00    -0.269 N 
ATOM      5  N   UNL     1       9.418  -2.672  -2.034  0.00  0.00    -0.220 N 
ATOM      6  C   UNL     1       8.062  -2.302  -1.570  0.00  0.00    +0.246 C 
ATOM      7  N   UNL     1       7.911  -2.834  -0.213  0.00  0.00    -0.254 NA
ATOM      8  C   UNL     1       8.970  -3.001   0.547  0.00  0.00    +0.077 C 
ATOM      9  C   UNL     1      10.321  -2.665   0.083  0.00  0.00    +0.057 C 
ATOM     10  C   UNL     1      10.535  -2.521  -1.249  0.00  0.00    +0.132 C 
ENDROOT
BRANCH   8  11
ATOM     11  C   UNL     1       8.794  -3.542   1.907  0.00  0.00    +0.037 A 
ATOM     12  C   UNL     1       7.640  -3.926   2.543  0.00  0.00    +0.017 A 
ATOM     13  C   UNL     1       7.786  -4.399   3.828  0.00  0.00    +0.008 A 
ATOM     14  C   UNL     1       9.027  -4.454   4.369  0.00  0.00    +0.046 A 
ATOM     15  S   UNL     1      10.028  -3.874   3.151  0.00  0.00    -0.095 S 
ENDBRANCH   8  11
BRANCH   1  17
ATOM     16  N   UNL     1       5.093  -2.617  -1.405  0.00  0.00    -0.309 N 
ATOM     17  C   UNL     1       5.754  -3.164  -2.445  0.00  0.00    +0.245 C 
ATOM     18  O   UNL     1       5.141  -3.776  -3.301  0.00  0.00    -0.270 OA
ATOM     19  H   UNL     1       5.581  -2.129  -0.723  0.00  0.00    +0.149 HD
BRANCH  16  20
ATOM     20  C   UNL     1       3.639  -2.760  -1.304  0.00  0.00    +0.133 C 
BRANCH  20  26
ATOM     21  C   UNL     1      -0.016   1.348   0.009  0.00  0.00    +0.001 A 
ATOM     22  C   UNL     1       1.166   2.101   0.002  0.00  0.00    +0.002 A 
ATOM     23  C   UNL     1       2.391   1.535  -0.013  0.00  0.00    +0.026 A 
ATOM     24  C   UNL     1       2.529   0.120  -0.022  0.00  0.00    +0.043 A 
ATOM     25  N   UNL     1       3.587  -0.654  -0.037  0.00  0.00    -0.376 N 
ATOM     26  C   UNL     1       3.143  -2.053  -0.041  0.00  0.00    +0.120 C 
ATOM     27  C   UNL     1       1.631  -2.008  -0.025  0.00  0.00    +0.009 C 
ATOM     28  C   UNL     1       1.295  -0.698  -0.014  0.00  0.00    -0.004 A 
ATOM     29  C   UNL     1       0.002  -0.004   0.002  0.00  0.00    +0.010 A 
ATOM     30  H   UNL     1       4.509  -0.353  -0.045  0.00  0.00    +0.160 HD
ENDBRANCH  20  26
ENDBRANCH  16  20
ENDBRANCH   1  17
BRANCH  10  31
ATOM     31  C   UNL     1      11.892  -2.201  -1.822  0.00  0.00    +0.432 C 
ATOM     32  F   UNL     1      12.826  -2.108  -0.785  0.00  0.00    -0.165 F 
ATOM     33  F   UNL     1      12.276  -3.216  -2.705  0.00  0.00    -0.165 F 
ATOM     34  F   UNL     1      11.834  -0.983  -2.508  0.00  0.00    -0.165 F 
ENDBRANCH  10  31
TORSDOF 5
