REMARK  Name = ZINC14269416
REMARK  7 active torsions:
REMARK  status: ('A' for Active; 'I' for Inactive)
REMARK    1  A    between atoms: C_1  and  C_2
REMARK    2  A    between atoms: C_5  and  C_9
REMARK    3  A    between atoms: C_7  and  C_8
REMARK    4  A    between atoms: C_13  and  N_18
REMARK    5  A    between atoms: N_18  and  C_19
REMARK    6  A    between atoms: C_19  and  N_21
REMARK    7  A    between atoms: C_22  and  C_24
REMARK                            x       y       z     vdW  Elec       q    Type
REMARK                         _______ _______ _______ _____ _____    ______ ____
ROOT
ATOM      1  N   UNL     1       4.894  -4.051  -0.082  0.00  0.00    -0.297 N 
ATOM      2  H   UNL     1       4.803  -3.275   0.492  0.00  0.00    +0.154 HD
ENDROOT
BRANCH   1   7
ATOM      3  C   UNL     1       8.714  -8.469  -0.009  0.00  0.00    +0.228 A 
ATOM      4  N   UNL     1       7.419  -8.286  -0.064  0.00  0.00    -0.209 NA
ATOM      5  C   UNL     1       7.165  -6.952  -0.045  0.00  0.00    +0.112 A 
ATOM      6  C   UNL     1       5.992  -6.195  -0.075  0.00  0.00    +0.054 A 
ATOM      7  C   UNL     1       6.068  -4.815  -0.047  0.00  0.00    +0.035 A 
ATOM      8  C   UNL     1       7.306  -4.181   0.023  0.00  0.00    +0.027 A 
ATOM      9  C   UNL     1       8.469  -4.921   0.059  0.00  0.00    +0.050 A 
ATOM     10  C   UNL     1       8.410  -6.306   0.025  0.00  0.00    +0.156 A 
ATOM     11  O   UNL     1       9.346  -7.282   0.046  0.00  0.00    -0.435 OA
BRANCH   3  16
ATOM     12  C   UNL     1      11.325 -13.597  -0.011  0.00  0.00    +0.044 C 
ATOM     13  C   UNL     1      10.641 -12.254  -0.011  0.00  0.00    -0.047 A 
ATOM     14  C   UNL     1       9.260 -12.184  -0.071  0.00  0.00    +0.004 A 
ATOM     15  C   UNL     1       8.628 -10.958  -0.065  0.00  0.00    +0.013 A 
ATOM     16  C   UNL     1       9.385  -9.786  -0.010  0.00  0.00    +0.037 A 
ATOM     17  C   UNL     1      10.777  -9.864   0.051  0.00  0.00    +0.016 A 
ATOM     18  C   UNL     1      11.396 -11.097   0.051  0.00  0.00    -0.047 A 
ATOM     19  C   UNL     1      12.900 -11.183   0.117  0.00  0.00    +0.044 C 
ENDBRANCH   3  16
ENDBRANCH   1   7
BRANCH   1  20
ATOM     20  C   UNL     1       3.892  -4.395  -0.915  0.00  0.00    +0.141 C 
ATOM     21  S   UNL     1       4.105  -5.678  -2.028  0.00  0.00    -0.018 S 
BRANCH  20  22
ATOM     22  N   UNL     1       2.721  -3.729  -0.870  0.00  0.00    -0.264 N 
ATOM     23  C   UNL     1       1.718  -4.073  -1.702  0.00  0.00    +0.250 C 
ATOM     24  O   UNL     1       1.870  -4.984  -2.493  0.00  0.00    -0.270 OA
ATOM     25  H   UNL     1       2.600  -3.002  -0.239  0.00  0.00    +0.157 HD
BRANCH  23  26
ATOM     26  C   UNL     1       0.436  -3.344  -1.654  0.00  0.00    +0.041 A 
ATOM     27  C   UNL     1       0.260  -2.296  -0.746  0.00  0.00    +0.017 A 
ATOM     28  C   UNL     1      -0.938  -1.619  -0.702  0.00  0.00    +0.050 A 
ATOM     29  C   UNL     1      -1.975  -1.972  -1.558  0.00  0.00    +0.162 A 
ATOM     30  C   UNL     1      -1.804  -3.013  -2.468  0.00  0.00    +0.163 A 
ATOM     31  C   UNL     1      -0.604  -3.698  -2.516  0.00  0.00    +0.062 A 
ATOM     32  O   UNL     1      -2.807  -3.365  -3.319  0.00  0.00    -0.485 OA
ATOM     33  C   UNL     1      -4.122  -2.904  -2.990  0.00  0.00    +0.270 C 
ATOM     34  C   UNL     1      -4.031  -1.419  -2.615  0.00  0.00    +0.270 C 
ATOM     35  O   UNL     1      -3.151  -1.294  -1.492  0.00  0.00    -0.485 OA
ENDBRANCH  23  26
ENDBRANCH  20  22
ENDBRANCH   1  20
TORSDOF 5
