REMARK  Name = ZINC36212483
REMARK  8 active torsions:
REMARK  status: ('A' for Active; 'I' for Inactive)
REMARK    1  A    between atoms: C_4  and  C_7
REMARK    2  A    between atoms: N_9  and  C_10
REMARK    3  A    between atoms: C_10  and  C_12
REMARK    4  A    between atoms: C_10  and  C_30
REMARK    5  A    between atoms: C_18  and  C_20
REMARK    6  A    between atoms: C_23  and  C_26
REMARK    7  A    between atoms: N_32  and  C_33
REMARK    8  A    between atoms: C_33  and  C_34
REMARK                            x       y       z     vdW  Elec       q    Type
REMARK                         _______ _______ _______ _____ _____    ______ ____
ROOT
ATOM      1  C   UNL     1       4.382  -3.898   0.247  0.00  0.00    +0.162 C 
ENDROOT
BRANCH   1   2
ATOM      2  C   UNL     1       5.337  -3.235   1.241  0.00  0.00    +0.021 C 
ATOM      3  C   UNL     1       6.680  -3.969   1.225  0.00  0.00    +0.025 C 
ATOM      4  C   UNL     1       7.645  -3.281   2.196  0.00  0.00    +0.108 C 
ATOM      5  N   UNL     1       7.012  -3.209   3.520  0.00  0.00    -0.298 N 
ATOM      6  C   UNL     1       5.678  -2.604   3.634  0.00  0.00    +0.108 C 
ATOM      7  C   UNL     1       4.735  -3.299   2.647  0.00  0.00    +0.025 C 
ATOM      8  C   UNL     1       7.643  -3.691   4.610  0.00  0.00    +0.247 C 
ATOM      9  O   UNL     1       7.140  -3.563   5.709  0.00  0.00    -0.270 OA
BRANCH   8  10
ATOM     10  C   UNL     1       8.947  -4.373   4.468  0.00  0.00    +0.037 A 
ATOM     11  C   UNL     1       9.981  -3.766   3.753  0.00  0.00    +0.013 A 
ATOM     12  C   UNL     1      11.196  -4.408   3.625  0.00  0.00    +0.013 A 
ATOM     13  C   UNL     1      11.390  -5.650   4.203  0.00  0.00    +0.055 A 
ATOM     14  C   UNL     1      10.368  -6.257   4.913  0.00  0.00    +0.013 A 
ATOM     15  C   UNL     1       9.151  -5.623   5.054  0.00  0.00    +0.013 A 
BRANCH  13  16
ATOM     16  C   UNL     1      12.719  -6.345   4.059  0.00  0.00    +0.417 C 
ATOM     17  F   UNL     1      13.554  -5.980   5.120  0.00  0.00    -0.166 F 
ATOM     18  F   UNL     1      12.524  -7.731   4.074  0.00  0.00    -0.166 F 
ATOM     19  F   UNL     1      13.312  -5.971   2.848  0.00  0.00    -0.166 F 
ENDBRANCH  13  16
ENDBRANCH   8  10
ENDBRANCH   1   2
BRANCH   1  22
ATOM     20  C   UNL     1       3.042  -1.886  -0.058  0.00  0.00    +0.245 C 
ATOM     21  O   UNL     1       4.058  -1.290  -0.356  0.00  0.00    -0.270 OA
ATOM     22  N   UNL     1       3.097  -3.194   0.261  0.00  0.00    -0.300 N 
ATOM     23  H   UNL     1       2.286  -3.670   0.499  0.00  0.00    +0.150 HD
BRANCH  20  27
ATOM     24  C   UNL     1      -0.684   0.154  -0.018  0.00  0.00    +0.000 A 
ATOM     25  C   UNL     1       0.471   0.836  -0.358  0.00  0.00    +0.001 A 
ATOM     26  C   UNL     1       1.684   0.179  -0.373  0.00  0.00    +0.013 A 
ATOM     27  C   UNL     1       1.745  -1.176  -0.043  0.00  0.00    +0.037 A 
ATOM     28  C   UNL     1       0.576  -1.858   0.298  0.00  0.00    +0.013 A 
ATOM     29  C   UNL     1      -0.631  -1.190   0.309  0.00  0.00    +0.001 A 
ENDBRANCH  20  27
ENDBRANCH   1  22
BRANCH   1  30
ATOM     30  C   UNL     1       4.974  -3.834  -1.137  0.00  0.00    +0.234 C 
ATOM     31  O   UNL     1       4.600  -2.986  -1.919  0.00  0.00    -0.274 OA
ATOM     32  N   UNL     1       5.920  -4.721  -1.507  0.00  0.00    -0.307 N 
ATOM     33  H   UNL     1       6.220  -5.399  -0.882  0.00  0.00    +0.149 HD
BRANCH  32  34
ATOM     34  C   UNL     1       6.496  -4.659  -2.852  0.00  0.00    +0.178 C 
BRANCH  34  35
ATOM     35  C   UNL     1       7.523  -5.751  -3.010  0.00  0.00    +0.122 A 
ATOM     36  C   UNL     1       7.284  -6.996  -3.460  0.00  0.00    +0.046 A 
ATOM     37  C   UNL     1       8.521  -7.681  -3.445  0.00  0.00    +0.041 A 
ATOM     38  C   UNL     1       9.441  -6.814  -2.987  0.00  0.00    +0.195 A 
ATOM     39  O   UNL     1       8.832  -5.645  -2.730  0.00  0.00    -0.466 OA
ENDBRANCH  34  35
ENDBRANCH  32  34
ENDBRANCH   1  30
TORSDOF 8
