REMARK  Name = ZINC08907264
REMARK  9 active torsions:
REMARK  status: ('A' for Active; 'I' for Inactive)
REMARK    1  A    between atoms: C_1  and  C_2
REMARK    2  A    between atoms: C_2  and  C_3
REMARK    3  A    between atoms: C_2  and  C_4
REMARK    4  A    between atoms: C_2  and  C_5
REMARK    5  A    between atoms: C_8  and  C_11
REMARK    6  A    between atoms: N_13  and  C_14
REMARK    7  A    between atoms: C_17  and  N_21
REMARK    8  A    between atoms: C_19  and  O_20
REMARK    9  A    between atoms: C_22  and  C_24
REMARK                            x       y       z     vdW  Elec       q    Type
REMARK                         _______ _______ _______ _____ _____    ______ ____
ROOT
ATOM      1  C   UNL     1      -9.612   3.770   0.346  0.00  0.00    +0.076 A 
ATOM      2  C   UNL     1      -8.925   2.564   0.349  0.00  0.00    +0.029 A 
ATOM      3  C   UNL     1      -7.546   2.554   0.260  0.00  0.00    +0.025 A 
ATOM      4  C   UNL     1      -6.845   3.750   0.177  0.00  0.00    +0.037 A 
ATOM      5  C   UNL     1      -7.529   4.959   0.172  0.00  0.00    +0.070 A 
ATOM      6  C   UNL     1      -8.911   4.971   0.257  0.00  0.00    +0.140 A 
ENDROOT
BRANCH   1   9
ATOM      7  C   UNL     1     -11.719   2.706   0.023  0.00  0.00    +0.248 C 
ATOM      8  O   UNL     1     -11.152   1.772  -0.511  0.00  0.00    -0.270 OA
ATOM      9  N   UNL     1     -11.012   3.779   0.430  0.00  0.00    -0.279 N 
ATOM     10  H   UNL     1     -11.471   4.557   0.782  0.00  0.00    +0.155 HD
BRANCH   7  14
ATOM     11  C   UNL     1     -15.924   2.589   0.606  0.00  0.00    -0.042 A 
ATOM     12  C   UNL     1     -15.283   1.524  -0.003  0.00  0.00    +0.005 A 
ATOM     13  C   UNL     1     -13.918   1.556  -0.195  0.00  0.00    +0.013 A 
ATOM     14  C   UNL     1     -13.182   2.666   0.226  0.00  0.00    +0.037 A 
ATOM     15  C   UNL     1     -13.835   3.734   0.843  0.00  0.00    +0.013 A 
ATOM     16  C   UNL     1     -15.201   3.691   1.025  0.00  0.00    +0.005 A 
BRANCH  11  18
ATOM     17  C   UNL     1     -17.776   1.346   1.689  0.00  0.00    +0.015 C 
ATOM     18  C   UNL     1     -17.416   2.547   0.813  0.00  0.00    -0.013 C 
ATOM     19  C   UNL     1     -17.872   3.835   1.501  0.00  0.00    +0.015 C 
ATOM     20  C   UNL     1     -18.116   2.417  -0.542  0.00  0.00    +0.015 C 
ENDBRANCH  11  18
ENDBRANCH   7  14
ENDBRANCH   1   9
BRANCH   4  21
ATOM     21  N   UNL     1      -5.448   3.737   0.091  0.00  0.00    -0.279 N 
ATOM     22  C   UNL     1      -4.728   4.712   0.682  0.00  0.00    +0.284 C 
ATOM     23  O   UNL     1      -5.293   5.648   1.215  0.00  0.00    -0.266 OA
ATOM     24  H   UNL     1      -4.998   3.027  -0.393  0.00  0.00    +0.155 HD
BRANCH  22  25
ATOM     25  C   UNL     1      -3.260   4.642   0.682  0.00  0.00    +0.191 A 
ATOM     26  C   UNL     1      -2.434   5.563   1.244  0.00  0.00    +0.063 A 
ATOM     27  C   UNL     1      -1.073   5.086   1.004  0.00  0.00    +0.021 A 
ATOM     28  C   UNL     1       0.199   5.569   1.322  0.00  0.00    +0.011 A 
ATOM     29  C   UNL     1       1.306   4.862   0.946  0.00  0.00    +0.001 A 
ATOM     30  C   UNL     1       1.175   3.671   0.245  0.00  0.00    +0.004 A 
ATOM     31  C   UNL     1      -0.070   3.180  -0.084  0.00  0.00    +0.047 A 
ATOM     32  C   UNL     1      -1.211   3.882   0.289  0.00  0.00    +0.136 A 
ATOM     33  O   UNL     1      -2.529   3.660   0.115  0.00  0.00    -0.450 OA
ENDBRANCH  22  25
ENDBRANCH   4  21
BRANCH   6  34
ATOM     34  O   UNL     1      -9.583   6.152   0.252  0.00  0.00    -0.505 OA
ATOM     35  H   UNL     1      -9.832   6.460  -0.630  0.00  0.00    +0.292 HD
ENDBRANCH   6  34
TORSDOF 6
