REMARK  Name = ZINC08978262
REMARK  5 active torsions:
REMARK  status: ('A' for Active; 'I' for Inactive)
REMARK    1  A    between atoms: C_8  and  C_10
REMARK    2  A    between atoms: C_14  and  N_15
REMARK    3  A    between atoms: C_16  and  C_18
REMARK    4  A    between atoms: N_23  and  S_24
REMARK    5  A    between atoms: S_24  and  C_27
REMARK                            x       y       z     vdW  Elec       q    Type
REMARK                         _______ _______ _______ _____ _____    ______ ____
ROOT
ATOM      1  N   UNL     1      -0.016   1.344   0.009  0.00  0.00    -0.278 N 
ATOM      2  C   UNL     1       0.002  -0.004   0.002  0.00  0.00    +0.236 C 
ATOM      3  O   UNL     1      -1.040  -0.625   0.009  0.00  0.00    -0.274 OA
ATOM      4  H   UNL     1       0.817   1.840   0.004  0.00  0.00    +0.155 HD
ENDROOT
BRANCH   1   9
ATOM      5  C   UNL     1      -1.461   3.391   0.033  0.00  0.00    +0.036 A 
ATOM      6  C   UNL     1      -2.835   3.822   0.037  0.00  0.00    +0.020 A 
ATOM      7  C   UNL     1      -3.801   2.884   0.037  0.00  0.00    +0.048 A 
ATOM      8  S   UNL     1      -2.884   1.356   0.024  0.00  0.00    -0.081 S 
ATOM      9  C   UNL     1      -1.230   2.022   0.019  0.00  0.00    +0.081 A 
BRANCH   5  17
ATOM     10  C   UNL     1       2.009   8.483   0.076  0.00  0.00    +0.002 A 
ATOM     11  C   UNL     1       3.196   7.765   0.066  0.00  0.00    +0.001 A 
ATOM     12  C   UNL     1       3.151   6.383   0.052  0.00  0.00    +0.017 A 
ATOM     13  C   UNL     1       1.936   5.744   0.048  0.00  0.00    +0.040 A 
ATOM     14  C   UNL     1       0.707   6.443   0.058  0.00  0.00    +0.079 A 
ATOM     15  C   UNL     1       0.791   7.855   0.072  0.00  0.00    +0.029 A 
ATOM     16  N   UNL     1      -0.403   5.676   0.053  0.00  0.00    -0.239 NA
ATOM     17  C   UNL     1      -0.351   4.359   0.040  0.00  0.00    +0.112 A 
ATOM     18  S   UNL     1       1.409   4.047   0.039  0.00  0.00    -0.067 S 
ENDBRANCH   5  17
ENDBRANCH   1   9
BRANCH   2  19
ATOM     19  C   UNL     1       1.317  -0.740  -0.015  0.00  0.00    +0.166 C 
ATOM     20  C   UNL     1       2.123  -0.403   1.258  0.00  0.00    +0.031 C 
ATOM     21  C   UNL     1       2.781  -1.760   1.622  0.00  0.00    +0.019 C 
ATOM     22  C   UNL     1       1.673  -2.762   1.213  0.00  0.00    +0.110 C 
ATOM     23  N   UNL     1       1.079  -2.191  -0.012  0.00  0.00    -0.165 NA
BRANCH  23  24
ATOM     24  S   UNL     1       0.276  -3.038  -1.187  0.00  0.00    +0.062 S 
ATOM     25  O   UNL     1      -0.211  -4.223  -0.572  0.00  0.00    -0.153 OA
ATOM     26  O   UNL     1      -0.580  -2.113  -1.843  0.00  0.00    -0.153 OA
BRANCH  24  27
ATOM     27  C   UNL     1       1.475  -3.545  -2.375  0.00  0.00    +0.106 A 
ATOM     28  C   UNL     1       1.764  -2.732  -3.455  0.00  0.00    +0.030 A 
ATOM     29  C   UNL     1       2.708  -3.126  -4.384  0.00  0.00    +0.022 A 
ATOM     30  C   UNL     1       3.356  -4.340  -4.239  0.00  0.00    +0.041 A 
ATOM     31  C   UNL     1       3.063  -5.156  -3.161  0.00  0.00    +0.022 A 
ATOM     32  C   UNL     1       2.122  -4.758  -2.229  0.00  0.00    +0.030 A 
ATOM     33 CL   UNL     1       4.538  -4.838  -5.409  0.00  0.00    -0.084 Cl
ENDBRANCH  24  27
ENDBRANCH  23  24
ENDBRANCH   2  19
TORSDOF 5
