REMARK  Name = ZINC09298062
REMARK  8 active torsions:
REMARK  status: ('A' for Active; 'I' for Inactive)
REMARK    1  A    between atoms: C_1  and  C_2
REMARK    2  A    between atoms: C_9  and  N_18
REMARK    3  A    between atoms: C_10  and  C_11
REMARK    4  A    between atoms: C_14  and  O_16
REMARK    5  A    between atoms: O_16  and  C_17
REMARK    6  A    between atoms: C_19  and  C_21
REMARK    7  A    between atoms: C_24  and  C_27
REMARK    8  A    between atoms: C_27  and  C_29
REMARK                            x       y       z     vdW  Elec       q    Type
REMARK                         _______ _______ _______ _____ _____    ______ ____
ROOT
ATOM      1  C   UNL     1      -1.904   0.961  -0.324  0.00  0.00    +0.008 C 
ATOM      2  C   UNL     1      -1.735  -0.559  -0.362  0.00  0.00    -0.009 C 
ATOM      3  C   UNL     1      -1.144  -1.043   0.965  0.00  0.00    +0.008 C 
ATOM      4  C   UNL     1      -1.201  -2.570   1.033  0.00  0.00    +0.037 C 
ATOM      5  C   UNL     1      -0.561  -3.142  -0.226  0.00  0.00    -0.023 A 
ATOM      6  C   UNL     1      -0.392  -2.379  -1.328  0.00  0.00    -0.004 A 
ATOM      7  S   UNL     1       0.375  -3.453  -2.509  0.00  0.00    -0.077 S 
ATOM      8  C   UNL     1       0.471  -4.895  -1.554  0.00  0.00    +0.085 A 
ATOM      9  C   UNL     1      -0.093  -4.512  -0.344  0.00  0.00    +0.069 A 
ATOM     10  C   UNL     1      -0.777  -0.942  -1.499  0.00  0.00    +0.046 C 
ENDROOT
BRANCH   9  11
ATOM     11  C   UNL     1      -0.211  -5.454   0.772  0.00  0.00    +0.255 C 
ATOM     12  O   UNL     1      -1.209  -6.140   0.886  0.00  0.00    -0.270 OA
ATOM     13  N   UNL     1       0.787  -5.561   1.671  0.00  0.00    -0.217 N 
ATOM     14  C   UNL     1       0.679  -6.428   2.698  0.00  0.00    +0.407 C 
ATOM     15  O   UNL     1      -0.318  -7.113   2.812  0.00  0.00    -0.226 OA
ATOM     16  H   UNL     1       1.583  -5.015   1.580  0.00  0.00    +0.161 HD
BRANCH  14  17
ATOM     17  O   UNL     1       1.675  -6.535   3.596  0.00  0.00    -0.453 OA
ATOM     18  C   UNL     1       1.490  -7.489   4.676  0.00  0.00    +0.282 C 
ENDBRANCH  14  17
ENDBRANCH   9  11
BRANCH   8  19
ATOM     19  N   UNL     1       0.985  -6.131  -1.911  0.00  0.00    -0.275 N 
ATOM     20  C   UNL     1       1.496  -6.317  -3.144  0.00  0.00    +0.249 C 
ATOM     21  O   UNL     1       1.506  -5.401  -3.943  0.00  0.00    -0.270 OA
ATOM     22  H   UNL     1       0.977  -6.862  -1.274  0.00  0.00    +0.156 HD
BRANCH  20  23
ATOM     23  C   UNL     1       2.045  -7.637  -3.526  0.00  0.00    +0.037 A 
ATOM     24  C   UNL     1       2.039  -8.688  -2.607  0.00  0.00    +0.014 A 
ATOM     25  C   UNL     1       2.545  -9.918  -2.963  0.00  0.00    +0.012 A 
ATOM     26  C   UNL     1       3.075 -10.111  -4.241  0.00  0.00    +0.022 A 
ATOM     27  C   UNL     1       3.086  -9.058  -5.159  0.00  0.00    +0.012 A 
ATOM     28  C   UNL     1       2.575  -7.830  -4.803  0.00  0.00    +0.014 A 
BRANCH  26  29
ATOM     29  C   UNL     1       3.625 -11.431  -4.622  0.00  0.00    +0.193 C 
ATOM     30  O   UNL     1       3.959 -11.640  -5.772  0.00  0.00    -0.287 OA
BRANCH  29  31
ATOM     31  C   UNL     1       3.768 -12.493  -3.606  0.00  0.00    +0.022 A 
ATOM     32  C   UNL     1       4.088 -12.163  -2.287  0.00  0.00    +0.012 A 
ATOM     33  C   UNL     1       4.215 -13.160  -1.342  0.00  0.00    +0.001 A 
ATOM     34  C   UNL     1       4.035 -14.485  -1.700  0.00  0.00    +0.000 A 
ATOM     35  C   UNL     1       3.723 -14.819  -3.006  0.00  0.00    +0.001 A 
ATOM     36  C   UNL     1       3.588 -13.832  -3.961  0.00  0.00    +0.012 A 
ENDBRANCH  29  31
ENDBRANCH  26  29
ENDBRANCH  20  23
ENDBRANCH   8  19
TORSDOF 6
