REMARK  Name = ZINC39466804
REMARK  5 active torsions:
REMARK  status: ('A' for Active; 'I' for Inactive)
REMARK    1  A    between atoms: C_4  and  C_7
REMARK    2  A    between atoms: C_7  and  P_8
REMARK    3  A    between atoms: C_16  and  S_27
REMARK    4  A    between atoms: S_27  and  O_30
REMARK    5  A    between atoms: O_30  and  C_31
REMARK                            x       y       z     vdW  Elec       q    Type
REMARK                         _______ _______ _______ _____ _____    ______ ____
ROOT
ATOM      1  P   UNL     1       4.241  -1.794   2.852  0.00  0.00    +0.262 P 
ATOM      2  O   UNL     1       4.445  -0.646   3.764  0.00  0.00    -0.274 OA
ATOM      3  N   UNL     1       5.643  -2.648   2.680  0.00  0.00    -0.291 NA
ATOM      4  N   UNL     1       5.552  -3.950   2.233  0.00  0.00    +0.397 N 
ATOM      5  C   UNL     1       6.918  -4.494   2.287  0.00  0.00    -0.046 C 
ATOM      6  C   UNL     1       6.953  -5.936   1.800  0.00  0.00    +0.006 C 
ATOM      7  C   UNL     1       6.487  -6.025   0.372  0.00  0.00    +0.007 C 
ATOM      8  C   UNL     1       6.022  -7.181  -0.095  0.00  0.00    +0.142 C 
ATOM      9  C   UNL     1       5.984  -8.358   0.791  0.00  0.00    +0.065 C 
ATOM     10  C   UNL     1       5.991  -8.193   2.111  0.00  0.00    -0.001 C 
ATOM     11  C   UNL     1       6.035  -6.794   2.676  0.00  0.00    +0.017 C 
ATOM     12  C   UNL     1       4.629  -6.192   2.643  0.00  0.00    -0.003 C 
ATOM     13  C   UNL     1       4.660  -4.728   3.096  0.00  0.00    -0.020 C 
ATOM     14  C   UNL     1       3.218  -4.205   3.031  0.00  0.00    +0.156 C 
ATOM     15  O   UNL     1       3.178  -2.845   3.496  0.00  0.00    -0.319 OA
ATOM     16 CL   UNL     1       5.929  -9.956   0.114  0.00  0.00    -0.082 Cl
ATOM     17  H   UNL     1       6.502  -2.248   2.886  0.00  0.00    +0.111 HD
ATOM     18  H   UNL     1       5.204  -3.961   1.286  0.00  0.00    -0.055 HD
ENDROOT
BRANCH   8  19
ATOM     19  S   UNL     1       5.458  -7.304  -1.760  0.00  0.00    +0.152 S 
ATOM     20  O   UNL     1       4.244  -8.041  -1.724  0.00  0.00    -0.131 OA
ATOM     21  O   UNL     1       5.540  -5.998  -2.314  0.00  0.00    -0.131 OA
BRANCH  19  22
ATOM     22  O   UNL     1       6.465  -8.160  -2.514  0.00  0.00    -0.342 OA
BRANCH  22  23
ATOM     23  C   UNL     1       7.633  -7.524  -2.794  0.00  0.00    +0.157 A 
ATOM     24  C   UNL     1       7.779  -6.833  -3.988  0.00  0.00    +0.048 A 
ATOM     25  C   UNL     1       8.967  -6.186  -4.270  0.00  0.00    +0.004 A 
ATOM     26  C   UNL     1      10.009  -6.227  -3.363  0.00  0.00    +0.000 A 
ATOM     27  C   UNL     1       9.867  -6.915  -2.172  0.00  0.00    +0.004 A 
ATOM     28  C   UNL     1       8.679  -7.558  -1.883  0.00  0.00    +0.048 A 
ENDBRANCH  22  23
ENDBRANCH  19  22
ENDBRANCH   8  19
BRANCH   1  29
ATOM     29  C   UNL     1       3.651  -1.213   1.228  0.00  0.00    +0.147 C 
BRANCH  29  33
ATOM     30  C   UNL     1      -0.123   0.733   1.695  0.00  0.00    +0.000 A 
ATOM     31  C   UNL     1       1.047   1.462   1.791  0.00  0.00    +0.000 A 
ATOM     32  C   UNL     1       2.269   0.832   1.640  0.00  0.00    +0.004 A 
ATOM     33  C   UNL     1       2.320  -0.527   1.394  0.00  0.00    -0.037 A 
ATOM     34  C   UNL     1       1.149  -1.256   1.299  0.00  0.00    +0.004 A 
ATOM     35  C   UNL     1      -0.072  -0.626   1.448  0.00  0.00    +0.000 A 
ENDBRANCH  29  33
ENDBRANCH   1  29
TORSDOF 5
