REMARK  Name = ZINC62411912
REMARK  7 active torsions:
REMARK  status: ('A' for Active; 'I' for Inactive)
REMARK    1  A    between atoms: C_1  and  C_2
REMARK    2  A    between atoms: C_2  and  C_3
REMARK    3  A    between atoms: C_3  and  C_4
REMARK    4  A    between atoms: C_3  and  N_5
REMARK    5  A    between atoms: C_6  and  C_8
REMARK    6  A    between atoms: C_11  and  N_15
REMARK    7  A    between atoms: C_12  and  C_14
REMARK                            x       y       z     vdW  Elec       q    Type
REMARK                         _______ _______ _______ _____ _____    ______ ____
ROOT
ATOM      1  C   UNL     1      -0.206   0.538  -4.793  0.00  0.00    +0.037 A 
ATOM      2  C   UNL     1      -1.433   1.196  -4.668  0.00  0.00    +0.015 A 
ATOM      3  C   UNL     1      -2.161   1.511  -5.792  0.00  0.00    +0.024 A 
ATOM      4  C   UNL     1      -1.677   1.176  -7.053  0.00  0.00    +0.038 A 
ATOM      5  C   UNL     1      -0.456   0.521  -7.181  0.00  0.00    -0.028 A 
ATOM      6  C   UNL     1       0.280   0.207  -6.060  0.00  0.00    +0.018 A 
ATOM      7  C   UNL     1       0.064   0.159  -8.549  0.00  0.00    +0.045 C 
ENDROOT
BRANCH   4   8
ATOM      8  N   UNL     1      -2.417   1.497  -8.190  0.00  0.00    -0.269 N 
ATOM      9  C   UNL     1      -3.756   1.625  -8.109  0.00  0.00    +0.307 C 
ATOM     10  O   UNL     1      -4.314   1.511  -7.035  0.00  0.00    -0.252 OA
ATOM     11  N   UNL     1      -4.477   1.879  -9.219  0.00  0.00    -0.282 N 
ATOM     12  C   UNL     1      -3.799   1.904 -10.483  0.00  0.00    +0.113 C 
ATOM     13  C   UNL     1      -4.644   1.395 -11.612  0.00  0.00    +0.007 C 
ATOM     14  C   UNL     1      -5.372   0.106 -11.271  0.00  0.00    +0.008 C 
ATOM     15  C   UNL     1      -6.719   0.307 -10.606  0.00  0.00    -0.009 C 
ATOM     16  C   UNL     1      -7.573   1.309 -11.388  0.00  0.00    +0.007 C 
ATOM     17  C   UNL     1      -6.799   2.629 -11.429  0.00  0.00    -0.009 C 
ATOM     18  C   UNL     1      -5.534   2.418 -12.261  0.00  0.00    +0.008 C 
ATOM     19  C   UNL     1      -6.467   3.124 -10.040  0.00  0.00    +0.026 C 
ATOM     20  C   UNL     1      -5.904   2.109  -9.078  0.00  0.00    +0.078 C 
ATOM     21  C   UNL     1      -6.624   0.768  -9.159  0.00  0.00    +0.026 C 
ATOM     22  H   UNL     1      -1.968   1.628  -9.040  0.00  0.00    +0.156 HD
ENDBRANCH   4   8
BRANCH   1  24
ATOM     23  N   UNL     1       0.107   0.518  -2.367  0.00  0.00    -0.309 N 
ATOM     24  C   UNL     1       0.577   0.199  -3.589  0.00  0.00    +0.244 C 
ATOM     25  O   UNL     1       1.647  -0.369  -3.700  0.00  0.00    -0.270 OA
ATOM     26  H   UNL     1      -0.746   0.971  -2.278  0.00  0.00    +0.149 HD
BRANCH  23  27
ATOM     27  C   UNL     1       0.885   0.182  -1.172  0.00  0.00    +0.070 C 
ATOM     28  C   UNL     1       0.578  -1.258  -0.752  0.00  0.00    +0.028 C 
BRANCH  27  30
ATOM     29  C   UNL     1       0.932   2.559  -0.404  0.00  0.00    +0.005 C 
ATOM     30  C   UNL     1       0.511   1.135  -0.035  0.00  0.00    +0.018 C 
ENDBRANCH  27  30
ENDBRANCH  23  27
ENDBRANCH   1  24
TORSDOF 4
