REMARK  Name = ZINC49424220
REMARK  2 active torsions:
REMARK  status: ('A' for Active; 'I' for Inactive)
REMARK    1  A    between atoms: C_3  and  N_8
REMARK    2  A    between atoms: C_9  and  C_11
REMARK                            x       y       z     vdW  Elec       q    Type
REMARK                         _______ _______ _______ _____ _____    ______ ____
ROOT
ATOM      1  N   UNL     1       3.596   2.002  -0.021  0.00  0.00    -0.266 N 
ATOM      2  C   UNL     1       3.627   3.346  -0.116  0.00  0.00    +0.249 C 
ATOM      3  O   UNL     1       2.591   3.981  -0.103  0.00  0.00    -0.270 OA
ATOM      4  H   UNL     1       4.424   1.501   0.043  0.00  0.00    +0.157 HD
ENDROOT
BRANCH   2   5
ATOM      5  C   UNL     1       4.920   4.047  -0.236  0.00  0.00    +0.039 A 
ATOM      6  C   UNL     1       6.114   3.311  -0.257  0.00  0.00    +0.014 A 
ATOM      7  C   UNL     1       7.313   3.947  -0.367  0.00  0.00    +0.011 A 
ATOM      8  C   UNL     1       7.358   5.342  -0.460  0.00  0.00    -0.000 A 
ATOM      9  C   UNL     1       8.444   6.315  -0.585  0.00  0.00    +0.027 A 
ATOM     10  C   UNL     1       7.877   7.533  -0.632  0.00  0.00    +0.083 A 
ATOM     11  N   UNL     1       6.519   7.420  -0.547  0.00  0.00    -0.361 N 
ATOM     12  H   UNL     1       5.896   8.164  -0.560  0.00  0.00    +0.165 HD
ATOM     13  C   UNL     1       6.166   6.092  -0.441  0.00  0.00    +0.047 A 
ATOM     14  C   UNL     1       4.948   5.436  -0.334  0.00  0.00    +0.039 A 
ENDBRANCH   2   5
BRANCH   1  17
ATOM     15  C   UNL     1       1.131  -0.711  -0.018  0.00  0.00    +0.006 A 
ATOM     16  C   UNL     1       2.351  -0.058  -0.024  0.00  0.00    +0.044 A 
ATOM     17  C   UNL     1       2.374   1.332  -0.015  0.00  0.00    +0.126 A 
ATOM     18  N   UNL     1       1.247   2.026  -0.001  0.00  0.00    -0.225 NA
ATOM     19  C   UNL     1       0.069   1.431   0.005  0.00  0.00    +0.108 A 
ATOM     20  C   UNL     1      -0.029   0.052  -0.003  0.00  0.00    +0.035 A 
ATOM     21 BR   UNL     1      -1.506   2.477   0.026  0.00  0.00    -0.029 Br
ENDBRANCH   1  17
TORSDOF 2
