REMARK  Name = ZINC22913452
REMARK  10 active torsions:
REMARK  status: ('A' for Active; 'I' for Inactive)
REMARK    1  A    between atoms: C_1  and  C_2
REMARK    2  A    between atoms: C_9  and  C_11
REMARK    3  A    between atoms: C_14  and  N_17
REMARK    4  A    between atoms: C_18  and  C_20
REMARK    5  A    between atoms: C_20  and  N_21
REMARK    6  A    between atoms: N_25  and  C_28
REMARK    7  A    between atoms: C_28  and  C_29
REMARK    8  A    between atoms: N_31  and  C_32
REMARK    9  A    between atoms: C_32  and  C_33
REMARK   10  A    between atoms: C_32  and  C_34
REMARK                            x       y       z     vdW  Elec       q    Type
REMARK                         _______ _______ _______ _____ _____    ______ ____
ROOT
ATOM      1  N   UNL     1       1.643  -0.054   3.624  0.00  0.00    -0.284 N 
ATOM      2  C   UNL     1       1.105   0.752   2.687  0.00  0.00    +0.231 C 
ATOM      3  O   UNL     1       1.803   1.551   2.100  0.00  0.00    -0.274 OA
ATOM      4  H   UNL     1       1.026  -0.827   4.105  0.00  0.00    +0.155 HD
ENDROOT
BRANCH   1   8
ATOM      5  C   UNL     1       5.646   0.384   4.699  0.00  0.00    +0.007 A 
ATOM      6  C   UNL     1       4.699   0.022   5.660  0.00  0.00    +0.012 A 
ATOM      7  C   UNL     1       3.377  -0.121   5.301  0.00  0.00    +0.024 A 
ATOM      8  C   UNL     1       2.985   0.093   3.984  0.00  0.00    +0.033 A 
ATOM      9  C   UNL     1       3.926   0.449   3.025  0.00  0.00    +0.024 A 
ATOM     10  C   UNL     1       5.249   0.600   3.378  0.00  0.00    +0.012 A 
BRANCH   5  19
ATOM     11  C   UNL     1      13.210   1.229   6.653  0.00  0.00    +0.044 C 
ATOM     12  C   UNL     1      11.723   0.997   6.577  0.00  0.00    -0.049 A 
ATOM     13  C   UNL     1      11.010   0.636   7.712  0.00  0.00    +0.005 A 
ATOM     14  C   UNL     1       9.668   0.420   7.674  0.00  0.00    +0.029 A 
ATOM     15  C   UNL     1       8.945   0.557   6.465  0.00  0.00    +0.079 A 
ATOM     16  C   UNL     1       9.699   0.925   5.326  0.00  0.00    +0.040 A 
ATOM     17  C   UNL     1      11.055   1.140   5.375  0.00  0.00    +0.020 A 
ATOM     18  S   UNL     1       8.459   0.989   4.055  0.00  0.00    -0.067 S 
ATOM     19  C   UNL     1       7.065   0.539   5.080  0.00  0.00    +0.109 A 
ATOM     20  N   UNL     1       7.624   0.386   6.261  0.00  0.00    -0.239 NA
ENDBRANCH   5  19
ENDBRANCH   1   8
BRANCH   2  21
ATOM     21  C   UNL     1      -0.366   0.660   2.369  0.00  0.00    +0.180 C 
BRANCH  21  22
ATOM     22  N   UNL     1      -0.680   1.552   1.245  0.00  0.00    -0.296 NA
ATOM     23  C   UNL     1      -0.323   2.915   1.552  0.00  0.00    +0.083 C 
ATOM     24  C   UNL     1      -1.336   3.933   0.988  0.00  0.00    -0.003 C 
ATOM     25  C   UNL     1      -1.800   3.551  -0.433  0.00  0.00    -0.077 C 
ATOM     26  N   UNL     1      -0.720   3.067  -1.257  0.00  0.00    +0.386 N 
ATOM     27  C   UNL     1      -0.661   1.589  -1.195  0.00  0.00    -0.063 C 
ATOM     28  C   UNL     1       0.013   1.115   0.011  0.00  0.00    +0.066 C 
ATOM     29  H   UNL     1       0.213   3.492  -0.858  0.00  0.00    -0.081 HD
BRANCH  26  30
ATOM     30  C   UNL     1      -0.868   3.530  -2.643  0.00  0.00    +0.019 C 
BRANCH  30  31
ATOM     31  C   UNL     1      -0.678   5.024  -2.697  0.00  0.00    +0.197 C 
ATOM     32  O   UNL     1      -0.443   5.643  -1.681  0.00  0.00    -0.278 OA
ATOM     33  N   UNL     1      -0.770   5.673  -3.875  0.00  0.00    -0.315 N 
ATOM     34  H   UNL     1      -0.983   5.112  -4.797  0.00  0.00    +0.149 HD
BRANCH  33  35
ATOM     35  C   UNL     1      -0.586   7.126  -3.927  0.00  0.00    +0.067 C 
ATOM     36  C   UNL     1       0.906   7.447  -4.034  0.00  0.00    +0.027 C 
ATOM     37  C   UNL     1      -1.317   7.689  -5.147  0.00  0.00    +0.027 C 
ENDBRANCH  33  35
ENDBRANCH  30  31
ENDBRANCH  26  30
ENDBRANCH  21  22
ENDBRANCH   2  21
TORSDOF 7
