REMARK  Name = ZINC26608274
REMARK  12 active torsions:
REMARK  status: ('A' for Active; 'I' for Inactive)
REMARK    1  A    between atoms: C_1  and  C_2
REMARK    2  A    between atoms: C_2  and  C_3
REMARK    3  A    between atoms: C_2  and  O_4
REMARK    4  A    between atoms: O_4  and  C_5
REMARK    5  A    between atoms: C_8  and  C_11
REMARK    6  A    between atoms: C_20  and  C_28
REMARK    7  A    between atoms: C_21  and  N_27
REMARK    8  A    between atoms: C_22  and  C_23
REMARK    9  A    between atoms: C_22  and  C_25
REMARK   10  A    between atoms: C_30  and  O_32
REMARK   11  A    between atoms: O_32  and  C_33
REMARK   12  A    between atoms: C_33  and  C_34
REMARK                            x       y       z     vdW  Elec       q    Type
REMARK                         _______ _______ _______ _____ _____    ______ ____
ROOT
ATOM      1  C   UNL     1       1.966   3.122   2.026  0.00  0.00    +0.068 C 
ATOM      2  C   UNL     1       1.931   2.787   0.535  0.00  0.00    +0.048 C 
ATOM      3  C   UNL     1       0.649   2.092   0.137  0.00  0.00    +0.120 C 
ATOM      4  N   UNL     1       0.872   0.664  -0.110  0.00  0.00    -0.263 N 
ATOM      5  C   UNL     1       1.951   0.302  -1.048  0.00  0.00    +0.138 C 
ATOM      6  C   UNL     1       3.217   0.935  -0.530  0.00  0.00    -0.003 C 
ATOM      7  C   UNL     1       3.184   2.039   0.190  0.00  0.00    -0.026 C 
ATOM      8  C   UNL     1       4.459   2.595   0.718  0.00  0.00    +0.074 C 
ATOM      9  C   UNL     1       4.418   3.523   1.706  0.00  0.00    +0.054 C 
ATOM     10  C   UNL     1       3.147   4.054   2.296  0.00  0.00    +0.188 C 
ATOM     11  C   UNL     1       0.123  -0.279   0.496  0.00  0.00    +0.403 C 
ATOM     12  O   UNL     1      -0.759   0.048   1.265  0.00  0.00    -0.226 OA
ENDROOT
BRANCH   1  16
ATOM     13  C   UNL     1       2.434  -0.473   4.290  0.00  0.00    +0.121 A 
ATOM     14  C   UNL     1       1.169   0.058   4.083  0.00  0.00    +0.046 A 
ATOM     15  C   UNL     1       1.020   1.220   3.350  0.00  0.00    +0.007 A 
ATOM     16  C   UNL     1       2.131   1.854   2.825  0.00  0.00    -0.041 A 
ATOM     17  C   UNL     1       3.392   1.324   3.025  0.00  0.00    +0.007 A 
ATOM     18  C   UNL     1       3.547   0.165   3.761  0.00  0.00    +0.046 A 
BRANCH  13  19
ATOM     19  O   UNL     1       2.583  -1.616   5.010  0.00  0.00    -0.489 OA
BRANCH  19  21
ATOM     20  C   UNL     1       4.672  -1.498   6.220  0.00  0.00    +0.051 C 
ATOM     21  C   UNL     1       3.898  -2.170   5.083  0.00  0.00    +0.167 C 
ATOM     22  C   UNL     1       3.805  -3.674   5.348  0.00  0.00    +0.051 C 
ENDBRANCH  19  21
ENDBRANCH  13  19
ENDBRANCH   1  16
BRANCH   9  23
ATOM     23  N   UNL     1       5.604   4.002   2.191  0.00  0.00    -0.358 N 
ATOM     24  H   UNL     1       5.606   4.755   2.992  0.00  0.00    +0.142 HD
ATOM     25  H   UNL     1       6.555   3.633   1.780  0.00  0.00    +0.142 HD
ENDBRANCH   9  23
BRANCH  10  26
ATOM     26  C   UNL     1       3.319   4.204   3.750  0.00  0.00    +0.091 C 
ATOM     27  N   UNL     1       3.451   4.319   4.873  0.00  0.00    -0.194 NA
ENDBRANCH  10  26
BRANCH  10  28
ATOM     28  C   UNL     1       2.859   5.373   1.709  0.00  0.00    +0.091 C 
ATOM     29  N   UNL     1       2.637   6.391   1.256  0.00  0.00    -0.194 NA
ENDBRANCH  10  28
BRANCH   8  30
ATOM     30  C   UNL     1       5.715   2.155   0.189  0.00  0.00    +0.101 C 
ATOM     31  N   UNL     1       6.711   1.806  -0.231  0.00  0.00    -0.191 NA
ENDBRANCH   8  30
BRANCH  11  32
ATOM     32  O   UNL     1       0.352  -1.582   0.248  0.00  0.00    -0.445 OA
BRANCH  32  33
ATOM     33  C   UNL     1      -0.493  -2.542   0.936  0.00  0.00    +0.269 C 
BRANCH  33  34
ATOM     34  C   UNL     1      -0.093  -3.939   0.538  0.00  0.00    -0.010 A 
ATOM     35  C   UNL     1      -0.692  -4.547  -0.549  0.00  0.00    +0.007 A 
ATOM     36  C   UNL     1      -0.322  -5.827  -0.916  0.00  0.00    +0.000 A 
ATOM     37  C   UNL     1       0.641  -6.503  -0.191  0.00  0.00    +0.000 A 
ATOM     38  C   UNL     1       1.237  -5.897   0.899  0.00  0.00    +0.000 A 
ATOM     39  C   UNL     1       0.870  -4.616   1.264  0.00  0.00    +0.007 A 
ENDBRANCH  33  34
ENDBRANCH  32  33
ENDBRANCH  11  32
TORSDOF 10
