REMARK  Name = ZINC54939202
REMARK  6 active torsions:
REMARK  status: ('A' for Active; 'I' for Inactive)
REMARK    1  A    between atoms: C_1  and  C_2
REMARK    2  A    between atoms: C_2  and  C_4
REMARK    3  A    between atoms: C_2  and  N_10
REMARK    4  A    between atoms: C_13  and  N_16
REMARK    5  A    between atoms: C_17  and  C_19
REMARK    6  A    between atoms: N_21  and  C_22
REMARK                            x       y       z     vdW  Elec       q    Type
REMARK                         _______ _______ _______ _____ _____    ______ ____
ROOT
ATOM      1  N   UNL     1       3.631  -0.627   3.022  0.00  0.00    -0.307 N 
ATOM      2  C   UNL     1       4.752  -1.227   3.468  0.00  0.00    +0.299 C 
ATOM      3  O   UNL     1       5.239  -2.145   2.841  0.00  0.00    -0.265 OA
ATOM      4  H   UNL     1       3.241   0.107   3.523  0.00  0.00    +0.149 HD
ENDROOT
BRANCH   1   8
ATOM      5  N   UNL     1       0.731  -0.472   1.170  0.00  0.00    +0.385 N 
ATOM      6  C   UNL     1       0.839  -1.952   1.124  0.00  0.00    -0.076 C 
ATOM      7  C   UNL     1       2.030  -2.251   2.068  0.00  0.00    +0.002 C 
ATOM      8  C   UNL     1       3.000  -1.082   1.780  0.00  0.00    +0.055 C 
ATOM      9  C   UNL     1       2.121   0.033   1.185  0.00  0.00    -0.056 C 
ATOM     10  H   UNL     1       0.247  -0.183   2.006  0.00  0.00    -0.081 HD
BRANCH   5  12
ATOM     11  C   UNL     1       0.003   1.552  -0.002  0.00  0.00    -0.008 C 
ATOM     12  C   UNL     1       0.026   0.022  -0.021  0.00  0.00    -0.041 C 
BRANCH  12  13
ATOM     13  C   UNL     1      -1.387  -0.502  -0.020  0.00  0.00    -0.061 A 
ATOM     14  C   UNL     1      -2.104  -0.556   1.161  0.00  0.00    +0.002 A 
ATOM     15  C   UNL     1      -3.401  -1.036   1.161  0.00  0.00    +0.000 A 
ATOM     16  C   UNL     1      -3.980  -1.462  -0.020  0.00  0.00    +0.000 A 
ATOM     17  C   UNL     1      -3.264  -1.407  -1.201  0.00  0.00    +0.000 A 
ATOM     18  C   UNL     1      -1.969  -0.922  -1.202  0.00  0.00    +0.002 A 
ENDBRANCH  12  13
ENDBRANCH   5  12
ENDBRANCH   1   8
BRANCH   2  19
ATOM     19  C   UNL     1       5.394  -0.763   4.734  0.00  0.00    +0.303 C 
ATOM     20  O   UNL     1       4.907   0.155   5.361  0.00  0.00    -0.265 OA
ATOM     21  N   UNL     1       6.515  -1.364   5.180  0.00  0.00    -0.276 N 
ATOM     22  H   UNL     1       6.860  -2.148   4.724  0.00  0.00    +0.155 HD
BRANCH  21  23
ATOM     23  C   UNL     1       7.180  -0.859   6.297  0.00  0.00    +0.060 A 
ATOM     24  C   UNL     1       7.046   0.469   6.643  0.00  0.00    +0.025 A 
ATOM     25  C   UNL     1       7.704   0.986   7.755  0.00  0.00    +0.003 A 
ATOM     26  C   UNL     1       8.497   0.195   8.530  0.00  0.00    +0.010 A 
ATOM     27  C   UNL     1       8.658  -1.163   8.211  0.00  0.00    +0.002 A 
ATOM     28  C   UNL     1       7.990  -1.704   7.086  0.00  0.00    +0.092 A 
ATOM     29  N   UNL     1       8.137  -2.997   6.783  0.00  0.00    -0.253 NA
ATOM     30  C   UNL     1       8.889  -3.787   7.511  0.00  0.00    +0.111 A 
ATOM     31  C   UNL     1       9.569  -3.321   8.634  0.00  0.00    +0.020 A 
ATOM     32  C   UNL     1       9.471  -2.006   8.993  0.00  0.00    +0.011 A 
ENDBRANCH  21  23
ENDBRANCH   2  19
TORSDOF 5
