REMARK  Name = ZINC08856105
REMARK  7 active torsions:
REMARK  status: ('A' for Active; 'I' for Inactive)
REMARK    1  A    between atoms: C_1  and  C_2
REMARK    2  A    between atoms: C_4  and  C_34
REMARK    3  A    between atoms: C_10  and  N_33
REMARK    4  A    between atoms: C_14  and  C_21
REMARK    5  A    between atoms: C_14  and  C_27
REMARK    6  A    between atoms: C_34  and  O_35
REMARK    7  A    between atoms: O_35  and  C_36
REMARK                            x       y       z     vdW  Elec       q    Type
REMARK                         _______ _______ _______ _____ _____    ______ ____
ROOT
ATOM      1  C   UNL     1      -2.635  -3.904  -3.412  0.00  0.00    +0.065 C 
ATOM      2  C   UNL     1      -1.959  -2.877  -2.540  0.00  0.00    +0.040 A 
ATOM      3  C   UNL     1      -0.665  -3.092  -2.098  0.00  0.00    +0.029 A 
ATOM      4  C   UNL     1      -0.088  -2.135  -1.296  0.00  0.00    -0.007 A 
ATOM      5  C   UNL     1      -0.806  -0.965  -0.941  0.00  0.00    +0.053 A 
ATOM      6  C   UNL     1      -2.085  -0.801  -1.430  0.00  0.00    +0.112 A 
ATOM      7  N   UNL     1      -2.595  -1.788  -2.204  0.00  0.00    -0.245 NA
ATOM      8  S   UNL     1      -3.190   0.532  -1.210  0.00  0.00    -0.074 S 
ATOM      9  C   UNL     1      -2.369   1.779  -0.372  0.00  0.00    +0.086 C 
ATOM     10  C   UNL     1      -1.193   2.026   0.031  0.00  0.00    +0.100 C 
ATOM     11  N   UNL     1      -0.033   1.292  -0.120  0.00  0.00    -0.241 N 
ATOM     12  C   UNL     1      -0.021  -0.081  -0.064  0.00  0.00    +0.138 C 
ATOM     13  N   UNL     1       0.860  -0.651   0.732  0.00  0.00    -0.247 NA
ATOM     14  C   UNL     1       1.786   0.193   1.505  0.00  0.00    +0.140 C 
ATOM     15  C   UNL     1       2.199   1.366   0.650  0.00  0.00    +0.010 A 
ATOM     16  C   UNL     1       1.216   1.923  -0.179  0.00  0.00    +0.047 A 
ATOM     17  C   UNL     1       1.506   3.006  -0.977  0.00  0.00    +0.024 A 
ATOM     18  C   UNL     1       2.786   3.536  -0.959  0.00  0.00    +0.002 A 
ATOM     19  C   UNL     1       3.758   2.981  -0.148  0.00  0.00    +0.000 A 
ATOM     20  C   UNL     1       3.465   1.892   0.659  0.00  0.00    +0.008 A 
ENDROOT
BRANCH  14  21
ATOM     21  C   UNL     1       1.097   0.691   2.749  0.00  0.00    -0.011 A 
ATOM     22  C   UNL     1       1.456   1.908   3.297  0.00  0.00    +0.006 A 
ATOM     23  C   UNL     1       0.821   2.368   4.436  0.00  0.00    +0.000 A 
ATOM     24  C   UNL     1      -0.166   1.605   5.032  0.00  0.00    +0.000 A 
ATOM     25  C   UNL     1      -0.521   0.385   4.487  0.00  0.00    +0.000 A 
ATOM     26  C   UNL     1       0.111  -0.072   3.346  0.00  0.00    +0.006 A 
ENDBRANCH  14  21
BRANCH  14  27
ATOM     27  C   UNL     1       3.002  -0.610   1.887  0.00  0.00    -0.011 A 
ATOM     28  C   UNL     1       3.362  -0.730   3.217  0.00  0.00    +0.006 A 
ATOM     29  C   UNL     1       4.475  -1.470   3.568  0.00  0.00    +0.000 A 
ATOM     30  C   UNL     1       5.234  -2.083   2.590  0.00  0.00    +0.000 A 
ATOM     31  C   UNL     1       4.878  -1.960   1.260  0.00  0.00    +0.000 A 
ATOM     32  C   UNL     1       3.762  -1.223   0.908  0.00  0.00    +0.006 A 
ENDBRANCH  14  27
BRANCH  10  33
ATOM     33  N   UNL     1      -1.049   3.223   0.739  0.00  0.00    -0.346 N 
ATOM     34  H   UNL     1      -0.179   3.482   1.081  0.00  0.00    +0.144 HD
ATOM     35  H   UNL     1      -1.819   3.795   0.887  0.00  0.00    +0.144 HD
ENDBRANCH  10  33
BRANCH   4  36
ATOM     36  C   UNL     1       1.318  -2.331  -0.790  0.00  0.00    +0.195 C 
BRANCH  36  37
ATOM     37  O   UNL     1       1.882  -3.499  -1.391  0.00  0.00    -0.378 OA
ATOM     38  C   UNL     1       3.221  -3.777  -0.977  0.00  0.00    +0.194 C 
ENDBRANCH  36  37
ENDBRANCH   4  36
TORSDOF 5
