REMARK  Name = ZINC45302310
REMARK  14 active torsions:
REMARK  status: ('A' for Active; 'I' for Inactive)
REMARK    1  A    between atoms: C_1  and  C_2
REMARK    2  A    between atoms: C_2  and  C_3
REMARK    3  A    between atoms: C_2  and  C_4
REMARK    4  A    between atoms: C_6  and  N_38
REMARK    5  A    between atoms: C_8  and  C_35
REMARK    6  A    between atoms: C_9  and  N_10
REMARK    7  A    between atoms: N_13  and  C_14
REMARK    8  A    between atoms: C_14  and  C_15
REMARK    9  A    between atoms: C_15  and  C_27
REMARK   10  A    between atoms: N_18  and  C_21
REMARK   11  A    between atoms: C_31  and  O_33
REMARK   12  A    between atoms: O_33  and  C_34
REMARK   13  A    between atoms: C_35  and  C_36
REMARK   14  A    between atoms: C_35  and  C_37
REMARK                            x       y       z     vdW  Elec       q    Type
REMARK                         _______ _______ _______ _____ _____    ______ ____
ROOT
ATOM      1  C   UNL     1      -1.452  -4.723  -6.669  0.00  0.00    +0.117 C 
ENDROOT
BRANCH   1   5
ATOM      2  N   UNL     1      -4.998  -3.978  -6.044  0.00  0.00    -0.269 N 
ATOM      3  C   UNL     1      -3.674  -4.141  -5.855  0.00  0.00    +0.304 C 
ATOM      4  O   UNL     1      -3.184  -3.921  -4.764  0.00  0.00    -0.253 OA
ATOM      5  N   UNL     1      -2.892  -4.547  -6.875  0.00  0.00    -0.298 N 
ATOM      6  H   UNL     1      -5.402  -4.232  -6.889  0.00  0.00    +0.156 HD
ATOM      7  H   UNL     1      -3.283  -4.722  -7.745  0.00  0.00    +0.150 HD
BRANCH   2  13
ATOM      8  C   UNL     1      -6.536  -2.293  -5.247  0.00  0.00    -0.022 A 
ATOM      9  C   UNL     1      -7.322  -1.769  -4.240  0.00  0.00    +0.028 A 
ATOM     10  C   UNL     1      -7.365  -2.390  -2.999  0.00  0.00    +0.025 A 
ATOM     11  C   UNL     1      -6.617  -3.538  -2.770  0.00  0.00    +0.028 A 
ATOM     12  C   UNL     1      -5.831  -4.061  -3.777  0.00  0.00    -0.022 A 
ATOM     13  C   UNL     1      -5.792  -3.443  -5.020  0.00  0.00    +0.042 A 
BRANCH   8  15
ATOM     14  C   UNL     1      -7.896  -1.586  -7.197  0.00  0.00    +0.012 C 
ATOM     15  C   UNL     1      -6.489  -1.620  -6.595  0.00  0.00    +0.015 C 
ATOM     16  C   UNL     1      -5.970  -0.190  -6.433  0.00  0.00    +0.012 C 
ENDBRANCH   8  15
BRANCH  12  17
ATOM     17  C   UNL     1      -5.019  -5.306  -3.529  0.00  0.00    +0.015 C 
ATOM     18  C   UNL     1      -4.560  -5.333  -2.070  0.00  0.00    +0.012 C 
ATOM     19  C   UNL     1      -5.877  -6.540  -3.817  0.00  0.00    +0.012 C 
ENDBRANCH  12  17
BRANCH  10  20
ATOM     20  N   UNL     1      -8.162  -1.859  -1.978  0.00  0.00    -0.358 N 
ATOM     21  H   UNL     1      -8.684  -1.057  -2.138  0.00  0.00    +0.142 HD
ATOM     22  H   UNL     1      -8.192  -2.292  -1.111  0.00  0.00    +0.142 HD
ENDBRANCH  10  20
ENDBRANCH   2  13
ENDBRANCH   1   5
BRANCH   1  23
ATOM     23  C   UNL     1      -0.824  -5.307  -7.936  0.00  0.00    +0.014 C 
ATOM     24  C   UNL     1       0.659  -5.589  -7.686  0.00  0.00    +0.032 C 
ATOM     25  C   UNL     1       0.799  -6.566  -6.514  0.00  0.00    +0.106 C 
ATOM     26  N   UNL     1      -0.004  -7.764  -6.799  0.00  0.00    -0.330 N 
ATOM     27  C   UNL     1      -1.423  -7.598  -7.141  0.00  0.00    +0.106 C 
ATOM     28  C   UNL     1      -1.538  -6.610  -8.306  0.00  0.00    +0.032 C 
BRANCH  26  29
ATOM     29  C   UNL     1       0.570  -9.031  -6.746  0.00  0.00    +0.032 A 
ATOM     30  C   UNL     1      -0.150 -10.159  -7.138  0.00  0.00    +0.040 A 
ATOM     31  C   UNL     1       0.455 -11.396  -7.071  0.00  0.00    +0.084 A 
ATOM     32  N   UNL     1       1.697 -11.520  -6.643  0.00  0.00    -0.367 N 
ATOM     33  C   UNL     1       2.411 -10.477  -6.263  0.00  0.00    +0.084 A 
ATOM     34  C   UNL     1       1.882  -9.204  -6.305  0.00  0.00    +0.040 A 
ATOM     35  H   UNL     1       2.097 -12.403  -6.606  0.00  0.00    +0.165 HD
ENDBRANCH  26  29
BRANCH  23  36
ATOM     36  C   UNL     1      -0.964  -4.321  -9.066  0.00  0.00    -0.036 A 
ATOM     37  C   UNL     1      -1.746  -4.632 -10.163  0.00  0.00    +0.004 A 
ATOM     38  C   UNL     1      -1.876  -3.729 -11.202  0.00  0.00    +0.004 A 
ATOM     39  C   UNL     1      -1.224  -2.512 -11.146  0.00  0.00    +0.045 A 
ATOM     40  C   UNL     1      -0.439  -2.197 -10.047  0.00  0.00    +0.120 A 
ATOM     41  C   UNL     1      -0.314  -3.103  -9.004  0.00  0.00    +0.050 A 
BRANCH  40  42
ATOM     42  O   UNL     1       0.204  -1.001  -9.991  0.00  0.00    -0.495 OA
ATOM     43  C   UNL     1       0.026  -0.116 -11.098  0.00  0.00    +0.277 C 
ENDBRANCH  40  42
ENDBRANCH  23  36
ENDBRANCH   1  23
TORSDOF 9
