REMARK  Name = ZINC23767207
REMARK  11 active torsions:
REMARK  status: ('A' for Active; 'I' for Inactive)
REMARK    1  A    between atoms: C_1  and  C_2
REMARK    2  A    between atoms: C_5  and  S_9
REMARK    3  A    between atoms: C_7  and  C_8
REMARK    4  A    between atoms: S_9  and  C_10
REMARK    5  A    between atoms: C_10  and  C_12
REMARK    6  A    between atoms: C_10  and  C_13
REMARK    7  A    between atoms: N_15  and  C_16
REMARK    8  A    between atoms: C_16  and  C_18
REMARK    9  A    between atoms: C_16  and  C_19
REMARK   10  A    between atoms: C_22  and  S_25
REMARK   11  A    between atoms: S_25  and  N_28
REMARK                            x       y       z     vdW  Elec       q    Type
REMARK                         _______ _______ _______ _____ _____    ______ ____
ROOT
ATOM      1  C   UNL     1       0.043  -0.582   2.383  0.00  0.00    +0.227 C 
ATOM      2  O   UNL     1      -1.122  -0.262   2.488  0.00  0.00    -0.275 OA
ATOM      3  N   UNL     1       0.679  -0.433   1.204  0.00  0.00    -0.308 N 
ATOM      4  H   UNL     1       1.736  -0.723   1.109  0.00  0.00    +0.149 HD
ENDROOT
BRANCH   1   5
ATOM      5  C   UNL     1       0.780  -1.145   3.571  0.00  0.00    +0.134 C 
ATOM      6  C   UNL     1       1.532  -0.020   4.285  0.00  0.00    +0.029 C 
BRANCH   5   7
ATOM      7  S   UNL     1      -0.406  -1.901   4.716  0.00  0.00    -0.113 S 
BRANCH   7  12
ATOM      8  C   UNL     1       3.067  -4.582   8.861  0.00  0.00    +0.044 C 
ATOM      9  C   UNL     1       2.200  -3.912   7.826  0.00  0.00    -0.047 A 
ATOM     10  C   UNL     1       1.704  -2.642   8.059  0.00  0.00    +0.005 A 
ATOM     11  C   UNL     1       0.908  -2.026   7.113  0.00  0.00    +0.015 A 
ATOM     12  C   UNL     1       0.608  -2.683   5.926  0.00  0.00    +0.009 A 
ATOM     13  C   UNL     1       1.104  -3.961   5.698  0.00  0.00    +0.018 A 
ATOM     14  C   UNL     1       1.903  -4.569   6.646  0.00  0.00    -0.046 A 
ATOM     15  C   UNL     1       2.446  -5.953   6.397  0.00  0.00    +0.044 C 
ENDBRANCH   7  12
ENDBRANCH   5   7
ENDBRANCH   1   5
BRANCH   3  16
ATOM     16  C   UNL     1      -0.037   0.114   0.049  0.00  0.00    +0.100 C 
ATOM     17  C   UNL     1       0.008   1.643   0.099  0.00  0.00    +0.033 C 
BRANCH  16  18
ATOM     18  C   UNL     1       0.616  -0.367  -1.221  0.00  0.00    -0.027 A 
ATOM     19  C   UNL     1       1.994  -0.434  -1.308  0.00  0.00    +0.007 A 
ATOM     20  C   UNL     1       2.592  -0.879  -2.471  0.00  0.00    +0.029 A 
ATOM     21  C   UNL     1       1.813  -1.248  -3.552  0.00  0.00    +0.105 A 
ATOM     22  C   UNL     1       0.435  -1.176  -3.467  0.00  0.00    +0.029 A 
ATOM     23  C   UNL     1      -0.164  -0.735  -2.302  0.00  0.00    +0.007 A 
BRANCH  21  24
ATOM     24  S   UNL     1       2.576  -1.809  -5.037  0.00  0.00    +0.056 S 
ATOM     25  O   UNL     1       3.859  -2.302  -4.674  0.00  0.00    -0.153 OA
ATOM     26  O   UNL     1       1.615  -2.610  -5.711  0.00  0.00    -0.153 OA
BRANCH  24  27
ATOM     27  N   UNL     1       2.833  -0.478  -5.989  0.00  0.00    -0.204 NA
ATOM     28  H   UNL     1       3.311  -0.787  -6.931  0.00  0.00    +0.144 HD
ATOM     29  H   UNL     1       3.489   0.229  -5.460  0.00  0.00    +0.144 HD
ENDBRANCH  24  27
ENDBRANCH  21  24
ENDBRANCH  16  18
ENDBRANCH   3  16
TORSDOF 7
