REMARK  Name = ZINC13206056
REMARK  9 active torsions:
REMARK  status: ('A' for Active; 'I' for Inactive)
REMARK    1  A    between atoms: C_1  and  C_2
REMARK    2  A    between atoms: C_5  and  C_8
REMARK    3  A    between atoms: C_11  and  S_16
REMARK    4  A    between atoms: N_12  and  C_13
REMARK    5  A    between atoms: C_13  and  C_14
REMARK    6  A    between atoms: S_16  and  C_17
REMARK    7  A    between atoms: C_17  and  C_19
REMARK    8  A    between atoms: C_17  and  C_20
REMARK    9  A    between atoms: N_25  and  C_26
REMARK                            x       y       z     vdW  Elec       q    Type
REMARK                         _______ _______ _______ _____ _____    ______ ____
ROOT
ATOM      1  C   UNL     1      -4.157  -0.019  -3.542  0.00  0.00    +0.137 C 
ATOM      2  C   UNL     1      -5.586   0.228  -3.054  0.00  0.00    +0.029 C 
ENDROOT
BRANCH   1   3
ATOM      3  C   UNL     1      -4.092   0.195  -5.032  0.00  0.00    +0.233 C 
ATOM      4  O   UNL     1      -3.663   1.239  -5.476  0.00  0.00    -0.274 OA
ATOM      5  N   UNL     1      -4.510  -0.773  -5.872  0.00  0.00    -0.239 N 
ATOM      6  C   UNL     1      -4.451  -0.581  -7.204  0.00  0.00    +0.306 C 
ATOM      7  O   UNL     1      -4.021   0.465  -7.649  0.00  0.00    -0.252 OA
ATOM      8  N   UNL     1      -4.869  -1.550  -8.044  0.00  0.00    -0.294 N 
ATOM      9  H   UNL     1      -4.853  -1.608  -5.516  0.00  0.00    +0.159 HD
ATOM     10  H   UNL     1      -5.212  -2.384  -7.688  0.00  0.00    +0.151 HD
BRANCH   8  11
ATOM     11  C   UNL     1      -4.805  -1.341  -9.492  0.00  0.00    +0.037 C 
ATOM     12  C   UNL     1      -5.659  -0.129  -9.871  0.00  0.00    +0.029 C 
ATOM     13  C   UNL     1      -5.592   0.088 -11.384  0.00  0.00    -0.008 C 
ATOM     14  C   UNL     1      -6.123  -1.154 -12.102  0.00  0.00    +0.007 C 
ATOM     15  C   UNL     1      -5.269  -2.366 -11.723  0.00  0.00    -0.008 C 
ATOM     16  C   UNL     1      -5.336  -2.584 -10.210  0.00  0.00    +0.029 C 
ATOM     17  C   UNL     1      -3.818  -2.118 -12.139  0.00  0.00    +0.007 C 
ATOM     18  C   UNL     1      -3.287  -0.875 -11.421  0.00  0.00    -0.008 C 
ATOM     19  C   UNL     1      -4.141   0.337 -11.800  0.00  0.00    +0.007 C 
ATOM     20  C   UNL     1      -3.354  -1.093  -9.908  0.00  0.00    +0.029 C 
ENDBRANCH   8  11
ENDBRANCH   1   3
BRANCH   1  21
ATOM     21  S   UNL     1      -3.030   1.132  -2.717  0.00  0.00    -0.073 S 
BRANCH  21  25
ATOM     22  C   UNL     1      -2.986   0.346   1.110  0.00  0.00    +0.165 A 
ATOM     23  N   UNL     1      -3.826  -0.547   0.642  0.00  0.00    -0.128 NA
ATOM     24  N   UNL     1      -3.944  -0.415  -0.630  0.00  0.00    -0.122 NA
ATOM     25  C   UNL     1      -3.189   0.575  -1.053  0.00  0.00    +0.193 A 
ATOM     26  N   UNL     1      -2.550   1.090   0.038  0.00  0.00    -0.291 N 
BRANCH  22  31
ATOM     27  C   UNL     1      -1.423   1.023   6.607  0.00  0.00    +0.044 C 
ATOM     28  C   UNL     1      -1.833   0.846   5.168  0.00  0.00    -0.050 A 
ATOM     29  C   UNL     1      -2.988   0.149   4.861  0.00  0.00    +0.004 A 
ATOM     30  C   UNL     1      -3.368  -0.017   3.545  0.00  0.00    +0.012 A 
ATOM     31  C   UNL     1      -2.585   0.520   2.522  0.00  0.00    +0.019 A 
ATOM     32  C   UNL     1      -1.418   1.217   2.838  0.00  0.00    +0.012 A 
ATOM     33  C   UNL     1      -1.051   1.381   4.159  0.00  0.00    +0.004 A 
ENDBRANCH  22  31
BRANCH  26  34
ATOM     34  C   UNL     1      -1.601   2.207   0.063  0.00  0.00    +0.250 C 
BRANCH  34  35
ATOM     35  C   UNL     1      -0.204   1.684  -0.149  0.00  0.00    +0.375 C 
ATOM     36  O   UNL     1      -0.019   0.500  -0.306  0.00  0.00    -0.244 OA
ATOM     37  O   UNL     1       0.835   2.534  -0.171  0.00  0.00    -0.244 OA
ENDBRANCH  34  35
ENDBRANCH  26  34
ENDBRANCH  21  25
ENDBRANCH   1  21
TORSDOF 7
