REMARK  Name = ZINC13137999
REMARK  8 active torsions:
REMARK  status: ('A' for Active; 'I' for Inactive)
REMARK    1  A    between atoms: C_1  and  C_2
REMARK    2  A    between atoms: C_2  and  C_3
REMARK    3  A    between atoms: C_3  and  C_23
REMARK    4  A    between atoms: N_6  and  C_10
REMARK    5  A    between atoms: C_10  and  C_11
REMARK    6  A    between atoms: N_13  and  C_14
REMARK    7  A    between atoms: C_17  and  C_21
REMARK    8  A    between atoms: C_23  and  C_24
REMARK                            x       y       z     vdW  Elec       q    Type
REMARK                         _______ _______ _______ _____ _____    ______ ____
ROOT
ATOM      1  C   UNL     1       6.036  -0.782  -0.566  0.00  0.00    +0.214 C 
ENDROOT
BRANCH   1   5
ATOM      2  C   UNL     1       8.541   1.336  -2.307  0.00  0.00    +0.112 C 
ATOM      3  C   UNL     1       7.399   0.339  -2.316  0.00  0.00    +0.247 C 
ATOM      4  O   UNL     1       6.869  -0.157  -3.287  0.00  0.00    -0.273 OA
ATOM      5  N   UNL     1       7.095   0.122  -1.022  0.00  0.00    -0.215 N 
ATOM      6  C   UNL     1       7.883   0.829  -0.204  0.00  0.00    +0.310 C 
ATOM      7  O   UNL     1       7.801   0.796   1.008  0.00  0.00    -0.252 OA
ATOM      8  N   UNL     1       8.775   1.581  -0.873  0.00  0.00    -0.285 N 
ATOM      9  H   UNL     1       9.442   2.170  -0.487  0.00  0.00    +0.151 HD
BRANCH   2  11
ATOM     10  C   UNL     1       6.936   3.250  -2.301  0.00  0.00    +0.006 C 
ATOM     11  C   UNL     1       8.138   2.630  -3.016  0.00  0.00    +0.032 C 
ENDBRANCH   2  11
BRANCH   2  12
ATOM     12  C   UNL     1       9.786   0.728  -2.958  0.00  0.00    +0.032 C 
ATOM     13  C   UNL     1      10.132  -0.591  -2.265  0.00  0.00    +0.006 C 
ENDBRANCH   2  12
ENDBRANCH   1   5
BRANCH   1  14
ATOM     14  C   UNL     1       4.742  -0.019  -0.442  0.00  0.00    +0.235 C 
ATOM     15  O   UNL     1       4.708   1.163  -0.709  0.00  0.00    -0.274 OA
ATOM     16  N   UNL     1       3.623  -0.651  -0.036  0.00  0.00    -0.282 N 
ATOM     17  H   UNL     1       3.665  -1.578   0.247  0.00  0.00    +0.155 HD
BRANCH  16  18
ATOM     18  C   UNL     1       2.401   0.030  -0.021  0.00  0.00    +0.062 A 
ATOM     19  C   UNL     1       1.591   0.033  -1.150  0.00  0.00    +0.040 A 
ATOM     20  C   UNL     1       0.385   0.707  -1.132  0.00  0.00    +0.020 A 
ATOM     21  C   UNL     1      -0.017   1.378   0.008  0.00  0.00    -0.048 A 
ATOM     22  C   UNL     1       0.786   1.377   1.134  0.00  0.00    +0.020 A 
ATOM     23  C   UNL     1       1.994   0.706   1.123  0.00  0.00    +0.040 A 
ATOM     24 BR   UNL     1       3.091   0.705   2.663  0.00  0.00    -0.048 Br
ATOM     25  C   UNL     1      -1.331   2.116   0.022  0.00  0.00    +0.044 C 
ATOM     26 BR   UNL     1       2.140  -0.884  -2.710  0.00  0.00    -0.048 Br
ENDBRANCH  16  18
ENDBRANCH   1  14
TORSDOF 5
