REMARK  Name = ZINC06575758
REMARK  6 active torsions:
REMARK  status: ('A' for Active; 'I' for Inactive)
REMARK    1  A    between atoms: C_4  and  C_7
REMARK    2  A    between atoms: C_10  and  N_19
REMARK    3  A    between atoms: N_19  and  C_20
REMARK    4  A    between atoms: C_20  and  N_22
REMARK    5  A    between atoms: N_22  and  N_23
REMARK    6  A    between atoms: C_24  and  C_26
REMARK                            x       y       z     vdW  Elec       q    Type
REMARK                         _______ _______ _______ _____ _____    ______ ____
ROOT
ATOM      1  C   UNL     1      -3.561   1.669  -0.341  0.00  0.00    +0.206 C 
ATOM      2  C   UNL     1      -3.677   2.970   0.463  0.00  0.00    +0.076 C 
ATOM      3  C   UNL     1      -2.543   3.904   0.034  0.00  0.00    +0.110 C 
ATOM      4  C   UNL     1      -1.237   3.150   0.034  0.00  0.00    +0.015 A 
ATOM      5  C   UNL     1      -0.053   3.868   0.043  0.00  0.00    +0.009 A 
ATOM      6  C   UNL     1       1.161   3.210   0.038  0.00  0.00    +0.001 A 
ATOM      7  C   UNL     1       1.198   1.828   0.022  0.00  0.00    +0.004 A 
ATOM      8  C   UNL     1       0.022   1.107   0.013  0.00  0.00    +0.046 A 
ATOM      9  C   UNL     1      -1.203   1.767   0.015  0.00  0.00    +0.126 A 
ATOM     10  O   UNL     1      -2.340   1.023   0.022  0.00  0.00    -0.484 OA
ENDROOT
BRANCH   1  14
ATOM     11  C   UNL     1      -6.866  -0.881   0.561  0.00  0.00    +0.000 A 
ATOM     12  C   UNL     1      -6.873  -0.124  -0.595  0.00  0.00    +0.000 A 
ATOM     13  C   UNL     1      -5.804   0.702  -0.887  0.00  0.00    +0.007 A 
ATOM     14  C   UNL     1      -4.727   0.769  -0.023  0.00  0.00    -0.007 A 
ATOM     15  C   UNL     1      -4.717   0.007   1.130  0.00  0.00    +0.007 A 
ATOM     16  C   UNL     1      -5.789  -0.814   1.425  0.00  0.00    +0.000 A 
ENDBRANCH   1  14
BRANCH   3  17
ATOM     17  N   UNL     1      -2.812   4.412  -1.313  0.00  0.00    -0.318 N 
ATOM     18  H   UNL     1      -2.319   3.954  -2.183  0.00  0.00    +0.148 HD
BRANCH  17  19
ATOM     19  C   UNL     1      -3.665   5.442  -1.487  0.00  0.00    +0.147 C 
ATOM     20  S   UNL     1      -4.327   6.244  -0.127  0.00  0.00    -0.017 S 
BRANCH  19  21
ATOM     21  N   UNL     1      -3.996   5.840  -2.731  0.00  0.00    -0.246 N 
ATOM     22  H   UNL     1      -4.692   6.680  -2.873  0.00  0.00    +0.172 HD
BRANCH  21  23
ATOM     23  N   UNL     1      -3.454   5.184  -3.844  0.00  0.00    -0.231 N 
ATOM     24  C   UNL     1      -3.786   5.582  -5.088  0.00  0.00    +0.260 C 
ATOM     25  O   UNL     1      -4.555   6.510  -5.245  0.00  0.00    -0.269 OA
ATOM     26  H   UNL     1      -2.759   4.343  -3.702  0.00  0.00    +0.173 HD
BRANCH  24  27
ATOM     27  C   UNL     1      -3.214   4.889  -6.263  0.00  0.00    +0.038 A 
ATOM     28  C   UNL     1      -2.327   3.826  -6.086  0.00  0.00    +0.013 A 
ATOM     29  C   UNL     1      -1.800   3.182  -7.186  0.00  0.00    +0.001 A 
ATOM     30  C   UNL     1      -2.143   3.593  -8.463  0.00  0.00    +0.000 A 
ATOM     31  C   UNL     1      -3.018   4.648  -8.644  0.00  0.00    +0.001 A 
ATOM     32  C   UNL     1      -3.555   5.299  -7.553  0.00  0.00    +0.013 A 
ENDBRANCH  24  27
ENDBRANCH  21  23
ENDBRANCH  19  21
ENDBRANCH  17  19
ENDBRANCH   3  17
TORSDOF 6
