REMARK  Name = ZINC46757757
REMARK  7 active torsions:
REMARK  status: ('A' for Active; 'I' for Inactive)
REMARK    1  A    between atoms: C_1  and  C_2
REMARK    2  A    between atoms: C_4  and  C_16
REMARK    3  A    between atoms: N_18  and  C_19
REMARK    4  A    between atoms: C_19  and  C_21
REMARK    5  A    between atoms: C_19  and  C_22
REMARK    6  A    between atoms: C_26  and  N_28
REMARK    7  A    between atoms: C_29  and  C_31
REMARK                            x       y       z     vdW  Elec       q    Type
REMARK                         _______ _______ _______ _____ _____    ______ ____
ROOT
ATOM      1  C   UNL     1       0.448  -3.063  -2.719  0.00  0.00    +0.247 C 
ATOM      2  O   UNL     1       0.587  -4.267  -2.818  0.00  0.00    -0.270 OA
ATOM      3  N   UNL     1       0.294  -2.309  -3.825  0.00  0.00    -0.305 N 
ATOM      4  H   UNL     1       0.184  -1.349  -3.745  0.00  0.00    +0.150 HD
ENDROOT
BRANCH   1   8
ATOM      5  C   UNL     1       0.129   1.002   0.169  0.00  0.00    +0.065 C 
ATOM      6  C   UNL     1       0.299  -0.488   0.021  0.00  0.00    +0.041 A 
ATOM      7  C   UNL     1       0.292  -1.047  -1.245  0.00  0.00    +0.038 A 
ATOM      8  C   UNL     1       0.449  -2.427  -1.385  0.00  0.00    +0.067 A 
ATOM      9  C   UNL     1       0.608  -3.194  -0.212  0.00  0.00    +0.120 A 
ATOM     10  C   UNL     1       0.601  -2.539   1.034  0.00  0.00    +0.161 A 
ATOM     11  N   UNL     1       0.455  -1.227   1.100  0.00  0.00    -0.233 NA
ATOM     12  N   UNL     1       0.770  -3.530   1.976  0.00  0.00    -0.312 N 
ATOM     13  C   UNL     1       0.881  -4.713   1.312  0.00  0.00    +0.112 A 
ATOM     14  N   UNL     1       0.780  -4.507   0.027  0.00  0.00    -0.230 NA
ATOM     15  C   UNL     1       1.099  -6.057   1.966  0.00  0.00    +0.074 C 
ATOM     16  C   UNL     1       0.131  -6.211   3.141  0.00  0.00    +0.008 C 
ATOM     17  C   UNL     1       0.766  -5.643   4.406  0.00  0.00    +0.002 C 
ATOM     18  C   UNL     1       1.657  -4.450   4.065  0.00  0.00    +0.022 C 
ATOM     19  C   UNL     1       0.813  -3.343   3.429  0.00  0.00    +0.125 C 
ENDBRANCH   1   8
BRANCH   3  20
ATOM     20  C   UNL     1       0.293  -2.940  -5.147  0.00  0.00    +0.100 C 
ATOM     21  C   UNL     1       1.734  -3.101  -5.636  0.00  0.00    +0.033 C 
BRANCH  20  22
ATOM     22  C   UNL     1      -0.472  -2.075  -6.115  0.00  0.00    -0.026 A 
ATOM     23  C   UNL     1      -0.334  -0.700  -6.072  0.00  0.00    +0.005 A 
ATOM     24  C   UNL     1      -1.034   0.097  -6.959  0.00  0.00    +0.002 A 
ATOM     25  C   UNL     1      -1.874  -0.479  -7.892  0.00  0.00    +0.023 A 
ATOM     26  C   UNL     1      -2.015  -1.859  -7.938  0.00  0.00    +0.034 A 
ATOM     27  C   UNL     1      -1.306  -2.658  -7.049  0.00  0.00    +0.028 A 
BRANCH  26  28
ATOM     28  N   UNL     1      -2.865  -2.446  -8.882  0.00  0.00    -0.281 N 
ATOM     29  C   UNL     1      -3.017  -1.880 -10.096  0.00  0.00    +0.248 C 
ATOM     30  O   UNL     1      -2.343  -0.916 -10.405  0.00  0.00    -0.270 OA
ATOM     31  H   UNL     1      -3.345  -3.259  -8.662  0.00  0.00    +0.155 HD
BRANCH  29  32
ATOM     32  C   UNL     1      -4.001  -2.431 -11.050  0.00  0.00    +0.037 A 
ATOM     33  C   UNL     1      -4.780  -3.534 -10.695  0.00  0.00    +0.013 A 
ATOM     34  C   UNL     1      -5.697  -4.044 -11.591  0.00  0.00    +0.001 A 
ATOM     35  C   UNL     1      -5.846  -3.465 -12.838  0.00  0.00    +0.000 A 
ATOM     36  C   UNL     1      -5.077  -2.371 -13.197  0.00  0.00    +0.001 A 
ATOM     37  C   UNL     1      -4.161  -1.848 -12.308  0.00  0.00    +0.013 A 
ENDBRANCH  29  32
ENDBRANCH  26  28
ENDBRANCH  20  22
ENDBRANCH   3  20
TORSDOF 5
