REMARK  Name = ZINC63503229
REMARK  12 active torsions:
REMARK  status: ('A' for Active; 'I' for Inactive)
REMARK    1  A    between atoms: C_1  and  C_2
REMARK    2  A    between atoms: C_9  and  C_12
REMARK    3  A    between atoms: C_15  and  N_18
REMARK    4  A    between atoms: C_19  and  C_21
REMARK    5  A    between atoms: C_21  and  C_23
REMARK    6  A    between atoms: C_21  and  N_33
REMARK    7  A    between atoms: C_23  and  C_24
REMARK    8  A    between atoms: C_34  and  O_36
REMARK    9  A    between atoms: O_36  and  C_37
REMARK   10  A    between atoms: C_37  and  C_38
REMARK   11  A    between atoms: C_38  and  C_39
REMARK   12  A    between atoms: C_38  and  C_40
REMARK                            x       y       z     vdW  Elec       q    Type
REMARK                         _______ _______ _______ _____ _____    ______ ____
ROOT
ATOM      1  N   UNL     1       4.553  -8.170   2.413  0.00  0.00    -0.284 N 
ATOM      2  C   UNL     1       4.809  -9.032   3.418  0.00  0.00    +0.238 C 
ATOM      3  O   UNL     1       3.925  -9.347   4.186  0.00  0.00    -0.273 OA
ATOM      4  H   UNL     1       5.239  -7.972   1.757  0.00  0.00    +0.155 HD
ENDROOT
BRANCH   1   8
ATOM      5  C   UNL     1       0.813  -6.356   2.129  0.00  0.00    -0.017 A 
ATOM      6  C   UNL     1       0.916  -7.657   2.587  0.00  0.00    +0.008 A 
ATOM      7  C   UNL     1       2.154  -8.261   2.682  0.00  0.00    +0.023 A 
ATOM      8  C   UNL     1       3.297  -7.561   2.317  0.00  0.00    +0.033 A 
ATOM      9  C   UNL     1       3.190  -6.255   1.858  0.00  0.00    +0.023 A 
ATOM     10  C   UNL     1       1.948  -5.658   1.760  0.00  0.00    +0.008 A 
BRANCH   5  19
ATOM     11  C   UNL     1      -5.975  -8.761   0.322  0.00  0.00    +0.044 C 
ATOM     12  C   UNL     1      -4.805  -8.127   1.030  0.00  0.00    -0.049 A 
ATOM     13  C   UNL     1      -4.709  -8.174   2.408  0.00  0.00    +0.005 A 
ATOM     14  C   UNL     1      -3.647  -7.600   3.067  0.00  0.00    +0.024 A 
ATOM     15  C   UNL     1      -2.621  -6.945   2.361  0.00  0.00    +0.042 A 
ATOM     16  C   UNL     1      -2.746  -6.916   0.969  0.00  0.00    +0.031 A 
ATOM     17  C   UNL     1      -3.805  -7.495   0.309  0.00  0.00    +0.020 A 
ATOM     18  S   UNL     1      -1.313  -6.033   0.393  0.00  0.00    -0.096 S 
ATOM     19  C   UNL     1      -0.539  -5.700   2.026  0.00  0.00    +0.164 C 
ATOM     20  N   UNL     1      -1.506  -6.334   2.933  0.00  0.00    -0.327 N 
ATOM     21  H   UNL     1      -1.373  -6.327   3.894  0.00  0.00    +0.147 HD
ENDBRANCH   5  19
ENDBRANCH   1   8
BRANCH   2  22
ATOM     22  C   UNL     1       6.193  -9.604   3.586  0.00  0.00    +0.166 C 
BRANCH  22  23
ATOM     23  N   UNL     1       6.212 -10.506   4.739  0.00  0.00    -0.270 N 
ATOM     24  C   UNL     1       7.066 -11.548   4.766  0.00  0.00    +0.401 C 
ATOM     25  O   UNL     1       7.821 -11.739   3.833  0.00  0.00    -0.226 OA
ATOM     26  H   UNL     1       5.610 -10.353   5.484  0.00  0.00    +0.153 HD
BRANCH  24  27
ATOM     27  O   UNL     1       7.084 -12.377   5.826  0.00  0.00    -0.450 OA
BRANCH  27  28
ATOM     28  C   UNL     1       8.015 -13.461   5.787  0.00  0.00    +0.236 C 
BRANCH  28  29
ATOM     29  C   UNL     1       7.889 -14.288   7.069  0.00  0.00    +0.021 C 
ATOM     30  C   UNL     1       6.507 -14.943   7.120  0.00  0.00    +0.010 C 
ATOM     31  C   UNL     1       8.968 -15.372   7.083  0.00  0.00    +0.010 C 
ENDBRANCH  28  29
ENDBRANCH  27  28
ENDBRANCH  24  27
ENDBRANCH  22  23
BRANCH  22  32
ATOM     32  C   UNL     1       7.191  -8.466   3.811  0.00  0.00    +0.065 C 
BRANCH  32  33
ATOM     33  C   UNL     1       6.858  -7.753   5.097  0.00  0.00    -0.039 C 
ATOM     34  C   UNL     1       7.389  -7.988   6.318  0.00  0.00    -0.001 A 
ATOM     35  C   UNL     1       8.396  -8.941   6.798  0.00  0.00    +0.010 A 
ATOM     36  C   UNL     1       8.730  -8.940   8.108  0.00  0.00    +0.001 A 
ATOM     37  C   UNL     1       8.139  -8.053   9.018  0.00  0.00    +0.002 A 
ATOM     38  C   UNL     1       7.205  -7.148   8.653  0.00  0.00    +0.026 A 
ATOM     39  C   UNL     1       6.780  -7.061   7.299  0.00  0.00    +0.043 A 
ATOM     40  N   UNL     1       5.906  -6.284   6.707  0.00  0.00    -0.380 N 
ATOM     41  C   UNL     1       5.866  -6.626   5.281  0.00  0.00    +0.144 C 
ATOM     42  H   UNL     1       5.377  -5.595   7.139  0.00  0.00    +0.160 HD
ENDBRANCH  32  33
ENDBRANCH  22  32
ENDBRANCH   2  22
TORSDOF 9
