REMARK  Name = ZINC36270867
REMARK  8 active torsions:
REMARK  status: ('A' for Active; 'I' for Inactive)
REMARK    1  A    between atoms: C_1  and  C_2
REMARK    2  A    between atoms: C_2  and  O_3
REMARK    3  A    between atoms: O_3  and  C_4
REMARK    4  A    between atoms: C_4  and  C_6
REMARK    5  A    between atoms: N_9  and  C_12
REMARK    6  A    between atoms: C_12  and  C_13
REMARK    7  A    between atoms: C_14  and  C_23
REMARK    8  A    between atoms: C_19  and  N_22
REMARK                            x       y       z     vdW  Elec       q    Type
REMARK                         _______ _______ _______ _____ _____    ______ ____
ROOT
ATOM      1  C   UNL     1      -5.719  -6.241   1.559  0.00  0.00    +0.035 A 
ATOM      2  C   UNL     1      -6.019  -7.156   0.594  0.00  0.00    +0.091 A 
ATOM      3  N   UNL     1      -6.073  -8.368   1.166  0.00  0.00    -0.228 NA
ATOM      4  C   UNL     1      -5.816  -8.248   2.462  0.00  0.00    +0.138 A 
ATOM      5  N   UNL     1      -5.586  -6.926   2.734  0.00  0.00    -0.303 N 
ATOM      6  C   UNL     1      -5.289  -6.521   4.006  0.00  0.00    +0.115 A 
ATOM      7  C   UNL     1      -5.216  -7.422   5.016  0.00  0.00    +0.041 A 
ATOM      8  C   UNL     1      -5.446  -8.789   4.762  0.00  0.00    +0.028 A 
ATOM      9  C   UNL     1      -5.749  -9.198   3.502  0.00  0.00    +0.048 A 
ENDROOT
BRANCH   2  10
ATOM     10  C   UNL     1      -6.247  -6.862  -0.843  0.00  0.00    +0.002 A 
ATOM     11  C   UNL     1      -5.689  -7.682  -1.821  0.00  0.00    +0.013 A 
ATOM     12  C   UNL     1      -5.904  -7.405  -3.155  0.00  0.00    +0.039 A 
ATOM     13  C   UNL     1      -6.673  -6.313  -3.523  0.00  0.00    +0.123 A 
ATOM     14  C   UNL     1      -7.229  -5.494  -2.554  0.00  0.00    +0.039 A 
ATOM     15  C   UNL     1      -7.024  -5.767  -1.217  0.00  0.00    +0.013 A 
ATOM     16  F   UNL     1      -6.882  -6.045  -4.831  0.00  0.00    -0.205 F 
ENDBRANCH   2  10
BRANCH   7  17
ATOM     17  N   UNL     1      -4.912  -6.993   6.315  0.00  0.00    -0.357 N 
ATOM     18  H   UNL     1      -4.753  -6.052   6.490  0.00  0.00    +0.142 HD
ATOM     19  H   UNL     1      -4.859  -7.637   7.038  0.00  0.00    +0.142 HD
ENDBRANCH   7  17
BRANCH   1  20
ATOM     20  C   UNL     1      -5.558  -4.755   1.365  0.00  0.00    -0.022 C 
BRANCH  20  24
ATOM     21  C   UNL     1      -1.881  -3.276  -0.200  0.00  0.00    +0.094 C 
ATOM     22  C   UNL     1      -2.478  -2.633   1.054  0.00  0.00    -0.004 C 
ATOM     23  C   UNL     1      -3.967  -2.977   1.137  0.00  0.00    -0.078 C 
ATOM     24  N   UNL     1      -4.133  -4.433   1.206  0.00  0.00    +0.383 N 
ATOM     25  C   UNL     1      -3.627  -5.051  -0.025  0.00  0.00    -0.078 C 
ATOM     26  C   UNL     1      -2.126  -4.787  -0.153  0.00  0.00    -0.004 C 
ATOM     27  H   UNL     1      -3.620  -4.793   1.997  0.00  0.00    -0.081 HD
BRANCH  21  28
ATOM     28  C   UNL     1      -0.399  -3.007  -0.248  0.00  0.00    +0.310 C 
ATOM     29  O   UNL     1       0.383  -3.929  -0.244  0.00  0.00    -0.251 OA
BRANCH  28  30
ATOM     30  O   UNL     1       0.053  -1.744  -0.294  0.00  0.00    -0.465 OA
BRANCH  30  32
ATOM     31  C   UNL     1       1.791  -0.068  -0.386  0.00  0.00    +0.048 C 
ATOM     32  C   UNL     1       1.470  -1.563  -0.337  0.00  0.00    +0.229 C 
ENDBRANCH  30  32
ENDBRANCH  28  30
ENDBRANCH  21  28
ENDBRANCH  20  24
ENDBRANCH   1  20
TORSDOF 7
