REMARK  Name = ZINC38152417
REMARK  14 active torsions:
REMARK  status: ('A' for Active; 'I' for Inactive)
REMARK    1  A    between atoms: C_1  and  C_2
REMARK    2  A    between atoms: C_2  and  C_3
REMARK    3  A    between atoms: C_2  and  C_4
REMARK    4  A    between atoms: C_2  and  O_5
REMARK    5  A    between atoms: O_5  and  C_6
REMARK    6  A    between atoms: N_17  and  C_19
REMARK    7  A    between atoms: C_19  and  C_20
REMARK    8  A    between atoms: C_20  and  C_21
REMARK    9  A    between atoms: C_21  and  C_23
REMARK   10  A    between atoms: C_21  and  C_35
REMARK   11  A    between atoms: C_23  and  N_24
REMARK   12  A    between atoms: N_24  and  C_25
REMARK   13  A    between atoms: N_24  and  S_26
REMARK   14  A    between atoms: S_26  and  C_29
REMARK                            x       y       z     vdW  Elec       q    Type
REMARK                         _______ _______ _______ _____ _____    ______ ____
ROOT
ATOM      1  C   UNL     1       8.122   2.512  -4.289  0.00  0.00    -0.009 C 
ENDROOT
BRANCH   1   2
ATOM      2  C   UNL     1       7.532   1.138  -4.612  0.00  0.00    -0.078 C 
BRANCH   2  12
ATOM      3  C   UNL     1       1.952  -0.085  -1.337  0.00  0.00    +0.404 C 
ATOM      4  O   UNL     1       2.488   0.619  -0.503  0.00  0.00    -0.226 OA
ATOM      5  N   UNL     1       2.641  -0.485  -2.424  0.00  0.00    -0.264 N 
ATOM      6  C   UNL     1       2.131  -1.335  -3.528  0.00  0.00    +0.111 C 
ATOM      7  C   UNL     1       3.249  -1.398  -4.606  0.00  0.00    +0.022 C 
ATOM      8  C   UNL     1       4.055  -0.130  -4.291  0.00  0.00    -0.006 C 
ATOM      9  C   UNL     1       4.020  -0.161  -2.741  0.00  0.00    +0.079 C 
ATOM     10  C   UNL     1       4.583   1.158  -2.257  0.00  0.00    +0.004 C 
ATOM     11  C   UNL     1       6.036   1.237  -2.757  0.00  0.00    -0.077 C 
ATOM     12  N   UNL     1       6.119   1.104  -4.211  0.00  0.00    +0.380 N 
ATOM     13  C   UNL     1       5.515  -0.151  -4.707  0.00  0.00    -0.074 C 
ATOM     14  H   UNL     1       5.642   1.884  -4.638  0.00  0.00    -0.082 HD
BRANCH   3  15
ATOM     15  O   UNL     1       0.671  -0.465  -1.174  0.00  0.00    -0.445 OA
BRANCH  15  17
ATOM     16  C   UNL     1      -0.019   1.526   0.010  0.00  0.00    +0.055 C 
ATOM     17  C   UNL     1       0.002  -0.004   0.002  0.00  0.00    +0.107 C 
ATOM     18  C   UNL     1       0.742  -0.511   1.242  0.00  0.00    +0.055 C 
ATOM     19  C   UNL     1      -1.433  -0.534   0.013  0.00  0.00    +0.055 C 
ENDBRANCH  15  17
ENDBRANCH   3  15
ENDBRANCH   2  12
ENDBRANCH   1   2
BRANCH   1  20
ATOM     20  C   UNL     1       9.593   2.547  -4.707  0.00  0.00    +0.033 C 
BRANCH  20  21
ATOM     21  C   UNL     1       9.694   2.411  -6.204  0.00  0.00    -0.043 A 
ATOM     22  C   UNL     1       9.097   3.349  -7.025  0.00  0.00    +0.004 A 
ATOM     23  C   UNL     1       9.190   3.225  -8.399  0.00  0.00    +0.000 A 
ATOM     24  C   UNL     1       9.880   2.162  -8.951  0.00  0.00    +0.000 A 
ATOM     25  C   UNL     1      10.477   1.224  -8.130  0.00  0.00    +0.000 A 
ATOM     26  C   UNL     1      10.389   1.351  -6.757  0.00  0.00    +0.004 A 
ENDBRANCH  20  21
BRANCH  20  27
ATOM     27  C   UNL     1      10.216   3.875  -4.272  0.00  0.00    +0.117 C 
BRANCH  27  28
ATOM     28  N   UNL     1      11.651   3.861  -4.564  0.00  0.00    -0.179 NA
ATOM     29  C   UNL     1      12.131   4.233  -5.897  0.00  0.00    +0.131 C 
BRANCH  28  30
ATOM     30  S   UNL     1      12.731   3.424  -3.387  0.00  0.00    +0.061 S 
ATOM     31  O   UNL     1      13.974   4.017  -3.736  0.00  0.00    -0.153 OA
ATOM     32  O   UNL     1      12.094   3.666  -2.140  0.00  0.00    -0.153 OA
BRANCH  30  33
ATOM     33  C   UNL     1      12.955   1.680  -3.507  0.00  0.00    +0.105 A 
ATOM     34  C   UNL     1      12.135   0.827  -2.792  0.00  0.00    +0.028 A 
ATOM     35  C   UNL     1      12.311  -0.541  -2.886  0.00  0.00    +0.002 A 
ATOM     36  C   UNL     1      13.306  -1.056  -3.696  0.00  0.00    +0.000 A 
ATOM     37  C   UNL     1      14.125  -0.203  -4.412  0.00  0.00    +0.002 A 
ATOM     38  C   UNL     1      13.946   1.165  -4.321  0.00  0.00    +0.028 A 
ENDBRANCH  30  33
ENDBRANCH  28  30
ENDBRANCH  27  28
ENDBRANCH  20  27
ENDBRANCH   1  20
TORSDOF 10
