REMARK  Name = ZINC63067335
REMARK  6 active torsions:
REMARK  status: ('A' for Active; 'I' for Inactive)
REMARK    1  A    between atoms: C_1  and  C_2
REMARK    2  A    between atoms: C_2  and  C_21
REMARK    3  A    between atoms: N_6  and  C_7
REMARK    4  A    between atoms: C_10  and  C_17
REMARK    5  A    between atoms: C_11  and  C_13
REMARK    6  A    between atoms: N_18  and  O_19
REMARK                            x       y       z     vdW  Elec       q    Type
REMARK                         _______ _______ _______ _____ _____    ______ ____
ROOT
ATOM      1  C   UNL     1       2.021  -0.329   1.528  0.00  0.00    +0.031 A 
ATOM      2  C   UNL     1       2.803   0.529   0.761  0.00  0.00    +0.024 A 
ATOM      3  C   UNL     1       4.124   0.736   1.089  0.00  0.00    +0.014 A 
ATOM      4  C   UNL     1       4.679   0.084   2.192  0.00  0.00    +0.029 A 
ATOM      5  C   UNL     1       3.892  -0.775   2.960  0.00  0.00    +0.067 A 
ATOM      6  C   UNL     1       2.569  -0.975   2.631  0.00  0.00    +0.036 A 
ENDROOT
BRANCH   1  12
ATOM      7  C   UNL     1      -0.023   1.586   0.179  0.00  0.00    +0.031 C 
ATOM      8  C   UNL     1      -0.016   0.061   0.048  0.00  0.00    +0.029 C 
ATOM      9  C   UNL     1      -1.463  -0.474   0.064  0.00  0.00    +0.027 C 
ATOM     10  C   UNL     1      -1.341  -1.782   0.890  0.00  0.00    +0.021 C 
ATOM     11  C   UNL     1      -0.263  -1.392   1.932  0.00  0.00    +0.106 C 
ATOM     12  N   UNL     1       0.684  -0.536   1.194  0.00  0.00    -0.325 N 
ATOM     13  C   UNL     1       0.677  -0.345  -1.254  0.00  0.00    +0.031 C 
ENDBRANCH   1  12
BRANCH   4  14
ATOM     14  C   UNL     1       6.098   0.304   2.546  0.00  0.00    +0.163 C 
ATOM     15  N   UNL     1       6.614  -0.304   3.575  0.00  0.00    -0.072 NA
ATOM     16  N   UNL     1       6.878   1.156   1.783  0.00  0.00    -0.340 N 
ATOM     17  H   UNL     1       6.494   1.609   1.016  0.00  0.00    +0.144 HD
ATOM     18  H   UNL     1       7.809   1.300   2.015  0.00  0.00    +0.144 HD
BRANCH  15  19
ATOM     19  O   UNL     1       7.973  -0.094   3.913  0.00  0.00    -0.408 OA
ATOM     20  H   UNL     1       8.265  -0.588   4.691  0.00  0.00    +0.328 HD
ENDBRANCH  15  19
ENDBRANCH   4  14
BRANCH   5  21
ATOM     21  C   UNL     1       4.487  -1.481   4.151  0.00  0.00    +0.418 C 
ATOM     22  F   UNL     1       3.511  -2.280   4.756  0.00  0.00    -0.166 F 
ATOM     23  F   UNL     1       5.554  -2.284   3.733  0.00  0.00    -0.166 F 
ATOM     24  F   UNL     1       4.950  -0.534   5.071  0.00  0.00    -0.166 F 
ENDBRANCH   5  21
TORSDOF 4
