REMARK  Name = ZINC23446803
REMARK  14 active torsions:
REMARK  status: ('A' for Active; 'I' for Inactive)
REMARK    1  A    between atoms: C_1  and  O_2
REMARK    2  A    between atoms: O_2  and  C_3
REMARK    3  A    between atoms: C_7  and  C_9
REMARK    4  A    between atoms: C_9  and  C_11
REMARK    5  A    between atoms: C_9  and  O_31
REMARK    6  A    between atoms: C_11  and  N_12
REMARK    7  A    between atoms: N_20  and  C_21
REMARK    8  A    between atoms: C_24  and  O_29
REMARK    9  A    between atoms: C_26  and  O_27
REMARK   10  A    between atoms: O_27  and  C_28
REMARK   11  A    between atoms: O_29  and  C_30
REMARK   12  A    between atoms: O_31  and  C_32
REMARK   13  A    between atoms: C_32  and  C_33
REMARK   14  A    between atoms: C_36  and  C_39
REMARK                            x       y       z     vdW  Elec       q    Type
REMARK                         _______ _______ _______ _____ _____    ______ ____
ROOT
ATOM      1  N   UNL     1      -0.558   7.534   1.517  0.00  0.00    +0.384 N 
ATOM      2  C   UNL     1       0.838   7.886   1.224  0.00  0.00    -0.059 C 
ATOM      3  C   UNL     1       0.925   9.379   0.890  0.00  0.00    +0.091 C 
ATOM      4  N   UNL     1       0.310  10.140   1.988  0.00  0.00    -0.289 N 
ATOM      5  C   UNL     1      -1.038   9.755   2.431  0.00  0.00    +0.091 C 
ATOM      6  C   UNL     1      -1.049   8.247   2.704  0.00  0.00    -0.059 C 
ATOM      7  C   UNL     1       0.964  11.164   2.572  0.00  0.00    +0.306 C 
ATOM      8  O   UNL     1       0.406  11.840   3.414  0.00  0.00    -0.252 OA
ATOM      9  N   UNL     1       2.236  11.437   2.222  0.00  0.00    -0.266 N 
ATOM     10  H   UNL     1       2.714  10.879   1.404  0.00  0.00    +0.156 HD
ATOM     11  H   UNL     1      -1.170   7.851   0.660  0.00  0.00    -0.082 HD
ENDROOT
BRANCH   9  12
ATOM     12  C   UNL     1       2.952  12.435   2.903  0.00  0.00    +0.077 A 
ATOM     13  C   UNL     1       2.523  12.870   4.148  0.00  0.00    +0.030 A 
ATOM     14  C   UNL     1       3.228  13.851   4.818  0.00  0.00    +0.047 A 
ATOM     15  C   UNL     1       4.365  14.404   4.247  0.00  0.00    +0.124 A 
ATOM     16  C   UNL     1       4.798  13.973   3.002  0.00  0.00    +0.093 A 
ATOM     17  C   UNL     1       4.096  12.985   2.331  0.00  0.00    +0.145 A 
BRANCH  17  18
ATOM     18  O   UNL     1       4.522  12.557   1.112  0.00  0.00    -0.493 OA
ATOM     19  C   UNL     1       5.703  13.166   0.587  0.00  0.00    +0.277 C 
ENDBRANCH  17  18
BRANCH  15  20
ATOM     20  O   UNL     1       5.057  15.370   4.910  0.00  0.00    -0.495 OA
ATOM     21  C   UNL     1       4.555  15.766   6.188  0.00  0.00    +0.277 C 
ENDBRANCH  15  20
ENDBRANCH   9  12
BRANCH   1  22
ATOM     22  C   UNL     1      -0.713   6.082   1.674  0.00  0.00    -0.042 C 
BRANCH  22  23
ATOM     23  C   UNL     1      -0.429   5.392   0.338  0.00  0.00    +0.132 C 
BRANCH  23  28
ATOM     24  C   UNL     1       0.369   1.743   0.910  0.00  0.00    +0.120 A 
ATOM     25  C   UNL     1      -0.886   1.165   0.791  0.00  0.00    +0.045 A 
ATOM     26  C   UNL     1      -1.986   1.956   0.520  0.00  0.00    +0.004 A 
ATOM     27  C   UNL     1      -1.838   3.324   0.379  0.00  0.00    +0.006 A 
ATOM     28  C   UNL     1      -0.588   3.902   0.498  0.00  0.00    -0.017 A 
ATOM     29  C   UNL     1       0.516   3.114   0.763  0.00  0.00    +0.051 A 
BRANCH  24  31
ATOM     30  C   UNL     1       1.228  -0.438   1.310  0.00  0.00    +0.277 C 
ATOM     31  O   UNL     1       1.454   0.966   1.171  0.00  0.00    -0.495 OA
ENDBRANCH  24  31
ENDBRANCH  23  28
BRANCH  23  32
ATOM     32  O   UNL     1      -1.348   5.865  -0.648  0.00  0.00    -0.369 OA
BRANCH  32  33
ATOM     33  C   UNL     1      -0.827   5.863  -1.978  0.00  0.00    +0.195 C 
BRANCH  33  34
ATOM     34  C   UNL     1      -1.875   6.379  -2.930  0.00  0.00    -0.022 A 
ATOM     35  C   UNL     1      -2.758   5.496  -3.527  0.00  0.00    +0.007 A 
ATOM     36  C   UNL     1      -3.723   5.962  -4.395  0.00  0.00    +0.019 A 
ATOM     37  C   UNL     1      -3.801   7.327  -4.680  0.00  0.00    +0.052 A 
ATOM     38  C   UNL     1      -2.903   8.211  -4.078  0.00  0.00    +0.019 A 
ATOM     39  C   UNL     1      -1.947   7.732  -3.208  0.00  0.00    +0.007 A 
BRANCH  37  40
ATOM     40  C   UNL     1      -4.797   7.817  -5.584  0.00  0.00    +0.099 C 
ATOM     41  N   UNL     1      -5.587   8.206  -6.302  0.00  0.00    -0.191 NA
ENDBRANCH  37  40
ENDBRANCH  33  34
ENDBRANCH  32  33
ENDBRANCH  23  32
ENDBRANCH  22  23
ENDBRANCH   1  22
TORSDOF 11
