REMARK  Name = ZINC12228924
REMARK  7 active torsions:
REMARK  status: ('A' for Active; 'I' for Inactive)
REMARK    1  A    between atoms: C_4  and  C_7
REMARK    2  A    between atoms: C_7  and  C_8
REMARK    3  A    between atoms: C_13  and  N_14
REMARK    4  A    between atoms: C_15  and  C_17
REMARK    5  A    between atoms: C_21  and  S_23
REMARK    6  A    between atoms: S_23  and  N_26
REMARK    7  A    between atoms: N_26  and  C_27
REMARK                            x       y       z     vdW  Elec       q    Type
REMARK                         _______ _______ _______ _____ _____    ______ ____
ROOT
ATOM      1  C   UNL     1      -2.634   1.456  -3.051  0.00  0.00    +0.039 A 
ATOM      2  C   UNL     1      -2.434   2.725  -3.599  0.00  0.00    +0.013 A 
ATOM      3  C   UNL     1      -1.511   3.580  -3.032  0.00  0.00    +0.003 A 
ATOM      4  C   UNL     1      -0.784   3.182  -1.924  0.00  0.00    +0.028 A 
ATOM      5  C   UNL     1      -0.977   1.926  -1.377  0.00  0.00    +0.106 A 
ATOM      6  C   UNL     1      -1.893   1.060  -1.937  0.00  0.00    +0.041 A 
ENDROOT
BRANCH   1   8
ATOM      7  N   UNL     1      -4.330   0.919  -4.733  0.00  0.00    -0.281 N 
ATOM      8  C   UNL     1      -3.620   0.535  -3.653  0.00  0.00    +0.248 C 
ATOM      9  O   UNL     1      -3.792  -0.569  -3.175  0.00  0.00    -0.270 OA
ATOM     10  H   UNL     1      -4.241   1.822  -5.075  0.00  0.00    +0.155 HD
BRANCH   7  16
ATOM     11  C   UNL     1      -5.366   0.058  -6.737  0.00  0.00    -0.022 A 
ATOM     12  C   UNL     1      -6.217  -0.839  -7.353  0.00  0.00    +0.006 A 
ATOM     13  C   UNL     1      -6.905  -1.772  -6.598  0.00  0.00    +0.000 A 
ATOM     14  C   UNL     1      -6.739  -1.813  -5.226  0.00  0.00    +0.002 A 
ATOM     15  C   UNL     1      -5.887  -0.922  -4.604  0.00  0.00    +0.023 A 
ATOM     16  C   UNL     1      -5.194   0.016  -5.359  0.00  0.00    +0.037 A 
BRANCH  11  17
ATOM     17  C   UNL     1      -4.622   1.078  -7.559  0.00  0.00    +0.072 C 
BRANCH  17  21
ATOM     18  C   UNL     1      -0.733  -0.416  -8.503  0.00  0.00    +0.000 A 
ATOM     19  C   UNL     1      -1.794  -0.666  -9.352  0.00  0.00    +0.000 A 
ATOM     20  C   UNL     1      -3.053  -0.183  -9.046  0.00  0.00    +0.004 A 
ATOM     21  C   UNL     1      -3.250   0.551  -7.892  0.00  0.00    -0.043 A 
ATOM     22  C   UNL     1      -2.187   0.806  -7.045  0.00  0.00    +0.004 A 
ATOM     23  C   UNL     1      -0.930   0.319  -7.348  0.00  0.00    +0.000 A 
ENDBRANCH  17  21
ENDBRANCH  11  17
ENDBRANCH   7  16
ENDBRANCH   1   8
BRANCH   5  24
ATOM     24  S   UNL     1      -0.045   1.429   0.034  0.00  0.00    +0.059 S 
ATOM     25  O   UNL     1      -0.019   0.009   0.024  0.00  0.00    -0.153 OA
ATOM     26  O   UNL     1       1.140   2.214   0.035  0.00  0.00    -0.153 OA
BRANCH  24  27
ATOM     27  N   UNL     1      -0.910   1.877   1.374  0.00  0.00    -0.185 NA
ATOM     28  H   UNL     1      -0.555   2.547   1.978  0.00  0.00    +0.148 HD
BRANCH  27  29
ATOM     29  C   UNL     1      -2.210   1.260   1.646  0.00  0.00    +0.099 C 
ATOM     30  C   UNL     1      -2.024   0.086   2.622  0.00  0.00    +0.044 C 
ATOM     31  C   UNL     1      -3.428  -0.346   3.134  0.00  0.00    +0.167 C 
ATOM     32  S   UNL     1      -4.218   1.301   3.377  0.00  0.00    -0.029 S 
ATOM     33  O   UNL     1      -4.012   1.719   4.719  0.00  0.00    -0.174 OA
ATOM     34  O   UNL     1      -5.538   1.263   2.851  0.00  0.00    -0.174 OA
ATOM     35  C   UNL     1      -3.159   2.314   2.265  0.00  0.00    +0.186 C 
ENDBRANCH  27  29
ENDBRANCH  24  27
ENDBRANCH   5  24
TORSDOF 7
