REMARK  Name = ZINC08833006
REMARK  7 active torsions:
REMARK  status: ('A' for Active; 'I' for Inactive)
REMARK    1  A    between atoms: C_3  and  N_27
REMARK    2  A    between atoms: C_4  and  N_24
REMARK    3  A    between atoms: C_6  and  C_7
REMARK    4  A    between atoms: N_9  and  C_10
REMARK    5  A    between atoms: C_10  and  N_12
REMARK    6  A    between atoms: N_12  and  C_13
REMARK    7  A    between atoms: C_18  and  C_19
REMARK                            x       y       z     vdW  Elec       q    Type
REMARK                         _______ _______ _______ _____ _____    ______ ____
ROOT
ATOM      1  C   UNL     1      -4.721   1.365  -0.273  0.00  0.00    +0.250 C 
ATOM      2  O   UNL     1      -4.709   0.149  -0.280  0.00  0.00    -0.270 OA
ATOM      3  N   UNL     1      -3.564   2.049  -0.173  0.00  0.00    -0.264 N 
ATOM      4  H   UNL     1      -3.573   3.019  -0.168  0.00  0.00    +0.157 HD
ENDROOT
BRANCH   1  10
ATOM      5  C   UNL     1      -6.015   3.489  -0.361  0.00  0.00    +0.015 A 
ATOM      6  C   UNL     1      -7.212   4.161  -0.460  0.00  0.00    +0.026 A 
ATOM      7  C   UNL     1      -8.403   3.447  -0.563  0.00  0.00    +0.060 A 
ATOM      8  C   UNL     1      -8.386   2.055  -0.571  0.00  0.00    +0.148 A 
ATOM      9  C   UNL     1      -7.201   1.382  -0.478  0.00  0.00    +0.047 A 
ATOM     10  C   UNL     1      -6.000   2.091  -0.374  0.00  0.00    +0.039 A 
BRANCH   7  11
ATOM     11  N   UNL     1      -9.613   4.127  -0.658  0.00  0.00    -0.328 N 
ATOM     12  C   UNL     1      -9.679   4.913  -1.896  0.00  0.00    +0.105 C 
ATOM     13  C   UNL     1     -11.073   5.528  -2.038  0.00  0.00    +0.019 C 
ATOM     14  C   UNL     1     -11.356   6.422  -0.828  0.00  0.00    +0.003 C 
ATOM     15  C   UNL     1     -11.234   5.590   0.452  0.00  0.00    +0.019 C 
ATOM     16  C   UNL     1      -9.835   4.973   0.521  0.00  0.00    +0.105 C 
ENDBRANCH   7  11
BRANCH   8  17
ATOM     17  N   UNL     1      -9.656   1.302  -0.681  0.00  0.00    +0.058 N 
ATOM     18  O   UNL     1      -9.643   0.084  -0.688  0.00  0.00    -0.126 OA
ATOM     19  O   UNL     1     -10.713   1.900  -0.764  0.00  0.00    -0.126 OA
ENDBRANCH   8  17
ENDBRANCH   1  10
BRANCH   3  20
ATOM     20  C   UNL     1      -2.394   1.385  -0.081  0.00  0.00    +0.141 C 
ATOM     21  S   UNL     1      -2.378  -0.327  -0.090  0.00  0.00    -0.018 S 
BRANCH  20  22
ATOM     22  N   UNL     1      -1.237   2.069   0.019  0.00  0.00    -0.296 N 
ATOM     23  H   UNL     1      -1.250   3.037   0.088  0.00  0.00    +0.154 HD
BRANCH  22  24
ATOM     24  C   UNL     1      -0.017   1.384   0.024  0.00  0.00    +0.044 A 
ATOM     25  C   UNL     1       0.153   0.273   0.840  0.00  0.00    +0.025 A 
ATOM     26  C   UNL     1       1.356  -0.405   0.839  0.00  0.00    +0.022 A 
ATOM     27  C   UNL     1       2.391   0.021   0.025  0.00  0.00    +0.042 A 
ATOM     28  C   UNL     1       2.224   1.127  -0.790  0.00  0.00    +0.034 A 
ATOM     29  C   UNL     1       1.023   1.809  -0.792  0.00  0.00    +0.077 A 
ATOM     30 CL   UNL     1       3.902  -0.834   0.025  0.00  0.00    -0.084 Cl
BRANCH  29  31
ATOM     31  C   UNL     1       0.841   3.013  -1.679  0.00  0.00    +0.419 C 
ATOM     32  F   UNL     1       2.018   3.244  -2.400  0.00  0.00    -0.166 F 
ATOM     33  F   UNL     1      -0.213   2.782  -2.569  0.00  0.00    -0.166 F 
ATOM     34  F   UNL     1       0.549   4.133  -0.892  0.00  0.00    -0.166 F 
ENDBRANCH  29  31
ENDBRANCH  22  24
ENDBRANCH  20  22
ENDBRANCH   3  20
TORSDOF 7
