REMARK  Name = ZINC59640560
REMARK  7 active torsions:
REMARK  status: ('A' for Active; 'I' for Inactive)
REMARK    1  A    between atoms: C_1  and  C_2
REMARK    2  A    between atoms: C_4  and  C_17
REMARK    3  A    between atoms: C_5  and  C_16
REMARK    4  A    between atoms: N_6  and  C_7
REMARK    5  A    between atoms: N_18  and  N_19
REMARK    6  A    between atoms: C_24  and  N_26
REMARK    7  A    between atoms: N_26  and  C_27
REMARK                            x       y       z     vdW  Elec       q    Type
REMARK                         _______ _______ _______ _____ _____    ______ ____
ROOT
ATOM      1  C   UNL     1      -0.018   1.503   0.010  0.00  0.00    +0.064 C 
ATOM      2  C   UNL     1       0.002  -0.004   0.002  0.00  0.00    +0.022 A 
ATOM      3  C   UNL     1       0.008  -0.781  -1.097  0.00  0.00    +0.032 A 
ATOM      4  C   UNL     1       0.029  -2.170  -0.629  0.00  0.00    +0.016 A 
ATOM      5  C   UNL     1       0.034  -2.113   0.735  0.00  0.00    +0.030 A 
ATOM      6  N   UNL     1       0.023  -0.804   1.108  0.00  0.00    -0.317 N 
ATOM      7  C   UNL     1       0.053  -3.297   1.668  0.00  0.00    +0.064 C 
ENDROOT
BRANCH   6   8
ATOM      8  C   UNL     1       0.030  -0.344   2.433  0.00  0.00    +0.050 A 
ATOM      9  C   UNL     1       1.133  -0.577   3.243  0.00  0.00    +0.030 A 
ATOM     10  C   UNL     1       1.141  -0.125   4.549  0.00  0.00    +0.051 A 
ATOM     11  C   UNL     1       0.049   0.562   5.053  0.00  0.00    +0.166 A 
ATOM     12  C   UNL     1      -1.060   0.797   4.243  0.00  0.00    +0.168 A 
ATOM     13  C   UNL     1      -1.065   0.347   2.933  0.00  0.00    +0.075 A 
ATOM     14  O   UNL     1      -1.992   1.484   4.966  0.00  0.00    -0.453 OA
ATOM     15  C   UNL     1      -1.613   1.311   6.345  0.00  0.00    +0.466 C 
ATOM     16  O   UNL     1      -0.189   1.103   6.285  0.00  0.00    -0.453 OA
ENDBRANCH   6   8
BRANCH   4  17
ATOM     17  C   UNL     1       0.041  -3.385  -1.464  0.00  0.00    +0.140 C 
ATOM     18  N   UNL     1       0.059  -4.556  -0.906  0.00  0.00    -0.187 NA
BRANCH  18  19
ATOM     19  N   UNL     1       0.071  -5.711  -1.699  0.00  0.00    -0.205 N 
ATOM     20  C   UNL     1       0.090  -6.960  -1.103  0.00  0.00    +0.237 A 
ATOM     21  N   UNL     1       0.091  -7.045   0.219  0.00  0.00    -0.219 NA
ATOM     22  C   UNL     1       0.109  -8.223   0.827  0.00  0.00    +0.156 A 
ATOM     23  C   UNL     1       0.127  -9.376   0.064  0.00  0.00    +0.181 A 
ATOM     24  C   UNL     1       0.124  -9.255  -1.329  0.00  0.00    +0.159 A 
ATOM     25  N   UNL     1       0.101  -8.041  -1.870  0.00  0.00    -0.195 NA
ATOM     26  F   UNL     1       0.145 -10.593   0.652  0.00  0.00    -0.200 F 
ATOM     27  H   UNL     1       0.066  -5.635  -2.666  0.00  0.00    +0.177 HD
BRANCH  24  28
ATOM     28  N   UNL     1       0.141 -10.384  -2.134  0.00  0.00    -0.330 N 
ATOM     29  C   UNL     1       0.139 -10.244  -3.592  0.00  0.00    +0.127 C 
ATOM     30  H   UNL     1       0.155 -11.266  -1.731  0.00  0.00    +0.147 HD
ENDBRANCH  24  28
ENDBRANCH  18  19
ENDBRANCH   4  17
TORSDOF 4
