REMARK  Name = ZINC49512352
REMARK  8 active torsions:
REMARK  status: ('A' for Active; 'I' for Inactive)
REMARK    1  A    between atoms: C_1  and  C_2
REMARK    2  A    between atoms: C_4  and  C_8
REMARK    3  A    between atoms: C_5  and  C_7
REMARK    4  A    between atoms: C_8  and  C_10
REMARK    5  A    between atoms: C_8  and  N_11
REMARK    6  A    between atoms: N_11  and  S_12
REMARK    7  A    between atoms: S_12  and  C_15
REMARK    8  A    between atoms: N_21  and  N_22
REMARK                            x       y       z     vdW  Elec       q    Type
REMARK                         _______ _______ _______ _____ _____    ______ ____
ROOT
ATOM      1  S   UNL     1      -4.155  -3.507  -1.492  0.00  0.00    +0.060 S 
ATOM      2  O   UNL     1      -5.212  -2.639  -1.878  0.00  0.00    -0.153 OA
ATOM      3  O   UNL     1      -3.365  -4.213  -2.439  0.00  0.00    -0.153 OA
ENDROOT
BRANCH   1   4
ATOM      4  C   UNL     1      -4.862  -4.718  -0.424  0.00  0.00    +0.123 A 
ATOM      5  C   UNL     1      -4.251  -5.955  -0.265  0.00  0.00    +0.033 A 
ATOM      6  C   UNL     1      -4.838  -6.876   0.582  0.00  0.00    +0.046 A 
ATOM      7  C   UNL     1      -6.014  -6.535   1.243  0.00  0.00    +0.132 A 
ATOM      8  N   UNL     1      -6.566  -5.345   1.065  0.00  0.00    -0.237 NA
ATOM      9  C   UNL     1      -6.025  -4.444   0.267  0.00  0.00    +0.141 A 
ATOM     10  N   UNL     1      -6.615  -7.452   2.097  0.00  0.00    -0.268 N 
ATOM     11  H   UNL     1      -6.215  -8.325   2.231  0.00  0.00    +0.167 HD
BRANCH  10  12
ATOM     12  N   UNL     1      -7.770  -7.123   2.749  0.00  0.00    -0.255 NA
ATOM     13  H   UNL     1      -8.086  -7.885   3.331  0.00  0.00    +0.140 HD
ATOM     14  H   UNL     1      -7.652  -6.280   3.290  0.00  0.00    +0.140 HD
ENDBRANCH  10  12
ENDBRANCH   1   4
BRANCH   1  15
ATOM     15  N   UNL     1      -3.108  -2.603  -0.582  0.00  0.00    -0.183 NA
ATOM     16  H   UNL     1      -3.287  -1.662  -0.430  0.00  0.00    +0.149 HD
BRANCH  15  17
ATOM     17  C   UNL     1      -1.912  -3.224  -0.008  0.00  0.00    +0.104 C 
ATOM     18  C   UNL     1      -2.206  -3.663   1.428  0.00  0.00    +0.031 C 
BRANCH  17  22
ATOM     19  C   UNL     1      -0.018   1.503   0.010  0.00  0.00    +0.051 C 
ATOM     20  C   UNL     1       0.002  -0.004   0.002  0.00  0.00    -0.013 A 
ATOM     21  C   UNL     1      -1.039  -0.872   0.002  0.00  0.00    +0.016 A 
ATOM     22  C   UNL     1      -0.780  -2.230  -0.007  0.00  0.00    -0.019 A 
ATOM     23  C   UNL     1       0.507  -2.653  -0.016  0.00  0.00    -0.008 A 
ATOM     24  S   UNL     1       1.404  -1.109  -0.018  0.00  0.00    -0.098 S 
ATOM     25  C   UNL     1       1.043  -4.062  -0.027  0.00  0.00    +0.052 C 
ENDBRANCH  17  22
ENDBRANCH  15  17
ENDBRANCH   1  15
TORSDOF 5
