REMARK  Name = ZINC20806539
REMARK  6 active torsions:
REMARK  status: ('A' for Active; 'I' for Inactive)
REMARK    1  A    between atoms: C_4  and  C_7
REMARK    2  A    between atoms: N_16  and  C_28
REMARK    3  A    between atoms: C_17  and  N_27
REMARK    4  A    between atoms: C_18  and  C_19
REMARK    5  A    between atoms: C_19  and  C_21
REMARK    6  A    between atoms: C_31  and  N_34
REMARK                            x       y       z     vdW  Elec       q    Type
REMARK                         _______ _______ _______ _____ _____    ______ ____
ROOT
ATOM      1  C   UNL     1      -1.489   3.915  -0.112  0.00  0.00    +0.091 C 
ATOM      2  C   UNL     1      -0.335   4.577   0.598  0.00  0.00    +0.024 C 
ATOM      3  C   UNL     1       0.874   3.980   0.667  0.00  0.00    +0.024 C 
ATOM      4  C   UNL     1       2.035   4.656   1.354  0.00  0.00    +0.052 C 
ATOM      5  C   UNL     1       1.516   5.532   2.497  0.00  0.00    +0.014 C 
ATOM      6  C   UNL     1       0.541   6.560   1.916  0.00  0.00    +0.080 C 
ATOM      7  C   UNL     1      -0.555   5.837   1.183  0.00  0.00    +0.162 C 
ATOM      8  O   UNL     1      -1.653   6.350   1.095  0.00  0.00    -0.292 OA
ATOM      9  N   UNL     1       1.079   2.744   0.110  0.00  0.00    -0.261 N 
ATOM     10  C   UNL     1       0.018   1.920  -0.173  0.00  0.00    +0.100 C 
ATOM     11  C   UNL     1      -1.246   2.445  -0.292  0.00  0.00    +0.048 C 
ENDROOT
BRANCH   1  15
ATOM     12  C   UNL     1      -1.991   5.718  -3.952  0.00  0.00    +0.000 A 
ATOM     13  C   UNL     1      -3.001   5.801  -3.012  0.00  0.00    +0.000 A 
ATOM     14  C   UNL     1      -2.839   5.218  -1.769  0.00  0.00    +0.004 A 
ATOM     15  C   UNL     1      -1.666   4.551  -1.466  0.00  0.00    -0.035 A 
ATOM     16  C   UNL     1      -0.654   4.472  -2.405  0.00  0.00    +0.004 A 
ATOM     17  C   UNL     1      -0.818   5.052  -3.649  0.00  0.00    +0.000 A 
ENDBRANCH   1  15
BRANCH   9  18
ATOM     18  C   UNL     1       2.383   2.320  -0.173  0.00  0.00    +0.040 A 
ATOM     19  C   UNL     1       2.968   1.316   0.587  0.00  0.00    +0.026 A 
ATOM     20  C   UNL     1       4.253   0.896   0.302  0.00  0.00    +0.034 A 
ATOM     21  C   UNL     1       4.960   1.481  -0.733  0.00  0.00    +0.126 A 
ATOM     22  C   UNL     1       4.381   2.484  -1.489  0.00  0.00    +0.034 A 
ATOM     23  C   UNL     1       3.095   2.905  -1.212  0.00  0.00    +0.026 A 
BRANCH  21  24
ATOM     24  N   UNL     1       6.338   1.032  -1.031  0.00  0.00    +0.056 N 
ATOM     25  O   UNL     1       6.962   1.546  -1.942  0.00  0.00    -0.126 OA
ATOM     26  O   UNL     1       6.849   0.149  -0.366  0.00  0.00    -0.126 OA
ENDBRANCH  21  24
ENDBRANCH   9  18
BRANCH  10  27
ATOM     27  N   UNL     1       0.221   0.575  -0.343  0.00  0.00    -0.346 N 
ATOM     28  H   UNL     1      -0.629  -0.085  -0.570  0.00  0.00    +0.143 HD
ATOM     29  H   UNL     1       1.234   0.156  -0.252  0.00  0.00    +0.143 HD
ENDBRANCH  10  27
BRANCH  11  30
ATOM     30  C   UNL     1      -2.324   1.596  -0.580  0.00  0.00    +0.193 C 
ATOM     31  O   UNL     1      -2.380   1.026  -1.657  0.00  0.00    -0.287 OA
BRANCH  30  32
ATOM     32  C   UNL     1      -3.394   1.392   0.422  0.00  0.00    +0.022 A 
ATOM     33  C   UNL     1      -3.273   1.943   1.698  0.00  0.00    +0.012 A 
ATOM     34  C   UNL     1      -4.277   1.754   2.626  0.00  0.00    +0.001 A 
ATOM     35  C   UNL     1      -5.396   1.010   2.297  0.00  0.00    +0.000 A 
ATOM     36  C   UNL     1      -5.519   0.456   1.036  0.00  0.00    +0.001 A 
ATOM     37  C   UNL     1      -4.525   0.643   0.097  0.00  0.00    +0.012 A 
ENDBRANCH  30  32
ENDBRANCH  11  30
TORSDOF 6
