REMARK  Name = ZINC12932265
REMARK  7 active torsions:
REMARK  status: ('A' for Active; 'I' for Inactive)
REMARK    1  A    between atoms: C_4  and  O_7
REMARK    2  A    between atoms: O_7  and  C_8
REMARK    3  A    between atoms: C_11  and  N_14
REMARK    4  A    between atoms: C_15  and  C_17
REMARK    5  A    between atoms: C_19  and  S_24
REMARK    6  A    between atoms: S_24  and  N_27
REMARK    7  A    between atoms: N_27  and  C_28
REMARK                            x       y       z     vdW  Elec       q    Type
REMARK                         _______ _______ _______ _____ _____    ______ ____
ROOT
ATOM      1  N   UNL     1      -0.835  -0.812  -0.233  0.00  0.00    -0.281 N 
ATOM      2  C   UNL     1      -0.619  -2.131  -0.407  0.00  0.00    +0.249 C 
ATOM      3  O   UNL     1       0.511  -2.543  -0.587  0.00  0.00    -0.270 OA
ATOM      4  H   UNL     1      -1.742  -0.474  -0.167  0.00  0.00    +0.155 HD
ENDROOT
BRANCH   2   5
ATOM      5  C   UNL     1      -1.754  -3.076  -0.379  0.00  0.00    +0.053 A 
ATOM      6  C   UNL     1      -3.053  -2.606  -0.172  0.00  0.00    +0.042 A 
ATOM      7  C   UNL     1      -4.108  -3.494  -0.148  0.00  0.00    +0.106 A 
ATOM      8  C   UNL     1      -3.883  -4.848  -0.328  0.00  0.00    +0.029 A 
ATOM      9  C   UNL     1      -2.599  -5.321  -0.533  0.00  0.00    +0.018 A 
ATOM     10  C   UNL     1      -1.534  -4.443  -0.565  0.00  0.00    +0.030 A 
ATOM     11 BR   UNL     1       0.220  -5.090  -0.852  0.00  0.00    -0.050 Br
BRANCH   7  12
ATOM     12  S   UNL     1      -5.747  -2.903   0.112  0.00  0.00    +0.059 S 
ATOM     13  O   UNL     1      -6.494  -3.993   0.635  0.00  0.00    -0.153 OA
ATOM     14  O   UNL     1      -5.628  -1.663   0.796  0.00  0.00    -0.153 OA
BRANCH  12  15
ATOM     15  N   UNL     1      -6.387  -2.562  -1.377  0.00  0.00    -0.187 NA
ATOM     16  H   UNL     1      -6.613  -1.648  -1.610  0.00  0.00    +0.148 HD
BRANCH  15  17
ATOM     17  C   UNL     1      -6.612  -3.641  -2.342  0.00  0.00    +0.077 C 
ATOM     18  C   UNL     1      -6.432  -3.311  -3.825  0.00  0.00    +0.022 C 
ATOM     19  C   UNL     1      -7.835  -3.530  -3.254  0.00  0.00    +0.022 C 
ENDBRANCH  15  17
ENDBRANCH  12  15
ENDBRANCH   7  12
ENDBRANCH   2   5
BRANCH   1  23
ATOM     20  C   UNL     1       2.392   1.815   0.026  0.00  0.00    +0.129 A 
ATOM     21  C   UNL     1       1.214   2.221  -0.585  0.00  0.00    +0.048 A 
ATOM     22  C   UNL     1       0.145   1.352  -0.671  0.00  0.00    +0.027 A 
ATOM     23  C   UNL     1       0.249   0.070  -0.146  0.00  0.00    +0.034 A 
ATOM     24  C   UNL     1       1.428  -0.336   0.465  0.00  0.00    +0.027 A 
ATOM     25  C   UNL     1       2.496   0.534   0.551  0.00  0.00    +0.048 A 
BRANCH  20  26
ATOM     26  O   UNL     1       3.444   2.672   0.111  0.00  0.00    -0.456 OA
BRANCH  26  30
ATOM     27  C   UNL     1       6.643   2.068  -2.423  0.00  0.00    +0.000 A 
ATOM     28  C   UNL     1       6.708   3.050  -1.451  0.00  0.00    +0.004 A 
ATOM     29  C   UNL     1       5.638   3.254  -0.602  0.00  0.00    +0.046 A 
ATOM     30  C   UNL     1       4.498   2.473  -0.724  0.00  0.00    +0.128 A 
ATOM     31  C   UNL     1       4.438   1.484  -1.696  0.00  0.00    +0.046 A 
ATOM     32  C   UNL     1       5.508   1.288  -2.547  0.00  0.00    +0.004 A 
ENDBRANCH  26  30
ENDBRANCH  20  26
ENDBRANCH   1  23
TORSDOF 7
