REMARK  Name = ZINC21882287
REMARK  4 active torsions:
REMARK  status: ('A' for Active; 'I' for Inactive)
REMARK    1  A    between atoms: N_10  and  C_13
REMARK    2  A    between atoms: C_16  and  C_29
REMARK    3  A    between atoms: C_18  and  N_19
REMARK    4  A    between atoms: C_20  and  C_22
REMARK                            x       y       z     vdW  Elec       q    Type
REMARK                         _______ _______ _______ _____ _____    ______ ____
ROOT
ATOM      1  C   UNL     1       0.015  -0.015   0.009  0.00  0.00    +0.051 A 
ATOM      2  C   UNL     1       0.623  -0.700  -1.037  0.00  0.00    +0.026 A 
ATOM      3  C   UNL     1       0.643  -2.077  -1.042  0.00  0.00    +0.017 A 
ATOM      4  C   UNL     1       0.053  -2.790   0.006  0.00  0.00    +0.065 A 
ATOM      5  C   UNL     1      -0.559  -2.103   1.059  0.00  0.00    +0.040 A 
ATOM      6  C   UNL     1      -0.573  -0.721   1.063  0.00  0.00    +0.056 A 
ENDROOT
BRANCH   1  16
ATOM      7  C   UNL     1      -0.190   7.420  -2.038  0.00  0.00    +0.005 A 
ATOM      8  C   UNL     1       0.487   8.078  -1.020  0.00  0.00    +0.018 A 
ATOM      9  C   UNL     1       1.146   7.339  -0.059  0.00  0.00    +0.084 A 
ATOM     10  N   UNL     1       1.135   6.020  -0.093  0.00  0.00    -0.350 N 
ATOM     11  C   UNL     1       0.505   5.356  -1.050  0.00  0.00    +0.099 A 
ATOM     12  C   UNL     1      -0.180   6.037  -2.051  0.00  0.00    +0.042 A 
ATOM     13  N   UNL     1       0.524   3.966  -1.051  0.00  0.00    -0.314 N 
ATOM     14  C   UNL     1       1.298   3.449   0.086  0.00  0.00    +0.125 C 
ATOM     15  C   UNL     1       1.361   1.922   0.005  0.00  0.00    +0.124 C 
ATOM     16  N   UNL     1      -0.004   1.377   0.010  0.00  0.00    -0.325 N 
ATOM     17  C   UNL     1      -0.778   1.894  -1.127  0.00  0.00    +0.124 C 
ATOM     18  C   UNL     1      -0.841   3.421  -1.046  0.00  0.00    +0.125 C 
ATOM     19  H   UNL     1       1.657   5.445   0.686  0.00  0.00    +0.166 HD
ENDBRANCH   1  16
BRANCH   6  20
ATOM     20  N   UNL     1      -1.179  -0.029   2.119  0.00  0.00    -0.280 N 
ATOM     21  C   UNL     1      -2.278  -0.535   2.713  0.00  0.00    +0.248 C 
ATOM     22  O   UNL     1      -2.695  -1.630   2.389  0.00  0.00    -0.270 OA
ATOM     23  H   UNL     1      -0.759   0.928   2.463  0.00  0.00    +0.155 HD
BRANCH  21  24
ATOM     24  C   UNL     1      -2.976   0.241   3.759  0.00  0.00    +0.037 A 
ATOM     25  C   UNL     1      -2.496   1.497   4.138  0.00  0.00    +0.014 A 
ATOM     26  C   UNL     1      -3.155   2.219   5.110  0.00  0.00    +0.021 A 
ATOM     27  C   UNL     1      -4.284   1.696   5.720  0.00  0.00    +0.041 A 
ATOM     28  C   UNL     1      -4.761   0.449   5.353  0.00  0.00    +0.021 A 
ATOM     29  C   UNL     1      -4.114  -0.280   4.377  0.00  0.00    +0.014 A 
ATOM     30 CL   UNL     1      -5.104   2.608   6.949  0.00  0.00    -0.084 Cl
ENDBRANCH  21  24
ENDBRANCH   6  20
BRANCH   4  31
ATOM     31  C   UNL     1       0.075  -4.264   0.000  0.00  0.00    +0.387 C 
ATOM     32  O   UNL     1      -0.439  -4.882   0.911  0.00  0.00    -0.241 OA
ATOM     33  O   UNL     1       0.664  -4.925  -1.015  0.00  0.00    -0.241 OA
ENDBRANCH   4  31
TORSDOF 4
