REMARK  Name = ZINC33033596
REMARK  9 active torsions:
REMARK  status: ('A' for Active; 'I' for Inactive)
REMARK    1  A    between atoms: C_1  and  C_2
REMARK    2  A    between atoms: C_4  and  C_35
REMARK    3  A    between atoms: C_5  and  S_9
REMARK    4  A    between atoms: C_7  and  C_8
REMARK    5  A    between atoms: S_9  and  N_12
REMARK    6  A    between atoms: N_12  and  C_13
REMARK    7  A    between atoms: C_15  and  C_25
REMARK    8  A    between atoms: C_18  and  N_19
REMARK    9  A    between atoms: C_31  and  C_34
REMARK                            x       y       z     vdW  Elec       q    Type
REMARK                         _______ _______ _______ _____ _____    ______ ____
ROOT
ATOM      1  C   UNL     1      -6.510  -0.940  -3.021  0.00  0.00    +0.070 A 
ATOM      2  C   UNL     1      -5.152  -0.849  -2.781  0.00  0.00    +0.039 A 
ATOM      3  C   UNL     1      -4.694  -0.345  -1.560  0.00  0.00    +0.039 A 
ATOM      4  C   UNL     1      -5.609   0.058  -0.584  0.00  0.00    +0.015 A 
ATOM      5  C   UNL     1      -6.962  -0.030  -0.830  0.00  0.00    +0.026 A 
ATOM      6  C   UNL     1      -7.420  -0.529  -2.043  0.00  0.00    +0.052 A 
ENDROOT
BRANCH   3   7
ATOM      7  C   UNL     1      -3.245  -0.246  -1.299  0.00  0.00    +0.247 C 
ATOM      8  O   UNL     1      -2.789  -0.641  -0.243  0.00  0.00    -0.270 OA
ATOM      9  N   UNL     1      -2.427   0.282  -2.231  0.00  0.00    -0.297 N 
ATOM     10  C   UNL     1      -2.947   0.673  -3.548  0.00  0.00    +0.108 C 
ATOM     11  C   UNL     1      -2.562   2.131  -3.817  0.00  0.00    +0.019 C 
ATOM     12  C   UNL     1      -1.047   2.291  -3.667  0.00  0.00    +0.006 C 
ATOM     13  C   UNL     1      -0.636   1.939  -2.236  0.00  0.00    +0.003 C 
ATOM     14  C   UNL     1      -0.999   0.479  -1.948  0.00  0.00    +0.111 C 
ATOM     15  C   UNL     1       0.874   2.131  -2.076  0.00  0.00    +0.009 C 
ENDBRANCH   3   7
BRANCH   6  16
ATOM     16  N   UNL     1      -8.790  -0.621  -2.285  0.00  0.00    -0.332 N 
ATOM     17  C   UNL     1      -9.440  -1.501  -1.304  0.00  0.00    +0.086 C 
ATOM     18  C   UNL     1     -10.924  -1.639  -1.651  0.00  0.00    -0.063 C 
ATOM     19  N   UNL     1     -11.549  -0.308  -1.655  0.00  0.00    +0.381 N 
ATOM     20  C   UNL     1     -10.898   0.572  -2.636  0.00  0.00    -0.063 C 
ATOM     21  C   UNL     1      -9.414   0.709  -2.290  0.00  0.00    +0.086 C 
ATOM     22  H   UNL     1     -12.613  -0.404  -1.917  0.00  0.00    -0.086 HD
ATOM     23  H   UNL     1     -11.455   0.144  -0.657  0.00  0.00    -0.086 HD
ENDBRANCH   6  16
BRANCH   1  24
ATOM     24  N   UNL     1      -6.973  -1.443  -4.243  0.00  0.00    -0.214 N 
ATOM     25  H   UNL     1      -7.880  -1.023  -4.702  0.00  0.00    +0.174 HD
BRANCH  24  26
ATOM     26  S   UNL     1      -6.156  -2.670  -4.996  0.00  0.00    +0.073 S 
ATOM     27  O   UNL     1      -6.929  -3.036  -6.131  0.00  0.00    -0.150 OA
ATOM     28  O   UNL     1      -4.802  -2.253  -5.099  0.00  0.00    -0.150 OA
BRANCH  26  33
ATOM     29  C   UNL     1      -6.221  -7.412  -1.267  0.00  0.00    +0.044 C 
ATOM     30  C   UNL     1      -6.205  -6.228  -2.198  0.00  0.00    -0.047 A 
ATOM     31  C   UNL     1      -7.389  -5.745  -2.723  0.00  0.00    +0.009 A 
ATOM     32  C   UNL     1      -7.374  -4.659  -3.577  0.00  0.00    -0.024 A 
ATOM     33  C   UNL     1      -6.175  -4.055  -3.907  0.00  0.00    +0.112 A 
ATOM     34  C   UNL     1      -4.991  -4.541  -3.386  0.00  0.00    +0.032 A 
ATOM     35  C   UNL     1      -5.006  -5.625  -2.528  0.00  0.00    -0.046 A 
ATOM     36  C   UNL     1      -3.715  -6.152  -1.957  0.00  0.00    +0.044 C 
ATOM     37  C   UNL     1      -8.665  -4.132  -4.150  0.00  0.00    +0.046 C 
ENDBRANCH  26  33
ENDBRANCH  24  26
ENDBRANCH   1  24
TORSDOF 5
