REMARK  Name = ZINC20744942
REMARK  1 active torsions:
REMARK  status: ('A' for Active; 'I' for Inactive)
REMARK    1  A    between atoms: C_3  and  C_9
REMARK                            x       y       z     vdW  Elec       q    Type
REMARK                         _______ _______ _______ _____ _____    ______ ____
ROOT
ATOM      1  C   UNL     1       3.671   2.186  -0.023  0.00  0.00    +0.113 C 
ATOM      2  C   UNL     1       4.076   2.463   1.391  0.00  0.00    +0.029 A 
ATOM      3  C   UNL     1       3.167   2.520   2.408  0.00  0.00    +0.111 A 
ATOM      4  N   UNL     1       3.829   2.782   3.548  0.00  0.00    -0.283 N 
ATOM      5  H   UNL     1       3.434   2.877   4.429  0.00  0.00    +0.188 HD
ATOM      6  N   UNL     1       5.184   2.892   3.239  0.00  0.00    -0.158 NA
ATOM      7  C   UNL     1       5.339   2.701   1.933  0.00  0.00    +0.151 A 
ATOM      8  N   UNL     1       6.589   2.757   1.346  0.00  0.00    -0.268 N 
ATOM      9  C   UNL     1       7.037   2.577   0.140  0.00  0.00    +0.228 C 
ATOM     10  O   UNL     1       8.245   2.618   0.036  0.00  0.00    -0.275 OA
ATOM     11  C   UNL     1       6.318   2.330  -1.126  0.00  0.00    +0.166 C 
ATOM     12  S   UNL     1       4.898   1.246  -0.935  0.00  0.00    -0.138 S 
ATOM     13  H   UNL     1       7.290   2.983   1.977  0.00  0.00    +0.156 HD
ENDROOT
BRANCH   1  16
ATOM     14  C   UNL     1       1.212  -0.677  -0.038  0.00  0.00    +0.039 A 
ATOM     15  C   UNL     1       2.397   0.032  -0.047  0.00  0.00    +0.009 A 
ATOM     16  C   UNL     1       2.377   1.414  -0.013  0.00  0.00    -0.011 A 
ATOM     17  C   UNL     1       1.170   2.088   0.029  0.00  0.00    +0.048 A 
ATOM     18  C   UNL     1      -0.018   1.380   0.038  0.00  0.00    +0.058 A 
ATOM     19  C   UNL     1       0.002  -0.004   0.005  0.00  0.00    +0.125 A 
ATOM     20  F   UNL     1      -1.157  -0.698   0.013  0.00  0.00    -0.205 F 
ATOM     21 CL   UNL     1       1.145   3.823   0.072  0.00  0.00    -0.083 Cl
ENDBRANCH   1  16
TORSDOF 1
