REMARK  Name = ZINC44784298
REMARK  6 active torsions:
REMARK  status: ('A' for Active; 'I' for Inactive)
REMARK    1  A    between atoms: C_1  and  C_2
REMARK    2  A    between atoms: C_7  and  N_12
REMARK    3  A    between atoms: C_9  and  C_11
REMARK    4  A    between atoms: C_13  and  C_15
REMARK    5  A    between atoms: C_15  and  C_21
REMARK    6  A    between atoms: N_22  and  O_23
REMARK                            x       y       z     vdW  Elec       q    Type
REMARK                         _______ _______ _______ _____ _____    ______ ____
ROOT
ATOM      1  C   UNL     1       1.269  -0.392   6.101  0.00  0.00    +0.109 C 
ATOM      2  C   UNL     1       0.897   0.480   7.304  0.00  0.00    +0.052 C 
ATOM      3  C   UNL     1      -0.619   0.432   7.510  0.00  0.00    +0.161 C 
ATOM      4  O   UNL     1      -1.031  -0.924   7.696  0.00  0.00    -0.380 OA
ATOM      5  C   UNL     1      -0.751  -1.776   6.583  0.00  0.00    +0.161 C 
ATOM      6  C   UNL     1       0.760  -1.817   6.341  0.00  0.00    +0.052 C 
ENDROOT
BRANCH   1   7
ATOM      7  C   UNL     1       2.767  -0.414   5.936  0.00  0.00    +0.147 C 
ATOM      8  N   UNL     1       3.398  -1.541   5.908  0.00  0.00    -0.076 NA
ATOM      9  N   UNL     1       3.463   0.768   5.815  0.00  0.00    -0.343 N 
ATOM     10  H   UNL     1       2.985   1.610   5.762  0.00  0.00    +0.144 HD
ATOM     11  H   UNL     1       4.433   0.759   5.783  0.00  0.00    +0.144 HD
BRANCH   8  12
ATOM     12  O   UNL     1       4.805  -1.561   5.753  0.00  0.00    -0.408 OA
ATOM     13  H   UNL     1       5.187  -2.450   5.743  0.00  0.00    +0.328 HD
ENDBRANCH   8  12
ENDBRANCH   1   7
BRANCH   1  15
ATOM     14  N   UNL     1       0.706  -0.514   3.696  0.00  0.00    -0.311 N 
ATOM     15  C   UNL     1       0.633   0.168   4.856  0.00  0.00    +0.227 C 
ATOM     16  O   UNL     1       0.054   1.234   4.897  0.00  0.00    -0.275 OA
ATOM     17  H   UNL     1       1.230  -1.328   3.645  0.00  0.00    +0.149 HD
BRANCH  14  23
ATOM     18  C   UNL     1      -0.051   1.493   0.008  0.00  0.00    +0.008 C 
ATOM     19  C   UNL     1      -0.062  -0.037   0.015  0.00  0.00    -0.009 C 
ATOM     20  C   UNL     1      -1.507  -0.537   0.049  0.00  0.00    +0.003 C 
ATOM     21  C   UNL     1      -2.198  -0.017   1.311  0.00  0.00    +0.002 C 
ATOM     22  C   UNL     1      -1.453  -0.526   2.546  0.00  0.00    +0.022 C 
ATOM     23  C   UNL     1      -0.007  -0.026   2.513  0.00  0.00    +0.076 C 
ATOM     24  C   UNL     1       0.683  -0.546   1.251  0.00  0.00    +0.009 C 
ATOM     25  C   UNL     1       2.129  -0.046   1.217  0.00  0.00    +0.009 C 
ENDBRANCH  14  23
ENDBRANCH   1  15
TORSDOF 4
