REMARK  Name = ZINC00465328
REMARK  4 active torsions:
REMARK  status: ('A' for Active; 'I' for Inactive)
REMARK    1  A    between atoms: C_1  and  C_2
REMARK    2  A    between atoms: C_5  and  C_8
REMARK    3  A    between atoms: C_10  and  N_16
REMARK    4  A    between atoms: C_17  and  C_19
REMARK                            x       y       z     vdW  Elec       q    Type
REMARK                         _______ _______ _______ _____ _____    ______ ____
ROOT
ATOM      1  C   UNL     1       3.549   2.058   0.591  0.00  0.00    +0.132 C 
ATOM      2  C   UNL     1       2.422   1.186  -0.015  0.00  0.00    +0.183 C 
ATOM      3  C   UNL     1       2.906   0.977  -1.438  0.00  0.00    +0.249 C 
ATOM      4  O   UNL     1       2.484   0.154  -2.222  0.00  0.00    -0.272 OA
ATOM      5  N   UNL     1       3.887   1.867  -1.677  0.00  0.00    -0.249 N 
ATOM      6  N   UNL     1       4.126   2.692  -0.617  0.00  0.00    -0.231 NA
ATOM      7  H   UNL     1       4.374   1.917  -2.514  0.00  0.00    +0.169 HD
ATOM      8  H   UNL     1       5.115   2.856  -0.502  0.00  0.00    +0.145 HD
ENDROOT
BRANCH   1  13
ATOM      9  C   UNL     1       1.381   6.037   4.177  0.00  0.00    +0.044 C 
ATOM     10  C   UNL     1       1.947   5.000   3.242  0.00  0.00    -0.050 A 
ATOM     11  C   UNL     1       2.499   3.839   3.750  0.00  0.00    +0.003 A 
ATOM     12  C   UNL     1       3.017   2.887   2.892  0.00  0.00    +0.005 A 
ATOM     13  C   UNL     1       2.983   3.096   1.526  0.00  0.00    -0.027 A 
ATOM     14  C   UNL     1       2.436   4.259   1.018  0.00  0.00    +0.005 A 
ATOM     15  C   UNL     1       1.913   5.209   1.876  0.00  0.00    +0.003 A 
ENDBRANCH   1  13
BRANCH   2  16
ATOM     16  N   UNL     1       1.143   1.901   0.001  0.00  0.00    -0.298 N 
ATOM     17  C   UNL     1      -0.014   1.212   0.009  0.00  0.00    +0.245 C 
ATOM     18  O   UNL     1       0.002  -0.004   0.002  0.00  0.00    -0.270 OA
ATOM     19  H   UNL     1       1.130   2.871   0.007  0.00  0.00    +0.150 HD
BRANCH  17  20
ATOM     20  C   UNL     1      -1.304   1.933   0.019  0.00  0.00    +0.037 A 
ATOM     21  C   UNL     1      -1.325   3.329   0.032  0.00  0.00    +0.016 A 
ATOM     22  C   UNL     1      -2.531   3.997   0.035  0.00  0.00    +0.039 A 
ATOM     23  C   UNL     1      -3.721   3.285   0.037  0.00  0.00    +0.123 A 
ATOM     24  C   UNL     1      -3.705   1.898   0.030  0.00  0.00    +0.039 A 
ATOM     25  C   UNL     1      -2.505   1.220   0.021  0.00  0.00    +0.016 A 
ATOM     26  F   UNL     1      -4.900   3.944   0.046  0.00  0.00    -0.205 F 
ENDBRANCH  17  20
ENDBRANCH   2  16
TORSDOF 3
