REMARK  Name = ZINC41067825
REMARK  5 active torsions:
REMARK  status: ('A' for Active; 'I' for Inactive)
REMARK    1  A    between atoms: C_1  and  C_2
REMARK    2  A    between atoms: C_7  and  N_8
REMARK    3  A    between atoms: N_8  and  S_9
REMARK    4  A    between atoms: S_9  and  C_12
REMARK    5  A    between atoms: C_14  and  N_17
REMARK                            x       y       z     vdW  Elec       q    Type
REMARK                         _______ _______ _______ _____ _____    ______ ____
ROOT
ATOM      1  S   UNL     1       0.764  -0.676   3.742  0.00  0.00    +0.079 S 
ATOM      2  O   UNL     1       0.519   0.208   4.827  0.00  0.00    -0.149 OA
ATOM      3  O   UNL     1       0.387  -2.046   3.776  0.00  0.00    -0.149 OA
ENDROOT
BRANCH   1   4
ATOM      4  C   UNL     1       2.500  -0.639   3.444  0.00  0.00    +0.147 A 
ATOM      5  C   UNL     1       3.397   0.330   3.749  0.00  0.00    +0.059 A 
ATOM      6  C   UNL     1       4.729   0.142   3.416  0.00  0.00    +0.034 A 
ATOM      7  C   UNL     1       5.092  -1.010   2.793  0.00  0.00    +0.069 A 
ATOM      8  S   UNL     1       3.533  -1.872   2.670  0.00  0.00    -0.075 S 
BRANCH   6   9
ATOM      9  N   UNL     1       5.689   1.127   3.716  0.00  0.00    -0.358 N 
ATOM     10  H   UNL     1       5.420   1.946   4.160  0.00  0.00    +0.142 HD
ATOM     11  H   UNL     1       6.619   0.986   3.479  0.00  0.00    +0.142 HD
ENDBRANCH   6   9
ENDBRANCH   1   4
BRANCH   1  12
ATOM     12  N   UNL     1       0.025  -0.015   2.416  0.00  0.00    -0.216 N 
ATOM     13  H   UNL     1      -0.524   0.779   2.511  0.00  0.00    +0.174 HD
BRANCH  12  20
ATOM     14  C   UNL     1       0.150   1.694   0.145  0.00  0.00    +0.046 C 
ATOM     15  C   UNL     1       0.259   0.196   0.022  0.00  0.00    -0.027 A 
ATOM     16  C   UNL     1       0.430  -0.386  -1.219  0.00  0.00    +0.025 A 
ATOM     17  C   UNL     1       0.530  -1.761  -1.332  0.00  0.00    +0.041 A 
ATOM     18  C   UNL     1       0.459  -2.558  -0.203  0.00  0.00    +0.022 A 
ATOM     19  C   UNL     1       0.287  -1.982   1.041  0.00  0.00    +0.026 A 
ATOM     20  C   UNL     1       0.193  -0.601   1.158  0.00  0.00    +0.051 A 
ATOM     21 CL   UNL     1       0.746  -2.488  -2.893  0.00  0.00    -0.084 Cl
ENDBRANCH  12  20
ENDBRANCH   1  12
TORSDOF 4
