REMARK  Name = ZINC36861257
REMARK  4 active torsions:
REMARK  status: ('A' for Active; 'I' for Inactive)
REMARK    1  A    between atoms: C_6  and  N_7
REMARK    2  A    between atoms: C_8  and  C_10
REMARK    3  A    between atoms: C_12  and  N_18
REMARK    4  A    between atoms: N_14  and  C_15
REMARK                            x       y       z     vdW  Elec       q    Type
REMARK                         _______ _______ _______ _____ _____    ______ ____
ROOT
ATOM      1  N   UNL     1      -1.310  -0.762  -1.173  0.00  0.00    -0.280 N 
ATOM      2  C   UNL     1      -1.258  -2.090  -0.949  0.00  0.00    +0.265 C 
ATOM      3  O   UNL     1      -0.202  -2.684  -1.053  0.00  0.00    -0.268 OA
ATOM      4  H   UNL     1      -2.137  -0.277  -1.027  0.00  0.00    +0.155 HD
ENDROOT
BRANCH   1  10
ATOM      5  C   UNL     1      -0.292   0.970  -2.513  0.00  0.00    +0.024 A 
ATOM      6  C   UNL     1       0.836   1.639  -2.949  0.00  0.00    +0.017 A 
ATOM      7  C   UNL     1       2.086   1.260  -2.492  0.00  0.00    +0.018 A 
ATOM      8  C   UNL     1       2.210   0.211  -1.599  0.00  0.00    +0.017 A 
ATOM      9  C   UNL     1       1.087  -0.461  -1.160  0.00  0.00    +0.024 A 
ATOM     10  C   UNL     1      -0.170  -0.083  -1.616  0.00  0.00    +0.034 A 
ATOM     11 BR   UNL     1       3.627   2.177  -3.091  0.00  0.00    -0.050 Br
ENDBRANCH   1  10
BRANCH   2  12
ATOM     12  C   UNL     1      -2.476  -2.818  -0.580  0.00  0.00    +0.107 A 
ATOM     13  C   UNL     1      -2.598  -4.186  -0.449  0.00  0.00    +0.055 A 
ATOM     14  C   UNL     1      -3.926  -4.449  -0.085  0.00  0.00    +0.043 A 
ATOM     15  C   UNL     1      -4.577  -3.259  -0.002  0.00  0.00    +0.109 A 
ATOM     16  N   UNL     1      -3.701  -2.261  -0.296  0.00  0.00    -0.338 N 
BRANCH  16  17
ATOM     17  C   UNL     1      -4.013  -0.829  -0.311  0.00  0.00    +0.088 C 
ATOM     18  C   UNL     1      -5.489  -0.427  -0.337  0.00  0.00    +0.027 C 
ATOM     19  C   UNL     1      -4.626  -0.253  -1.589  0.00  0.00    +0.027 C 
ENDBRANCH  16  17
BRANCH  14  20
ATOM     20  N   UNL     1      -4.486  -5.719   0.152  0.00  0.00    -0.357 N 
ATOM     21  H   UNL     1      -3.937  -6.514   0.067  0.00  0.00    +0.142 HD
ATOM     22  H   UNL     1      -5.420  -5.798   0.401  0.00  0.00    +0.142 HD
ENDBRANCH  14  20
ENDBRANCH   2  12
TORSDOF 4
