REMARK  Name = ZINC35056780
REMARK  9 active torsions:
REMARK  status: ('A' for Active; 'I' for Inactive)
REMARK    1  A    between atoms: C_1  and  C_2
REMARK    2  A    between atoms: N_4  and  C_5
REMARK    3  A    between atoms: C_7  and  O_43
REMARK    4  A    between atoms: C_15  and  C_18
REMARK    5  A    between atoms: C_24  and  O_26
REMARK    6  A    between atoms: O_26  and  C_27
REMARK    7  A    between atoms: C_30  and  C_33
REMARK    8  A    between atoms: C_33  and  C_35
REMARK    9  A    between atoms: C_36  and  C_37
REMARK                            x       y       z     vdW  Elec       q    Type
REMARK                         _______ _______ _______ _____ _____    ______ ____
ROOT
ATOM      1  C   UNL     1       0.020  -2.136  -1.177  0.00  0.00    +0.173 C 
ATOM      2  C   UNL     1      -0.702  -2.652  -2.425  0.00  0.00    +0.172 C 
ATOM      3  C   UNL     1       0.049  -2.184  -3.672  0.00  0.00    +0.183 C 
ATOM      4  C   UNL     1       1.506  -2.653  -3.602  0.00  0.00    +0.179 C 
ATOM      5  C   UNL     1       2.265  -2.071  -4.801  0.00  0.00    +0.197 C 
ATOM      6  O   UNL     1       2.101  -0.649  -4.804  0.00  0.00    -0.342 OA
ATOM      7  C   UNL     1       0.737  -0.225  -4.864  0.00  0.00    +0.319 C 
ATOM      8  O   UNL     1       0.021  -0.757  -3.746  0.00  0.00    -0.336 OA
ATOM      9  O   UNL     1       2.098  -2.188  -2.387  0.00  0.00    -0.332 OA
ATOM     10  C   UNL     1       1.470  -2.629  -1.198  0.00  0.00    +0.331 C 
ENDROOT
BRANCH   1  14
ATOM     11  C   UNL     1      -1.067   1.492  -0.622  0.00  0.00    +0.109 C 
ATOM     12  C   UNL     1      -1.046  -0.015  -0.631  0.00  0.00    +0.210 C 
ATOM     13  O   UNL     1      -1.972  -0.636  -0.153  0.00  0.00    -0.276 OA
ATOM     14  N   UNL     1       0.000  -0.672  -1.169  0.00  0.00    -0.304 N 
ATOM     15  H   UNL     1       0.740  -0.174  -1.551  0.00  0.00    +0.149 HD
ENDBRANCH   1  14
BRANCH   7  16
ATOM     16  C   UNL     1       0.677   1.281  -4.828  0.00  0.00    +0.161 A 
ATOM     17  C   UNL     1       1.235   2.112  -5.726  0.00  0.00    +0.050 A 
ATOM     18  C   UNL     1       0.934   3.429  -5.308  0.00  0.00    +0.041 A 
ATOM     19  C   UNL     1       0.211   3.323  -4.179  0.00  0.00    +0.195 A 
ATOM     20  O   UNL     1       0.053   2.020  -3.896  0.00  0.00    -0.463 OA
ENDBRANCH   7  16
BRANCH   2  21
ATOM     21  O   UNL     1      -0.741  -4.080  -2.398  0.00  0.00    -0.387 OA
ATOM     22  H   UNL     1      -1.201  -4.447  -1.631  0.00  0.00    +0.210 HD
ENDBRANCH   2  21
BRANCH  10  23
ATOM     23  O   UNL     1       1.488  -4.058  -1.165  0.00  0.00    -0.462 OA
BRANCH  23  24
ATOM     24  C   UNL     1       2.692  -4.654  -0.968  0.00  0.00    +0.124 A 
ATOM     25  C   UNL     1       3.832  -3.875  -0.805  0.00  0.00    +0.046 A 
ATOM     26  C   UNL     1       5.055  -4.476  -0.605  0.00  0.00    +0.015 A 
ATOM     27  C   UNL     1       5.149  -5.870  -0.566  0.00  0.00    +0.022 A 
ATOM     28  C   UNL     1       4.000  -6.649  -0.731  0.00  0.00    +0.015 A 
ATOM     29  C   UNL     1       2.780  -6.040  -0.925  0.00  0.00    +0.046 A 
BRANCH  27  30
ATOM     30  C   UNL     1       6.458  -6.518  -0.353  0.00  0.00    +0.186 C 
ATOM     31  O   UNL     1       7.458  -5.838  -0.210  0.00  0.00    -0.287 OA
BRANCH  30  32
ATOM     32  C   UNL     1       6.554  -7.978  -0.313  0.00  0.00    +0.052 C 
ATOM     33  C   UNL     1       7.751  -8.570  -0.118  0.00  0.00    +0.011 C 
BRANCH  33  34
ATOM     34  C   UNL     1       7.848 -10.038  -0.078  0.00  0.00    -0.025 A 
ATOM     35  C   UNL     1       6.702 -10.823  -0.247  0.00  0.00    +0.008 A 
ATOM     36  C   UNL     1       6.801 -12.197  -0.209  0.00  0.00    +0.001 A 
ATOM     37  C   UNL     1       8.030 -12.801  -0.003  0.00  0.00    +0.000 A 
ATOM     38  C   UNL     1       9.168 -12.032   0.166  0.00  0.00    +0.001 A 
ATOM     39  C   UNL     1       9.086 -10.656   0.124  0.00  0.00    +0.008 A 
ENDBRANCH  33  34
ENDBRANCH  30  32
ENDBRANCH  27  30
ENDBRANCH  23  24
ENDBRANCH  10  23
TORSDOF 8
