REMARK  Name = ZINC43553326
REMARK  13 active torsions:
REMARK  status: ('A' for Active; 'I' for Inactive)
REMARK    1  A    between atoms: C_1  and  C_2
REMARK    2  A    between atoms: C_5  and  O_40
REMARK    3  A    between atoms: C_7  and  C_37
REMARK    4  A    between atoms: C_7  and  C_38
REMARK    5  A    between atoms: C_17  and  C_19
REMARK    6  A    between atoms: C_22  and  O_25
REMARK    7  A    between atoms: O_25  and  C_26
REMARK    8  A    between atoms: C_27  and  C_29
REMARK    9  A    between atoms: C_29  and  C_30
REMARK   10  A    between atoms: N_32  and  C_33
REMARK   11  A    between atoms: N_32  and  C_34
REMARK   12  A    between atoms: C_34  and  C_35
REMARK   13  A    between atoms: C_38  and  O_39
REMARK                            x       y       z     vdW  Elec       q    Type
REMARK                         _______ _______ _______ _____ _____    ______ ____
ROOT
ATOM      1  C   UNL     1       0.116   1.506  -0.019  0.00  0.00    +0.012 C 
ATOM      2  C   UNL     1       0.117  -0.030  -0.009  0.00  0.00    -0.019 C 
ATOM      3  C   UNL     1      -1.325  -0.517   0.066  0.00  0.00    +0.010 C 
ATOM      4  C   UNL     1      -1.977   0.039   1.332  0.00  0.00    +0.032 C 
ATOM      5  C   UNL     1      -1.232  -0.383   2.585  0.00  0.00    +0.123 C 
ATOM      6  C   UNL     1       0.274  -0.192   2.529  0.00  0.00    +0.021 C 
ATOM      7  C   UNL     1       0.891  -0.577   1.185  0.00  0.00    +0.011 C 
ATOM      8  C   UNL     1       0.936  -2.118   1.138  0.00  0.00    +0.049 C 
ATOM      9  C   UNL     1       1.031  -2.630  -0.253  0.00  0.00    +0.015 A 
ATOM     10  C   UNL     1       0.944  -1.924  -1.408  0.00  0.00    +0.058 A 
ATOM     11  N   UNL     1       1.036  -2.643  -2.520  0.00  0.00    -0.229 NA
ATOM     12  C   UNL     1       1.221  -3.945  -2.488  0.00  0.00    +0.165 A 
ATOM     13  S   UNL     1       1.281  -4.284  -0.839  0.00  0.00    -0.057 S 
ATOM     14  N   UNL     1       1.339  -4.826  -3.556  0.00  0.00    -0.261 N 
ATOM     15  C   UNL     1       1.526  -6.141  -3.327  0.00  0.00    +0.250 C 
ATOM     16  O   UNL     1       1.593  -6.556  -2.186  0.00  0.00    -0.270 OA
ATOM     17  C   UNL     1       0.784  -0.419  -1.332  0.00  0.00    +0.054 C 
ATOM     18  C   UNL     1       0.644   1.237   2.945  0.00  0.00    +0.016 C 
ATOM     19  H   UNL     1       1.286  -4.495  -4.466  0.00  0.00    +0.157 HD
ENDROOT
BRANCH  15  20
ATOM     20  C   UNL     1       1.652  -7.076  -4.461  0.00  0.00    +0.037 A 
ATOM     21  C   UNL     1       1.582  -6.601  -5.773  0.00  0.00    +0.016 A 
ATOM     22  C   UNL     1       1.700  -7.477  -6.828  0.00  0.00    +0.046 A 
ATOM     23  C   UNL     1       1.888  -8.833  -6.590  0.00  0.00    +0.120 A 
ATOM     24  C   UNL     1       1.957  -9.311  -5.287  0.00  0.00    +0.046 A 
ATOM     25  C   UNL     1       1.846  -8.440  -4.226  0.00  0.00    +0.016 A 
BRANCH  23  26
ATOM     26  O   UNL     1       2.003  -9.694  -7.633  0.00  0.00    -0.495 OA
ATOM     27  C   UNL     1       2.195 -11.074  -7.317  0.00  0.00    +0.277 C 
ENDBRANCH  23  26
ENDBRANCH  15  20
BRANCH   5  28
ATOM     28  O   UNL     1      -1.546  -1.745   2.899  0.00  0.00    -0.391 OA
ATOM     29  H   UNL     1      -2.486  -1.905   3.062  0.00  0.00    +0.210 HD
ENDBRANCH   5  28
BRANCH  17  30
ATOM     30  C   UNL     1      -0.025   0.095  -2.519  0.00  0.00    +0.106 C 
BRANCH  30  31
ATOM     31  C   UNL     1       0.719  -0.196  -3.797  0.00  0.00    +0.217 C 
ATOM     32  O   UNL     1       1.792  -0.760  -3.760  0.00  0.00    -0.276 OA
ATOM     33  N   UNL     1       0.191   0.170  -4.982  0.00  0.00    -0.293 N 
ATOM     34  C   UNL     1      -1.105   0.852  -5.027  0.00  0.00    +0.133 C 
BRANCH  33  35
ATOM     35  C   UNL     1       0.913  -0.113  -6.224  0.00  0.00    +0.196 C 
BRANCH  35  36
ATOM     36  C   UNL     1       0.514  -1.434  -6.734  0.00  0.00    -0.086 C 
ATOM     37  C   UNL     1       0.195  -2.488  -7.141  0.00  0.00    +0.005 C 
ENDBRANCH  35  36
ENDBRANCH  33  35
ENDBRANCH  30  31
ENDBRANCH  17  30
BRANCH   6  38
ATOM     38  C   UNL     1       0.887  -1.106   3.624  0.00  0.00    +0.165 C 
BRANCH  38  39
ATOM     39  O   UNL     1       0.377  -0.725   4.903  0.00  0.00    -0.394 OA
ATOM     40  H   UNL     1       0.718  -1.254   5.636  0.00  0.00    +0.209 HD
ENDBRANCH  38  39
ENDBRANCH   6  38
TORSDOF 9
