REMARK  Name = ZINC31052492
REMARK  8 active torsions:
REMARK  status: ('A' for Active; 'I' for Inactive)
REMARK    1  A    between atoms: C_1  and  O_2
REMARK    2  A    between atoms: O_2  and  C_3
REMARK    3  A    between atoms: C_3  and  C_5
REMARK    4  A    between atoms: C_9  and  N_10
REMARK    5  A    between atoms: C_11  and  C_13
REMARK    6  A    between atoms: N_18  and  C_20
REMARK    7  A    between atoms: C_20  and  C_21
REMARK    8  A    between atoms: C_23  and  C_26
REMARK                            x       y       z     vdW  Elec       q    Type
REMARK                         _______ _______ _______ _____ _____    ______ ____
ROOT
ATOM      1  C   UNL     1      -4.502   5.816   0.587  0.00  0.00    +0.059 C 
ATOM      2  C   UNL     1      -3.127   6.367   0.198  0.00  0.00    +0.009 C 
ATOM      3  C   UNL     1      -3.302   7.427  -0.894  0.00  0.00    -0.018 C 
ATOM      4  C   UNL     1      -4.230   8.531  -0.384  0.00  0.00    -0.078 C 
ATOM      5  N   UNL     1      -5.532   7.952  -0.026  0.00  0.00    +0.386 N 
ATOM      6  C   UNL     1      -5.395   6.967   1.054  0.00  0.00    -0.065 C 
ATOM      7  H   UNL     1      -5.920   7.428  -0.911  0.00  0.00    -0.081 HD
ENDROOT
BRANCH   1   9
ATOM      8  N   UNL     1      -3.593   3.712   1.519  0.00  0.00    -0.279 N 
ATOM      9  C   UNL     1      -4.345   4.816   1.703  0.00  0.00    +0.219 C 
ATOM     10  O   UNL     1      -4.894   5.004   2.768  0.00  0.00    -0.275 OA
ATOM     11  H   UNL     1      -3.095   3.542   0.553  0.00  0.00    +0.155 HD
BRANCH   8  16
ATOM     12  C   UNL     1      -2.724   1.608   2.547  0.00  0.00    +0.091 A 
ATOM     13  C   UNL     1      -2.731   0.819   3.768  0.00  0.00    -0.021 A 
ATOM     14  C   UNL     1      -3.461   1.333   4.781  0.00  0.00    -0.004 A 
ATOM     15  S   UNL     1      -4.131   2.840   4.137  0.00  0.00    -0.077 S 
ATOM     16  C   UNL     1      -3.449   2.793   2.546  0.00  0.00    +0.086 A 
ATOM     17  C   UNL     1      -3.651   0.746   6.146  0.00  0.00    +0.043 C 
ATOM     18  C   UNL     1      -3.199  -0.721   6.108  0.00  0.00    +0.005 C 
ATOM     19  C   UNL     1      -1.832  -0.798   5.423  0.00  0.00    +0.005 C 
ATOM     20  C   UNL     1      -1.981  -0.497   3.930  0.00  0.00    +0.037 C 
BRANCH  12  21
ATOM     21  C   UNL     1      -1.976   1.173   1.366  0.00  0.00    +0.342 C 
ATOM     22  O   UNL     1      -2.512   0.469   0.532  0.00  0.00    -0.245 OA
BRANCH  21  24
ATOM     23  C   UNL     1      -0.013   1.086   0.008  0.00  0.00    +0.280 C 
ATOM     24  O   UNL     1      -0.692   1.554   1.203  0.00  0.00    -0.464 OA
ENDBRANCH  21  24
ENDBRANCH  12  21
ENDBRANCH   8  16
ENDBRANCH   1   9
BRANCH   5  25
ATOM     25  C   UNL     1      -6.493   9.002   0.337  0.00  0.00    +0.022 C 
BRANCH  25  26
ATOM     26  C   UNL     1      -6.792   9.850  -0.873  0.00  0.00    +0.211 A 
ATOM     27  N   UNL     1      -7.743   9.645  -1.750  0.00  0.00    -0.193 NA
ATOM     28  C   UNL     1      -7.630  10.649  -2.649  0.00  0.00    +0.202 A 
ATOM     29  N   UNL     1      -6.627  11.397  -2.268  0.00  0.00    -0.056 NA
ATOM     30  O   UNL     1      -6.140  10.954  -1.249  0.00  0.00    -0.340 OA
BRANCH  28  31
ATOM     31  C   UNL     1      -8.485  10.863  -3.843  0.00  0.00    +0.024 A 
ATOM     32  C   UNL     1      -8.251  11.948  -4.685  0.00  0.00    +0.012 A 
ATOM     33  C   UNL     1      -9.048  12.143  -5.795  0.00  0.00    +0.002 A 
ATOM     34  C   UNL     1     -10.079  11.262  -6.072  0.00  0.00    +0.020 A 
ATOM     35  C   UNL     1     -10.316  10.183  -5.239  0.00  0.00    +0.042 A 
ATOM     36  C   UNL     1      -9.521   9.976  -4.129  0.00  0.00    +0.031 A 
ATOM     37 CL   UNL     1     -11.611   9.083  -5.594  0.00  0.00    -0.084 Cl
ENDBRANCH  28  31
ENDBRANCH  25  26
ENDBRANCH   5  25
TORSDOF 7
