REMARK  Name = ZINC02433787
REMARK  10 active torsions:
REMARK  status: ('A' for Active; 'I' for Inactive)
REMARK    1  A    between atoms: C_1  and  C_2
REMARK    2  A    between atoms: C_2  and  O_3
REMARK    3  A    between atoms: O_3  and  C_4
REMARK    4  A    between atoms: C_11  and  C_24
REMARK    5  A    between atoms: C_12  and  N_23
REMARK    6  A    between atoms: C_19  and  C_21
REMARK    7  A    between atoms: C_19  and  C_22
REMARK    8  A    between atoms: C_29  and  C_33
REMARK    9  A    between atoms: C_29  and  C_34
REMARK   10  A    between atoms: C_31  and  C_32
REMARK                            x       y       z     vdW  Elec       q    Type
REMARK                         _______ _______ _______ _____ _____    ______ ____
ROOT
ATOM      1  C   UNL     1       3.368  -2.354  -0.051  0.00  0.00    +0.121 A 
ATOM      2  C   UNL     1       3.562  -0.978  -0.042  0.00  0.00    +0.055 A 
ATOM      3  C   UNL     1       2.476  -0.119  -0.025  0.00  0.00    +0.003 A 
ATOM      4  C   UNL     1       1.198  -0.712  -0.015  0.00  0.00    +0.050 A 
ATOM      5  C   UNL     1       1.010  -2.084  -0.024  0.00  0.00    +0.003 A 
ATOM      6  C   UNL     1       2.095  -2.934  -0.042  0.00  0.00    +0.052 A 
ATOM      7  C   UNL     1      -0.472  -2.270  -0.009  0.00  0.00    +0.145 C 
ATOM      8  C   UNL     1      -0.914  -3.012   1.219  0.00  0.00    +0.110 C 
ATOM      9  C   UNL     1      -1.300  -4.309   1.128  0.00  0.00    +0.199 C 
ATOM     10  O   UNL     1      -1.290  -4.960  -0.045  0.00  0.00    -0.445 OA
ATOM     11  C   UNL     1      -1.315  -4.271  -1.201  0.00  0.00    +0.116 C 
ATOM     12  C   UNL     1      -0.938  -2.979  -1.254  0.00  0.00    +0.058 C 
ATOM     13  C   UNL     1      -0.969  -2.257  -2.462  0.00  0.00    +0.165 C 
ATOM     14  O   UNL     1      -0.603  -1.099  -2.474  0.00  0.00    -0.292 OA
ATOM     15  C   UNL     1      -1.447  -2.893  -3.739  0.00  0.00    +0.086 C 
ATOM     16  C   UNL     1      -2.451  -3.999  -3.395  0.00  0.00    -0.021 C 
ATOM     17  C   UNL     1      -1.775  -4.990  -2.447  0.00  0.00    +0.081 C 
ATOM     18  C   UNL     1      -3.675  -3.387  -2.710  0.00  0.00    +0.012 C 
ATOM     19  C   UNL     1      -2.884  -4.717  -4.674  0.00  0.00    +0.012 C 
ATOM     20  C   UNL     1      -1.038  -0.859   0.010  0.00  0.00    +0.241 C 
ATOM     21  O   UNL     1      -2.212  -0.558   0.029  0.00  0.00    -0.273 OA
ATOM     22  N   UNL     1       0.002  -0.004   0.002  0.00  0.00    -0.260 N 
ATOM     23  C   UNL     1      -0.018   1.464   0.010  0.00  0.00    +0.055 C 
ATOM     24  C   UNL     1       1.369   2.034  -0.000  0.00  0.00    +0.002 C 
ATOM     25  C   UNL     1       2.501   1.349  -0.016  0.00  0.00    -0.043 C 
ATOM     26  C   UNL     1       3.820   2.079  -0.025  0.00  0.00    +0.044 C 
ATOM     27  C   UNL     1      -0.771   1.960  -1.226  0.00  0.00    +0.036 C 
ATOM     28  C   UNL     1      -0.747   1.947   1.265  0.00  0.00    +0.036 C 
ENDROOT
BRANCH   9  29
ATOM     29  N   UNL     1      -1.710  -4.969   2.260  0.00  0.00    -0.328 N 
ATOM     30  H   UNL     1      -1.722  -4.508   3.113  0.00  0.00    +0.145 HD
ATOM     31  H   UNL     1      -1.988  -5.897   2.206  0.00  0.00    +0.145 HD
ENDBRANCH   9  29
BRANCH   8  32
ATOM     32  C   UNL     1      -0.929  -2.349   2.488  0.00  0.00    +0.102 C 
ATOM     33  N   UNL     1      -0.940  -1.823   3.495  0.00  0.00    -0.191 NA
ENDBRANCH   8  32
BRANCH   1  34
ATOM     34  O   UNL     1       4.457  -3.167  -0.068  0.00  0.00    -0.492 OA
BRANCH  34  36
ATOM     35  C   UNL     1       6.834  -3.604  -0.097  0.00  0.00    +0.048 C 
ATOM     36  C   UNL     1       5.739  -2.536  -0.077  0.00  0.00    +0.225 C 
ENDBRANCH  34  36
ENDBRANCH   1  34
TORSDOF 4
