REMARK  Name = ZINC17171072
REMARK  8 active torsions:
REMARK  status: ('A' for Active; 'I' for Inactive)
REMARK    1  A    between atoms: C_4  and  C_7
REMARK    2  A    between atoms: N_9  and  N_10
REMARK    3  A    between atoms: C_11  and  C_13
REMARK    4  A    between atoms: C_17  and  S_19
REMARK    5  A    between atoms: S_19  and  N_22
REMARK    6  A    between atoms: N_22  and  C_23
REMARK    7  A    between atoms: C_26  and  S_29
REMARK    8  A    between atoms: S_29  and  C_30
REMARK                            x       y       z     vdW  Elec       q    Type
REMARK                         _______ _______ _______ _____ _____    ______ ____
ROOT
ATOM      1  C   UNL     1      -4.597  -1.006  -0.947  0.00  0.00    +0.040 A 
ATOM      2  C   UNL     1      -5.233   0.176  -0.563  0.00  0.00    +0.013 A 
ATOM      3  C   UNL     1      -4.596   1.052   0.290  0.00  0.00    +0.003 A 
ATOM      4  C   UNL     1      -3.331   0.760   0.769  0.00  0.00    +0.029 A 
ATOM      5  C   UNL     1      -2.693  -0.406   0.388  0.00  0.00    +0.109 A 
ATOM      6  C   UNL     1      -3.319  -1.292  -0.465  0.00  0.00    +0.042 A 
ENDROOT
BRANCH   1   8
ATOM      7  N   UNL     1      -6.508  -1.672  -2.325  0.00  0.00    -0.230 N 
ATOM      8  C   UNL     1      -5.274  -1.951  -1.861  0.00  0.00    +0.260 C 
ATOM      9  O   UNL     1      -4.718  -2.979  -2.193  0.00  0.00    -0.269 OA
ATOM     10  H   UNL     1      -6.952  -0.851  -2.060  0.00  0.00    +0.173 HD
BRANCH   7  13
ATOM     11  C   UNL     1      -8.384  -2.288  -3.655  0.00  0.00    +0.260 C 
ATOM     12  O   UNL     1      -8.940  -1.260  -3.323  0.00  0.00    -0.269 OA
ATOM     13  N   UNL     1      -7.150  -2.567  -3.191  0.00  0.00    -0.230 N 
ATOM     14  H   UNL     1      -6.706  -3.388  -3.456  0.00  0.00    +0.173 HD
BRANCH  11  18
ATOM     15  C   UNL     1     -10.329  -5.002  -6.280  0.00  0.00    +0.000 A 
ATOM     16  C   UNL     1     -10.965  -3.833  -5.904  0.00  0.00    +0.001 A 
ATOM     17  C   UNL     1     -10.339  -2.947  -5.051  0.00  0.00    +0.013 A 
ATOM     18  C   UNL     1      -9.061  -3.233  -4.569  0.00  0.00    +0.038 A 
ATOM     19  C   UNL     1      -8.423  -4.412  -4.957  0.00  0.00    +0.013 A 
ATOM     20  C   UNL     1      -9.063  -5.292  -5.805  0.00  0.00    +0.001 A 
ENDBRANCH  11  18
ENDBRANCH   7  13
ENDBRANCH   1   8
BRANCH   5  21
ATOM     21  S   UNL     1      -1.079  -0.765   0.999  0.00  0.00    +0.072 S 
ATOM     22  O   UNL     1      -0.879  -2.161   0.820  0.00  0.00    -0.150 OA
ATOM     23  O   UNL     1      -0.977  -0.138   2.269  0.00  0.00    -0.150 OA
BRANCH  21  24
ATOM     24  N   UNL     1       0.002  -0.001   0.004  0.00  0.00    -0.216 N 
ATOM     25  H   UNL     1       0.591   0.682   0.362  0.00  0.00    +0.174 HD
BRANCH  24  26
ATOM     26  C   UNL     1       0.067  -0.340  -1.352  0.00  0.00    +0.048 A 
ATOM     27  C   UNL     1       0.093  -1.675  -1.734  0.00  0.00    +0.025 A 
ATOM     28  C   UNL     1       0.151  -2.010  -3.072  0.00  0.00    +0.017 A 
ATOM     29  C   UNL     1       0.194  -1.012  -4.036  0.00  0.00    +0.013 A 
ATOM     30  C   UNL     1       0.173   0.324  -3.655  0.00  0.00    +0.017 A 
ATOM     31  C   UNL     1       0.110   0.658  -2.317  0.00  0.00    +0.025 A 
BRANCH  29  32
ATOM     32  S   UNL     1       0.274  -1.439  -5.744  0.00  0.00    -0.056 S 
BRANCH  32  33
ATOM     33  C   UNL     1       0.279  -3.253  -5.743  0.00  0.00    +0.404 C 
ATOM     34  F   UNL     1       1.390  -3.716  -5.031  0.00  0.00    -0.197 F 
ATOM     35  F   UNL     1      -0.892  -3.721  -5.137  0.00  0.00    -0.197 F 
ENDBRANCH  32  33
ENDBRANCH  29  32
ENDBRANCH  24  26
ENDBRANCH  21  24
ENDBRANCH   5  21
TORSDOF 8
