REMARK  Name = ZINC40805255
REMARK  6 active torsions:
REMARK  status: ('A' for Active; 'I' for Inactive)
REMARK    1  A    between atoms: C_1  and  C_2
REMARK    2  A    between atoms: C_11  and  C_13
REMARK    3  A    between atoms: C_11  and  C_14
REMARK    4  A    between atoms: C_19  and  C_22
REMARK    5  A    between atoms: C_25  and  O_28
REMARK    6  A    between atoms: O_28  and  C_29
REMARK                            x       y       z     vdW  Elec       q    Type
REMARK                         _______ _______ _______ _____ _____    ______ ____
ROOT
ATOM      1  C   UNL     1       0.304  -6.238   1.087  0.00  0.00    +0.272 C 
ATOM      2  O   UNL     1       0.207  -6.812   2.151  0.00  0.00    -0.270 OA
ATOM      3  N   UNL     1       0.052  -6.899  -0.060  0.00  0.00    -0.261 N 
ATOM      4  C   UNL     1      -0.319  -8.238  -0.024  0.00  0.00    +0.165 A 
ATOM      5  N   UNL     1      -0.600  -9.054  -1.022  0.00  0.00    -0.225 NA
ATOM      6  C   UNL     1      -0.939 -10.316  -0.805  0.00  0.00    +0.080 A 
ATOM      7  C   UNL     1      -1.000 -10.782   0.479  0.00  0.00    +0.076 A 
ATOM      8  S   UNL     1      -0.535  -9.314   1.387  0.00  0.00    -0.060 S 
ATOM      9  H   UNL     1       0.129  -6.440  -0.911  0.00  0.00    +0.157 HD
ENDROOT
BRANCH   1  20
ATOM     10  C   UNL     1      -0.018   1.503   0.010  0.00  0.00    +0.044 C 
ATOM     11  C   UNL     1       0.002  -0.004   0.002  0.00  0.00    -0.048 A 
ATOM     12  C   UNL     1       0.006  -0.687  -1.200  0.00  0.00    +0.007 A 
ATOM     13  C   UNL     1       0.019  -2.070  -1.216  0.00  0.00    +0.048 A 
ATOM     14  C   UNL     1       0.031  -2.773  -0.024  0.00  0.00    +0.144 A 
ATOM     15  C   UNL     1       0.038  -2.085   1.188  0.00  0.00    +0.076 A 
ATOM     16  C   UNL     1       0.023  -0.700   1.197  0.00  0.00    +0.030 A 
ATOM     17  N   UNL     1       0.086  -2.805   2.389  0.00  0.00    -0.279 N 
ATOM     18  C   UNL     1       0.342  -4.129   2.355  0.00  0.00    +0.270 C 
ATOM     19  O   UNL     1       0.279  -4.788   3.371  0.00  0.00    -0.271 OA
ATOM     20  C   UNL     1       0.706  -4.787   1.048  0.00  0.00    +0.258 C 
ATOM     21  O   UNL     1       0.025  -4.133  -0.026  0.00  0.00    -0.465 OA
ATOM     22  C   UNL     1       2.217  -4.684   0.830  0.00  0.00    +0.076 C 
ATOM     23  H   UNL     1      -0.063  -2.356   3.236  0.00  0.00    +0.155 HD
ENDBRANCH   1  20
BRANCH   6  24
ATOM     24  C   UNL     1      -1.251 -11.214  -1.943  0.00  0.00    +0.001 A 
ATOM     25  C   UNL     1      -1.614 -12.540  -1.708  0.00  0.00    +0.013 A 
ATOM     26  C   UNL     1      -1.903 -13.372  -2.769  0.00  0.00    +0.046 A 
ATOM     27  C   UNL     1      -1.834 -12.892  -4.069  0.00  0.00    +0.120 A 
ATOM     28  C   UNL     1      -1.474 -11.573  -4.307  0.00  0.00    +0.046 A 
ATOM     29  C   UNL     1      -1.188 -10.734  -3.250  0.00  0.00    +0.013 A 
BRANCH  27  30
ATOM     30  O   UNL     1      -2.120 -13.715  -5.112  0.00  0.00    -0.495 OA
ATOM     31  C   UNL     1      -2.029 -13.156  -6.424  0.00  0.00    +0.277 C 
ENDBRANCH  27  30
ENDBRANCH   6  24
TORSDOF 3
