REMARK  Name = ZINC13566989
REMARK  10 active torsions:
REMARK  status: ('A' for Active; 'I' for Inactive)
REMARK    1  A    between atoms: C_1  and  C_2
REMARK    2  A    between atoms: C_2  and  C_4
REMARK    3  A    between atoms: C_2  and  S_18
REMARK    4  A    between atoms: C_4  and  C_6
REMARK    5  A    between atoms: C_9  and  N_12
REMARK    6  A    between atoms: S_18  and  C_19
REMARK    7  A    between atoms: C_21  and  C_32
REMARK    8  A    between atoms: C_22  and  C_25
REMARK    9  A    between atoms: C_28  and  O_31
REMARK   10  A    between atoms: C_35  and  O_38
REMARK                            x       y       z     vdW  Elec       q    Type
REMARK                         _______ _______ _______ _____ _____    ______ ____
ROOT
ATOM      1  C   UNL     1      -2.528   0.208  -1.435  0.00  0.00    +0.211 A 
ATOM      2  N   UNL     1      -3.812   0.220  -1.771  0.00  0.00    -0.218 NA
ATOM      3  C   UNL     1      -4.152   0.382  -3.047  0.00  0.00    +0.102 A 
ATOM      4  C   UNL     1      -3.126   0.538  -4.003  0.00  0.00    +0.119 A 
ATOM      5  N   UNL     1      -1.861   0.516  -3.596  0.00  0.00    -0.145 NA
ATOM      6  N   UNL     1      -1.579   0.361  -2.350  0.00  0.00    -0.122 NA
ENDROOT
BRANCH   4   7
ATOM      7  C   UNL     1      -3.453   0.721  -5.435  0.00  0.00    +0.004 A 
ATOM      8  C   UNL     1      -2.792   1.695  -6.184  0.00  0.00    +0.014 A 
ATOM      9  C   UNL     1      -3.099   1.863  -7.518  0.00  0.00    +0.046 A 
ATOM     10  C   UNL     1      -4.066   1.065  -8.115  0.00  0.00    +0.117 A 
ATOM     11  C   UNL     1      -4.726   0.095  -7.373  0.00  0.00    +0.046 A 
ATOM     12  C   UNL     1      -4.419  -0.083  -6.040  0.00  0.00    +0.014 A 
BRANCH  10  13
ATOM     13  O   UNL     1      -4.366   1.233  -9.430  0.00  0.00    -0.507 OA
ATOM     14  H   UNL     1      -3.831   0.693 -10.028  0.00  0.00    +0.292 HD
ENDBRANCH  10  13
ENDBRANCH   4   7
BRANCH   3  15
ATOM     15  C   UNL     1      -5.575   0.399  -3.455  0.00  0.00    +0.003 A 
ATOM     16  C   UNL     1      -6.034   1.364  -4.354  0.00  0.00    +0.013 A 
ATOM     17  C   UNL     1      -7.359   1.376  -4.732  0.00  0.00    +0.046 A 
ATOM     18  C   UNL     1      -8.238   0.430  -4.220  0.00  0.00    +0.117 A 
ATOM     19  C   UNL     1      -7.785  -0.531  -3.325  0.00  0.00    +0.046 A 
ATOM     20  C   UNL     1      -6.460  -0.553  -2.947  0.00  0.00    +0.013 A 
BRANCH  18  21
ATOM     21  O   UNL     1      -9.543   0.446  -4.594  0.00  0.00    -0.507 OA
ATOM     22  H   UNL     1      -9.734  -0.089  -5.377  0.00  0.00    +0.292 HD
ENDBRANCH  18  21
ENDBRANCH   3  15
BRANCH   1  23
ATOM     23  S   UNL     1      -2.076  -0.006   0.255  0.00  0.00    -0.073 S 
BRANCH  23  25
ATOM     24  C   UNL     1       0.198   1.445  -0.200  0.00  0.00    +0.028 C 
ATOM     25  C   UNL     1      -0.263   0.052   0.235  0.00  0.00    +0.122 C 
BRANCH  25  26
ATOM     26  C   UNL     1       0.264  -0.243   1.615  0.00  0.00    +0.176 C 
ATOM     27  O   UNL     1      -0.428  -0.028   2.588  0.00  0.00    -0.291 OA
BRANCH  26  28
ATOM     28  C   UNL     1       1.616  -0.792   1.783  0.00  0.00    +0.019 A 
ATOM     29  C   UNL     1       2.419  -1.036   0.662  0.00  0.00    +0.013 A 
ATOM     30  C   UNL     1       3.681  -1.548   0.824  0.00  0.00    +0.024 A 
ATOM     31  C   UNL     1       4.164  -1.825   2.099  0.00  0.00    +0.036 A 
ATOM     32  C   UNL     1       3.369  -1.585   3.217  0.00  0.00    +0.024 A 
ATOM     33  C   UNL     1       2.108  -1.067   3.065  0.00  0.00    +0.013 A 
BRANCH  31  34
ATOM     34  N   UNL     1       5.446  -2.345   2.259  0.00  0.00    -0.271 N 
ATOM     35  C   UNL     1       6.095  -2.566   3.556  0.00  0.00    +0.114 C 
ATOM     36  C   UNL     1       7.270  -3.528   3.272  0.00  0.00    +0.029 C 
ATOM     37  C   UNL     1       7.560  -3.239   1.780  0.00  0.00    +0.098 C 
ATOM     38  C   UNL     1       6.246  -2.715   1.244  0.00  0.00    +0.220 C 
ATOM     39  O   UNL     1       5.958  -2.637   0.068  0.00  0.00    -0.275 OA
ENDBRANCH  31  34
ENDBRANCH  26  28
ENDBRANCH  25  26
ENDBRANCH  23  25
ENDBRANCH   1  23
TORSDOF 9
