REMARK  Name = ZINC20807609
REMARK  6 active torsions:
REMARK  status: ('A' for Active; 'I' for Inactive)
REMARK    1  A    between atoms: C_1  and  C_2
REMARK    2  A    between atoms: C_5  and  N_8
REMARK    3  A    between atoms: C_13  and  C_40
REMARK    4  A    between atoms: N_27  and  C_30
REMARK    5  A    between atoms: C_30  and  C_31
REMARK    6  A    between atoms: N_33  and  C_34
REMARK                            x       y       z     vdW  Elec       q    Type
REMARK                         _______ _______ _______ _____ _____    ______ ____
ROOT
ATOM      1  N   UNL     1       0.074  -4.200  -0.064  0.00  0.00    -0.210 N 
ATOM      2  C   UNL     1      -0.024  -4.923  -1.186  0.00  0.00    +0.232 C 
ATOM      3  O   UNL     1      -0.135  -4.468  -2.304  0.00  0.00    -0.274 OA
ATOM      4  C   UNL     1       0.027  -6.394  -0.842  0.00  0.00    +0.107 C 
ATOM      5  C   UNL     1      -1.346  -7.034  -1.137  0.00  0.00    +0.064 C 
ATOM      6  N   UNL     1      -2.139  -6.826   0.104  0.00  0.00    -0.296 NA
ATOM      7  C   UNL     1      -1.165  -7.029   1.192  0.00  0.00    +0.136 C 
ATOM      8  C   UNL     1       0.162  -6.396   0.706  0.00  0.00    +0.123 C 
ATOM      9  C   UNL     1       0.190  -4.925   1.055  0.00  0.00    +0.233 C 
ATOM     10  O   UNL     1       0.297  -4.472   2.174  0.00  0.00    -0.274 OA
ATOM     11  C   UNL     1      -1.637  -6.412   2.478  0.00  0.00    +0.004 A 
ATOM     12  C   UNL     1      -1.970  -5.128   2.848  0.00  0.00    +0.008 A 
ATOM     13  C   UNL     1      -2.384  -4.865   4.142  0.00  0.00    +0.000 A 
ATOM     14  C   UNL     1      -2.462  -5.895   5.062  0.00  0.00    +0.002 A 
ATOM     15  C   UNL     1      -2.128  -7.182   4.697  0.00  0.00    +0.024 A 
ATOM     16  C   UNL     1      -1.711  -7.456   3.396  0.00  0.00    +0.042 A 
ATOM     17  N   UNL     1      -1.324  -8.656   2.796  0.00  0.00    -0.260 N 
ATOM     18  C   UNL     1      -0.988  -8.491   1.502  0.00  0.00    +0.246 C 
ATOM     19  O   UNL     1      -0.615  -9.353   0.735  0.00  0.00    -0.273 OA
ATOM     20  C   UNL     1      -2.015  -6.337  -2.322  0.00  0.00    +0.025 C 
ATOM     21  H   UNL     1      -2.525  -5.894   0.134  0.00  0.00    +0.123 HD
ENDROOT
BRANCH   1  26
ATOM     22  C   UNL     1       0.026   1.475  -0.054  0.00  0.00    +0.044 C 
ATOM     23  C   UNL     1       0.039  -0.032  -0.057  0.00  0.00    -0.050 A 
ATOM     24  C   UNL     1       1.094  -0.714   0.520  0.00  0.00    +0.005 A 
ATOM     25  C   UNL     1       1.108  -2.095   0.520  0.00  0.00    +0.024 A 
ATOM     26  C   UNL     1       0.062  -2.798  -0.061  0.00  0.00    +0.044 A 
ATOM     27  C   UNL     1      -0.996  -2.111  -0.639  0.00  0.00    +0.024 A 
ATOM     28  C   UNL     1      -1.008  -0.730  -0.631  0.00  0.00    +0.005 A 
ENDBRANCH   1  26
BRANCH  17  29
ATOM     29  C   UNL     1      -1.289  -9.944   3.492  0.00  0.00    +0.209 C 
BRANCH  29  30
ATOM     30  C   UNL     1      -2.623 -10.629   3.349  0.00  0.00    +0.235 C 
ATOM     31  O   UNL     1      -3.516 -10.094   2.727  0.00  0.00    -0.274 OA
ATOM     32  N   UNL     1      -2.825 -11.837   3.913  0.00  0.00    -0.284 N 
ATOM     33  H   UNL     1      -2.140 -12.229   4.476  0.00  0.00    +0.155 HD
BRANCH  32  34
ATOM     34  C   UNL     1      -4.022 -12.525   3.685  0.00  0.00    +0.033 A 
ATOM     35  C   UNL     1      -4.580 -13.303   4.691  0.00  0.00    +0.023 A 
ATOM     36  C   UNL     1      -5.761 -13.980   4.462  0.00  0.00    +0.002 A 
ATOM     37  C   UNL     1      -6.388 -13.885   3.233  0.00  0.00    +0.000 A 
ATOM     38  C   UNL     1      -5.835 -13.111   2.230  0.00  0.00    +0.002 A 
ATOM     39  C   UNL     1      -4.657 -12.426   2.454  0.00  0.00    +0.023 A 
ENDBRANCH  32  34
ENDBRANCH  29  30
ENDBRANCH  17  29
TORSDOF 4
