REMARK  Name = ZINC26726177
REMARK  9 active torsions:
REMARK  status: ('A' for Active; 'I' for Inactive)
REMARK    1  A    between atoms: C_1  and  C_2
REMARK    2  A    between atoms: C_2  and  O_3
REMARK    3  A    between atoms: O_3  and  C_4
REMARK    4  A    between atoms: C_4  and  C_6
REMARK    5  A    between atoms: C_7  and  C_22
REMARK    6  A    between atoms: C_12  and  C_14
REMARK    7  A    between atoms: C_17  and  O_20
REMARK    8  A    between atoms: O_20  and  C_21
REMARK    9  A    between atoms: C_22  and  N_23
REMARK                            x       y       z     vdW  Elec       q    Type
REMARK                         _______ _______ _______ _____ _____    ______ ____
ROOT
ATOM      1  C   UNL     1      -1.126   1.432   1.184  0.00  0.00    +0.080 C 
ATOM      2  C   UNL     1      -0.471   2.250   2.036  0.00  0.00    +0.041 C 
ATOM      3  N   UNL     1       0.827   2.609   1.812  0.00  0.00    -0.271 N 
ATOM      4  C   UNL     1       1.541   2.192   0.758  0.00  0.00    +0.304 C 
ATOM      5  O   UNL     1       2.692   2.565   0.643  0.00  0.00    -0.252 OA
ATOM      6  N   UNL     1       1.025   1.371  -0.178  0.00  0.00    -0.288 N 
ATOM      7  C   UNL     1      -0.371   0.926  -0.028  0.00  0.00    +0.144 C 
ATOM      8  H   UNL     1       1.343   3.276   2.517  0.00  0.00    +0.156 HD
ATOM      9  H   UNL     1       1.620   1.034  -1.040  0.00  0.00    +0.151 HD
ENDROOT
BRANCH   7  10
ATOM     10  C   UNL     1      -1.129   1.351  -1.258  0.00  0.00    -0.022 A 
ATOM     11  C   UNL     1      -0.948   2.621  -1.776  0.00  0.00    +0.009 A 
ATOM     12  C   UNL     1      -1.638   3.011  -2.908  0.00  0.00    +0.046 A 
ATOM     13  C   UNL     1      -2.522   2.133  -3.517  0.00  0.00    +0.120 A 
ATOM     14  C   UNL     1      -2.707   0.862  -2.992  0.00  0.00    +0.046 A 
ATOM     15  C   UNL     1      -2.010   0.474  -1.864  0.00  0.00    +0.009 A 
BRANCH  13  16
ATOM     16  O   UNL     1      -3.207   2.517  -4.626  0.00  0.00    -0.495 OA
ATOM     17  C   UNL     1      -2.967   3.840  -5.111  0.00  0.00    +0.277 C 
ENDBRANCH  13  16
ENDBRANCH   7  10
BRANCH   1  18
ATOM     18  C   UNL     1      -2.471   1.060   1.416  0.00  0.00    +0.339 C 
ATOM     19  O   UNL     1      -3.087   1.551   2.343  0.00  0.00    -0.245 OA
BRANCH  18  20
ATOM     20  O   UNL     1      -3.070   0.159   0.609  0.00  0.00    -0.462 OA
BRANCH  20  22
ATOM     21  C   UNL     1      -4.935  -1.198  -0.113  0.00  0.00    +0.048 C 
ATOM     22  C   UNL     1      -4.430  -0.170   0.901  0.00  0.00    +0.229 C 
ENDBRANCH  20  22
ENDBRANCH  18  20
ENDBRANCH   1  18
BRANCH   2  23
ATOM     23  C   UNL     1      -1.185   2.776   3.255  0.00  0.00    +0.156 C 
BRANCH  23  24
ATOM     24  N   UNL     1      -1.750   4.099   2.958  0.00  0.00    -0.322 N 
ATOM     25  C   UNL     1      -2.845   3.997   1.991  0.00  0.00    +0.106 C 
ATOM     26  C   UNL     1      -3.373   5.407   1.698  0.00  0.00    +0.024 C 
ATOM     27  C   UNL     1      -2.287   6.167   0.932  0.00  0.00    +0.039 C 
ATOM     28  C   UNL     1      -0.957   5.983   1.620  0.00  0.00    -0.021 A 
ATOM     29  C   UNL     1      -0.751   4.993   2.564  0.00  0.00    +0.069 A 
ATOM     30  C   UNL     1       0.505   4.866   3.162  0.00  0.00    +0.147 A 
ATOM     31  C   UNL     1       1.532   5.723   2.821  0.00  0.00    +0.078 A 
ATOM     32  C   UNL     1       1.318   6.716   1.879  0.00  0.00    +0.126 A 
ATOM     33  C   UNL     1       0.077   6.842   1.283  0.00  0.00    +0.044 A 
ATOM     34  F   UNL     1       2.319   7.558   1.544  0.00  0.00    -0.205 F 
ATOM     35  F   UNL     1       0.716   3.898   4.081  0.00  0.00    -0.203 F 
ENDBRANCH  23  24
ENDBRANCH   2  23
TORSDOF 7
