REMARK  Name = ZINC27981922
REMARK  5 active torsions:
REMARK  status: ('A' for Active; 'I' for Inactive)
REMARK    1  A    between atoms: C_3  and  C_8
REMARK    2  A    between atoms: N_10  and  C_11
REMARK    3  A    between atoms: C_14  and  N_17
REMARK    4  A    between atoms: N_20  and  C_21
REMARK    5  A    between atoms: C_21  and  C_22
REMARK                            x       y       z     vdW  Elec       q    Type
REMARK                         _______ _______ _______ _____ _____    ______ ____
ROOT
ATOM      1  C   UNL     1       6.013   2.247   0.066  0.00  0.00    +0.034 A 
ATOM      2  C   UNL     1       5.935   3.630   0.165  0.00  0.00    +0.025 A 
ATOM      3  C   UNL     1       7.090   4.383   0.241  0.00  0.00    +0.025 A 
ATOM      4  C   UNL     1       8.329   3.757   0.217  0.00  0.00    +0.035 A 
ATOM      5  C   UNL     1       8.407   2.374   0.118  0.00  0.00    +0.025 A 
ATOM      6  C   UNL     1       7.252   1.621   0.048  0.00  0.00    +0.025 A 
ENDROOT
BRANCH   4   7
ATOM      7  N   UNL     1       9.501   4.520   0.294  0.00  0.00    -0.269 N 
ATOM      8  C   UNL     1      10.600   4.139  -0.387  0.00  0.00    +0.304 C 
ATOM      9  O   UNL     1      10.601   3.089  -1.000  0.00  0.00    -0.252 OA
ATOM     10  N   UNL     1      11.697   4.921  -0.389  0.00  0.00    -0.292 N 
ATOM     11  H   UNL     1       9.522   5.324   0.837  0.00  0.00    +0.156 HD
ATOM     12  H   UNL     1      11.696   5.759   0.100  0.00  0.00    +0.151 HD
BRANCH  10  13
ATOM     13  C   UNL     1      12.892   4.506  -1.129  0.00  0.00    +0.180 C 
BRANCH  13  14
ATOM     14  C   UNL     1      13.968   5.549  -0.971  0.00  0.00    +0.122 A 
ATOM     15  C   UNL     1      14.903   5.573  -0.004  0.00  0.00    +0.046 A 
ATOM     16  C   UNL     1      15.702   6.717  -0.235  0.00  0.00    +0.041 A 
ATOM     17  C   UNL     1      15.207   7.323  -1.329  0.00  0.00    +0.195 A 
ATOM     18  O   UNL     1      14.160   6.608  -1.774  0.00  0.00    -0.466 OA
ENDBRANCH  13  14
ENDBRANCH  10  13
ENDBRANCH   4   7
BRANCH   1  21
ATOM     19  C   UNL     1       4.787   0.272   0.578  0.00  0.00    +0.248 C 
ATOM     20  O   UNL     1       5.779  -0.194   1.102  0.00  0.00    -0.270 OA
ATOM     21  N   UNL     1       4.841   1.484  -0.011  0.00  0.00    -0.282 N 
ATOM     22  H   UNL     1       4.069   1.827  -0.487  0.00  0.00    +0.155 HD
BRANCH  19  25
ATOM     23  C   UNL     1       2.274  -2.450   1.198  0.00  0.00    +0.002 A 
ATOM     24  C   UNL     1       3.460  -1.744   1.194  0.00  0.00    +0.013 A 
ATOM     25  C   UNL     1       3.520  -0.489   0.585  0.00  0.00    +0.038 A 
ATOM     26  C   UNL     1       2.378   0.044  -0.015  0.00  0.00    +0.028 A 
ATOM     27  C   UNL     1       1.198  -0.672  -0.004  0.00  0.00    +0.019 A 
ATOM     28  C   UNL     1       1.146  -1.917   0.602  0.00  0.00    +0.015 A 
ATOM     29 BR   UNL     1      -0.350   0.047  -0.817  0.00  0.00    -0.050 Br
ENDBRANCH  19  25
ENDBRANCH   1  21
TORSDOF 5
