REMARK  Name = ZINC35379142
REMARK  8 active torsions:
REMARK  status: ('A' for Active; 'I' for Inactive)
REMARK    1  A    between atoms: C_1  and  C_2
REMARK    2  A    between atoms: C_4  and  C_35
REMARK    3  A    between atoms: C_6  and  N_8
REMARK    4  A    between atoms: C_9  and  C_11
REMARK    5  A    between atoms: N_16  and  S_18
REMARK    6  A    between atoms: S_18  and  C_21
REMARK    7  A    between atoms: C_26  and  C_27
REMARK    8  A    between atoms: C_31  and  C_34
REMARK                            x       y       z     vdW  Elec       q    Type
REMARK                         _______ _______ _______ _____ _____    ______ ____
ROOT
ATOM      1  C   UNL     1       0.243  -3.134   4.813  0.00  0.00    +0.091 C 
ATOM      2  C   UNL     1      -0.975  -4.028   5.059  0.00  0.00    +0.015 C 
ATOM      3  C   UNL     1      -0.818  -4.748   6.401  0.00  0.00    +0.018 C 
ATOM      4  C   UNL     1      -0.743  -3.712   7.526  0.00  0.00    +0.109 C 
ATOM      5  N   UNL     1       0.334  -2.760   7.222  0.00  0.00    -0.176 NA
ATOM      6  C   UNL     1       0.330  -2.079   5.920  0.00  0.00    +0.122 C 
ENDROOT
BRANCH   1   8
ATOM      7  N   UNL     1       0.006  -3.185   2.351  0.00  0.00    -0.285 N 
ATOM      8  C   UNL     1       0.102  -2.450   3.477  0.00  0.00    +0.222 C 
ATOM      9  O   UNL     1       0.076  -1.239   3.416  0.00  0.00    -0.275 OA
ATOM     10  H   UNL     1      -0.045  -4.152   2.406  0.00  0.00    +0.155 HD
BRANCH   7  16
ATOM     11  C   UNL     1      -1.611  -3.045  -2.290  0.00  0.00    +0.044 C 
ATOM     12  C   UNL     1      -0.796  -2.463  -1.164  0.00  0.00    -0.048 A 
ATOM     13  C   UNL     1      -0.073  -1.301  -1.364  0.00  0.00    +0.006 A 
ATOM     14  C   UNL     1       0.676  -0.763  -0.334  0.00  0.00    -0.048 A 
ATOM     15  C   UNL     1       0.704  -1.385   0.899  0.00  0.00    +0.026 A 
ATOM     16  C   UNL     1      -0.021  -2.552   1.103  0.00  0.00    +0.034 A 
ATOM     17  C   UNL     1      -0.776  -3.087   0.068  0.00  0.00    +0.026 A 
ATOM     18  C   UNL     1       1.463   0.503  -0.556  0.00  0.00    +0.044 C 
ENDBRANCH   7  16
ENDBRANCH   1   8
BRANCH   5  19
ATOM     19  S   UNL     1       1.532  -2.461   8.326  0.00  0.00    +0.061 S 
ATOM     20  O   UNL     1       1.958  -1.123   8.110  0.00  0.00    -0.153 OA
ATOM     21  O   UNL     1       1.047  -2.911   9.584  0.00  0.00    -0.153 OA
BRANCH  19  22
ATOM     22  C   UNL     1       2.894  -3.497   7.912  0.00  0.00    +0.112 A 
ATOM     23  C   UNL     1       4.066  -2.937   7.433  0.00  0.00    +0.076 A 
ATOM     24  C   UNL     1       5.136  -3.751   7.108  0.00  0.00    +0.145 A 
ATOM     25  C   UNL     1       5.030  -5.133   7.263  0.00  0.00    +0.076 A 
ATOM     26  C   UNL     1       3.856  -5.687   7.743  0.00  0.00    +0.032 A 
ATOM     27  C   UNL     1       2.792  -4.867   8.071  0.00  0.00    -0.022 A 
ATOM     28  C   UNL     1       1.514  -5.467   8.599  0.00  0.00    +0.046 C 
ATOM     29  N   UNL     1       6.122  -5.946   6.928  0.00  0.00    -0.280 N 
ATOM     30  C   UNL     1       7.337  -5.377   6.768  0.00  0.00    +0.258 C 
ATOM     31  O   UNL     1       8.290  -6.056   6.448  0.00  0.00    -0.271 OA
ATOM     32  C   UNL     1       7.504  -3.896   6.989  0.00  0.00    +0.256 C 
ATOM     33  O   UNL     1       6.295  -3.218   6.637  0.00  0.00    -0.478 OA
ATOM     34  C   UNL     1       7.824  -3.633   8.461  0.00  0.00    +0.062 C 
ATOM     35  H   UNL     1       6.007  -6.902   6.812  0.00  0.00    +0.155 HD
ENDBRANCH  19  22
ENDBRANCH   5  19
TORSDOF 4
