REMARK  Name = ZINC19826291
REMARK  8 active torsions:
REMARK  status: ('A' for Active; 'I' for Inactive)
REMARK    1  A    between atoms: C_1  and  C_2
REMARK    2  A    between atoms: C_5  and  C_8
REMARK    3  A    between atoms: C_8  and  C_30
REMARK    4  A    between atoms: N_9  and  N_10
REMARK    5  A    between atoms: C_11  and  C_13
REMARK    6  A    between atoms: C_13  and  N_14
REMARK    7  A    between atoms: N_17  and  S_20
REMARK    8  A    between atoms: S_20  and  C_23
REMARK                            x       y       z     vdW  Elec       q    Type
REMARK                         _______ _______ _______ _____ _____    ______ ____
ROOT
ATOM      1  N   UNL     1      -0.462   1.100  -2.423  0.00  0.00    +0.387 N 
ATOM      2  C   UNL     1      -0.678  -0.322  -2.720  0.00  0.00    -0.061 C 
ATOM      3  C   UNL     1       0.115  -1.175  -1.724  0.00  0.00    +0.091 C 
ATOM      4  N   UNL     1      -0.247  -0.764  -0.359  0.00  0.00    -0.180 NA
ATOM      5  C   UNL     1      -0.191   0.669  -0.028  0.00  0.00    +0.091 C 
ATOM      6  C   UNL     1      -0.972   1.449  -1.091  0.00  0.00    -0.061 C 
ATOM      7  H   UNL     1       0.624   1.281  -2.424  0.00  0.00    -0.081 HD
ENDROOT
BRANCH   4   8
ATOM      8  S   UNL     1      -0.709  -1.882   0.771  0.00  0.00    +0.061 S 
ATOM      9  O   UNL     1      -1.496  -1.188   1.730  0.00  0.00    -0.153 OA
ATOM     10  O   UNL     1      -1.199  -3.006   0.053  0.00  0.00    -0.153 OA
BRANCH   8  11
ATOM     11  C   UNL     1       0.749  -2.413   1.606  0.00  0.00    +0.106 A 
ATOM     12  C   UNL     1       1.460  -3.499   1.130  0.00  0.00    +0.029 A 
ATOM     13  C   UNL     1       2.607  -3.913   1.782  0.00  0.00    +0.017 A 
ATOM     14  C   UNL     1       3.036  -3.247   2.916  0.00  0.00    +0.018 A 
ATOM     15  C   UNL     1       2.321  -2.164   3.394  0.00  0.00    +0.017 A 
ATOM     16  C   UNL     1       1.178  -1.747   2.739  0.00  0.00    +0.029 A 
ATOM     17 BR   UNL     1       4.601  -3.817   3.811  0.00  0.00    -0.050 Br
ENDBRANCH   8  11
ENDBRANCH   4   8
BRANCH   1  18
ATOM     18  C   UNL     1      -1.064   1.952  -3.457  0.00  0.00    +0.020 C 
BRANCH  18  20
ATOM     19  N   UNL     1      -3.340   2.578  -4.197  0.00  0.00    -0.208 N 
ATOM     20  C   UNL     1      -2.561   1.780  -3.440  0.00  0.00    +0.216 C 
ATOM     21  O   UNL     1      -3.066   0.924  -2.744  0.00  0.00    -0.276 OA
ATOM     22  H   UNL     1      -2.882   3.355  -4.828  0.00  0.00    +0.177 HD
BRANCH  19  24
ATOM     23  C   UNL     1      -5.472   3.100  -5.000  0.00  0.00    +0.063 C 
ATOM     24  N   UNL     1      -4.731   2.419  -4.181  0.00  0.00    -0.185 NA
ATOM     25  C   UNL     1      -6.973   3.049  -4.879  0.00  0.00    +0.068 C 
BRANCH  23  30
ATOM     26  C   UNL     1      -3.026   6.319  -9.091  0.00  0.00    +0.044 C 
ATOM     27  C   UNL     1      -3.667   5.475  -8.019  0.00  0.00    -0.050 A 
ATOM     28  C   UNL     1      -3.085   4.277  -7.646  0.00  0.00    +0.004 A 
ATOM     29  C   UNL     1      -3.666   3.500  -6.665  0.00  0.00    +0.010 A 
ATOM     30  C   UNL     1      -4.845   3.926  -6.049  0.00  0.00    -0.003 A 
ATOM     31  C   UNL     1      -5.430   5.134  -6.435  0.00  0.00    +0.010 A 
ATOM     32  C   UNL     1      -4.835   5.903  -7.413  0.00  0.00    +0.004 A 
ENDBRANCH  23  30
ENDBRANCH  19  24
ENDBRANCH  18  20
ENDBRANCH   1  18
TORSDOF 6
