REMARK  Name = ZINC39836223
REMARK  5 active torsions:
REMARK  status: ('A' for Active; 'I' for Inactive)
REMARK    1  A    between atoms: C_1  and  C_2
REMARK    2  A    between atoms: C_9  and  N_22
REMARK    3  A    between atoms: C_10  and  C_11
REMARK    4  A    between atoms: N_13  and  C_14
REMARK    5  A    between atoms: C_23  and  C_25
REMARK                            x       y       z     vdW  Elec       q    Type
REMARK                         _______ _______ _______ _____ _____    ______ ____
ROOT
ATOM      1  C   UNL     1      -0.019   1.526   0.010  0.00  0.00    +0.008 C 
ATOM      2  C   UNL     1       0.002  -0.004   0.002  0.00  0.00    -0.009 C 
ATOM      3  C   UNL     1      -1.434  -0.537   0.019  0.00  0.00    +0.008 C 
ATOM      4  C   UNL     1      -1.433  -2.045  -0.237  0.00  0.00    +0.037 C 
ATOM      5  C   UNL     1      -0.464  -2.704   0.734  0.00  0.00    -0.023 A 
ATOM      6  C   UNL     1       0.485  -1.986   1.374  0.00  0.00    -0.004 A 
ATOM      7  S   UNL     1       1.344  -3.167   2.372  0.00  0.00    -0.077 S 
ATOM      8  C   UNL     1       0.493  -4.557   1.968  0.00  0.00    +0.085 A 
ATOM      9  C   UNL     1      -0.459  -4.119   1.060  0.00  0.00    +0.069 A 
ATOM     10  C   UNL     1       0.739  -0.515   1.248  0.00  0.00    +0.046 C 
ENDROOT
BRANCH   9  11
ATOM     11  C   UNL     1      -1.421  -5.046   0.455  0.00  0.00    +0.247 C 
ATOM     12  O   UNL     1      -1.148  -5.610  -0.588  0.00  0.00    -0.270 OA
ATOM     13  N   UNL     1      -2.607  -5.272   1.054  0.00  0.00    -0.307 N 
ATOM     14  H   UNL     1      -2.824  -4.822   1.885  0.00  0.00    +0.149 HD
BRANCH  13  15
ATOM     15  C   UNL     1      -3.568  -6.198   0.449  0.00  0.00    +0.096 C 
ATOM     16  C   UNL     1      -4.434  -5.450  -0.578  0.00  0.00    +0.046 C 
ATOM     17  C   UNL     1      -5.646  -6.323  -0.983  0.00  0.00    +0.168 C 
ATOM     18  S   UNL     1      -5.917  -7.356   0.515  0.00  0.00    -0.029 S 
ATOM     19  O   UNL     1      -5.709  -8.721   0.179  0.00  0.00    -0.174 OA
ATOM     20  O   UNL     1      -7.136  -6.966   1.131  0.00  0.00    -0.174 OA
ATOM     21  C   UNL     1      -4.508  -6.771   1.548  0.00  0.00    +0.188 C 
ENDBRANCH  13  15
ENDBRANCH   9  11
BRANCH   8  22
ATOM     22  N   UNL     1       0.697  -5.846   2.433  0.00  0.00    -0.275 N 
ATOM     23  C   UNL     1       1.678  -6.095   3.323  0.00  0.00    +0.250 C 
ATOM     24  O   UNL     1       2.385  -5.187   3.716  0.00  0.00    -0.270 OA
ATOM     25  H   UNL     1       0.132  -6.570   2.119  0.00  0.00    +0.156 HD
BRANCH  23  26
ATOM     26  C   UNL     1       1.895  -7.468   3.819  0.00  0.00    +0.055 A 
ATOM     27  C   UNL     1       1.088  -8.514   3.364  0.00  0.00    +0.016 A 
ATOM     28  C   UNL     1       1.295  -9.794   3.831  0.00  0.00    +0.021 A 
ATOM     29  C   UNL     1       2.301 -10.046   4.750  0.00  0.00    +0.042 A 
ATOM     30  C   UNL     1       3.105  -9.015   5.206  0.00  0.00    +0.040 A 
ATOM     31  C   UNL     1       2.912  -7.729   4.742  0.00  0.00    +0.054 A 
ATOM     32 CL   UNL     1       3.926  -6.438   5.307  0.00  0.00    -0.083 Cl
ATOM     33 CL   UNL     1       2.555 -11.661   5.333  0.00  0.00    -0.083 Cl
ENDBRANCH  23  26
ENDBRANCH   8  22
TORSDOF 4
