REMARK  Name = ZINC09781058
REMARK  9 active torsions:
REMARK  status: ('A' for Active; 'I' for Inactive)
REMARK    1  A    between atoms: C_1  and  C_2
REMARK    2  A    between atoms: C_2  and  C_37
REMARK    3  A    between atoms: C_6  and  C_27
REMARK    4  A    between atoms: C_11  and  S_15
REMARK    5  A    between atoms: S_15  and  C_16
REMARK    6  A    between atoms: C_16  and  C_17
REMARK    7  A    between atoms: C_30  and  N_33
REMARK    8  A    between atoms: N_33  and  C_34
REMARK    9  A    between atoms: N_33  and  C_35
REMARK                            x       y       z     vdW  Elec       q    Type
REMARK                         _______ _______ _______ _____ _____    ______ ____
ROOT
ATOM      1  C   UNL     1      -0.019   1.526   0.010  0.00  0.00    +0.011 C 
ATOM      2  C   UNL     1       0.002  -0.004   0.002  0.00  0.00    -0.023 C 
ATOM      3  C   UNL     1      -1.433  -0.540   0.040  0.00  0.00    +0.086 C 
ATOM      4  C   UNL     1      -1.392  -2.041   0.120  0.00  0.00    +0.162 C 
ATOM      5  C   UNL     1      -0.308  -2.712   0.715  0.00  0.00    +0.024 C 
ATOM      6  C   UNL     1      -0.339  -4.219   0.725  0.00  0.00    +0.092 C 
ATOM      7  C   UNL     1       0.630  -4.780   1.722  0.00  0.00    +0.071 A 
ATOM      8  C   UNL     1       1.653  -3.995   2.237  0.00  0.00    +0.135 A 
ATOM      9  N   UNL     1       2.500  -4.522   3.115  0.00  0.00    -0.206 NA
ATOM     10  C   UNL     1       2.371  -5.784   3.501  0.00  0.00    +0.194 A 
ATOM     11  N   UNL     1       1.405  -6.561   3.032  0.00  0.00    -0.183 NA
ATOM     12  C   UNL     1       0.524  -6.098   2.150  0.00  0.00    +0.280 A 
ATOM     13  O   UNL     1      -0.460  -6.899   1.675  0.00  0.00    -0.265 OA
ATOM     14  N   UNL     1       1.777  -2.676   1.833  0.00  0.00    -0.302 N 
ATOM     15  C   UNL     1       0.722  -2.026   1.254  0.00  0.00    +0.017 C 
ATOM     16  C   UNL     1       0.741  -0.516   1.240  0.00  0.00    +0.058 C 
ATOM     17  O   UNL     1      -2.313  -2.687  -0.338  0.00  0.00    -0.292 OA
ATOM     18  C   UNL     1       0.706  -0.503  -1.262  0.00  0.00    +0.011 C 
ATOM     19  H   UNL     1       2.618  -2.210   1.961  0.00  0.00    +0.153 HD
ENDROOT
BRANCH   6  20
ATOM     20  C   UNL     1       0.018  -4.729  -0.647  0.00  0.00    -0.035 A 
ATOM     21  C   UNL     1       1.248  -4.422  -1.199  0.00  0.00    +0.006 A 
ATOM     22  C   UNL     1       1.578  -4.887  -2.457  0.00  0.00    +0.023 A 
ATOM     23  C   UNL     1       0.673  -5.665  -3.167  0.00  0.00    +0.029 A 
ATOM     24  C   UNL     1      -0.562  -5.972  -2.610  0.00  0.00    +0.023 A 
ATOM     25  C   UNL     1      -0.884  -5.508  -1.350  0.00  0.00    +0.006 A 
BRANCH  23  26
ATOM     26  N   UNL     1       1.003  -6.137  -4.440  0.00  0.00    -0.336 N 
ATOM     27  C   UNL     1       2.306  -5.812  -5.026  0.00  0.00    +0.129 C 
ATOM     28  C   UNL     1       0.047  -6.957  -5.188  0.00  0.00    +0.129 C 
ENDBRANCH  23  26
ENDBRANCH   6  20
BRANCH  10  29
ATOM     29  S   UNL     1       3.514  -6.446   4.667  0.00  0.00    -0.081 S 
BRANCH  29  30
ATOM     30  C   UNL     1       2.966  -8.160   4.894  0.00  0.00    +0.115 C 
BRANCH  30  31
ATOM     31  C   UNL     1       3.871  -8.850   5.882  0.00  0.00    -0.002 A 
ATOM     32  C   UNL     1       5.003  -9.508   5.440  0.00  0.00    +0.007 A 
ATOM     33  C   UNL     1       5.834 -10.141   6.346  0.00  0.00    +0.000 A 
ATOM     34  C   UNL     1       5.533 -10.116   7.695  0.00  0.00    +0.003 A 
ATOM     35  C   UNL     1       4.402  -9.458   8.140  0.00  0.00    +0.038 A 
ATOM     36  C   UNL     1       3.572  -8.819   7.234  0.00  0.00    +0.127 A 
ATOM     37  F   UNL     1       2.469  -8.172   7.668  0.00  0.00    -0.205 F 
ENDBRANCH  30  31
ENDBRANCH  29  30
ENDBRANCH  10  29
TORSDOF 5
