REMARK  Name = ZINC36312029
REMARK  9 active torsions:
REMARK  status: ('A' for Active; 'I' for Inactive)
REMARK    1  A    between atoms: C_1  and  C_2
REMARK    2  A    between atoms: C_2  and  C_3
REMARK    3  A    between atoms: C_2  and  C_4
REMARK    4  A    between atoms: C_2  and  C_5
REMARK    5  A    between atoms: C_8  and  C_11
REMARK    6  A    between atoms: N_16  and  C_19
REMARK    7  A    between atoms: C_19  and  C_21
REMARK    8  A    between atoms: C_19  and  C_26
REMARK    9  A    between atoms: N_28  and  C_29
REMARK                            x       y       z     vdW  Elec       q    Type
REMARK                         _______ _______ _______ _____ _____    ______ ____
ROOT
ATOM      1  C   UNL     1       2.605  -2.366  -4.387  0.00  0.00    +0.246 C 
ATOM      2  O   UNL     1       2.092  -3.374  -4.832  0.00  0.00    -0.270 OA
ATOM      3  N   UNL     1       3.788  -1.942  -4.872  0.00  0.00    -0.301 N 
ATOM      4  C   UNL     1       4.500  -0.814  -4.252  0.00  0.00    +0.089 C 
ATOM      5  C   UNL     1       5.948  -1.239  -3.988  0.00  0.00    -0.058 C 
ATOM      6  N   UNL     1       6.551  -1.722  -5.237  0.00  0.00    +0.390 N 
ATOM      7  C   UNL     1       5.859  -2.936  -5.689  0.00  0.00    -0.058 C 
ATOM      8  C   UNL     1       4.409  -2.598  -6.034  0.00  0.00    +0.089 C 
ATOM      9  H   UNL     1       6.472  -1.008  -5.945  0.00  0.00    -0.081 HD
ENDROOT
BRANCH   1  13
ATOM     10  C   UNL     1       0.666  -0.178  -1.305  0.00  0.00    -0.042 A 
ATOM     11  C   UNL     1       0.496  -1.549  -1.389  0.00  0.00    +0.005 A 
ATOM     12  C   UNL     1       1.122  -2.265  -2.388  0.00  0.00    +0.013 A 
ATOM     13  C   UNL     1       1.930  -1.604  -3.315  0.00  0.00    +0.037 A 
ATOM     14  C   UNL     1       2.098  -0.222  -3.225  0.00  0.00    +0.013 A 
ATOM     15  C   UNL     1       1.461   0.484  -2.224  0.00  0.00    +0.005 A 
BRANCH  10  17
ATOM     16  C   UNL     1      -0.958   1.635  -0.834  0.00  0.00    +0.015 C 
ATOM     17  C   UNL     1      -0.021   0.598  -0.212  0.00  0.00    -0.013 C 
ATOM     18  C   UNL     1       1.028   1.308   0.647  0.00  0.00    +0.015 C 
ATOM     19  C   UNL     1      -0.831  -0.361   0.662  0.00  0.00    +0.015 C 
ENDBRANCH  10  17
ENDBRANCH   1  13
BRANCH   6  20
ATOM     20  C   UNL     1       7.970  -2.026  -5.009  0.00  0.00    +0.023 C 
BRANCH  20  21
ATOM     21  C   UNL     1       8.689  -0.766  -4.523  0.00  0.00    -0.016 C 
ATOM     22  C   UNL     1       8.617   0.334  -5.603  0.00  0.00    +0.002 C 
ATOM     23  C   UNL     1       9.993   1.040  -5.518  0.00  0.00    +0.000 C 
ATOM     24  C   UNL     1      10.965  -0.137  -5.249  0.00  0.00    +0.000 C 
ATOM     25  C   UNL     1      10.182  -1.065  -4.298  0.00  0.00    +0.002 C 
ENDBRANCH  20  21
BRANCH  20  26
ATOM     26  C   UNL     1       8.596  -2.497  -6.296  0.00  0.00    +0.204 C 
ATOM     27  O   UNL     1       8.161  -2.108  -7.360  0.00  0.00    -0.277 OA
ATOM     28  N   UNL     1       9.639  -3.350  -6.265  0.00  0.00    -0.285 N 
ATOM     29  H   UNL     1       9.935  -3.723  -5.421  0.00  0.00    +0.155 HD
BRANCH  28  30
ATOM     30  C   UNL     1      10.296  -3.697  -7.454  0.00  0.00    +0.069 A 
ATOM     31  C   UNL     1      10.113  -2.932  -8.598  0.00  0.00    +0.029 A 
ATOM     32  C   UNL     1      10.761  -3.276  -9.768  0.00  0.00    +0.040 A 
ATOM     33  C   UNL     1      11.592  -4.382  -9.803  0.00  0.00    +0.126 A 
ATOM     34  C   UNL     1      11.777  -5.148  -8.664  0.00  0.00    +0.078 A 
ATOM     35  C   UNL     1      11.135  -4.804  -7.488  0.00  0.00    +0.147 A 
ATOM     36  F   UNL     1      11.319  -5.548  -6.375  0.00  0.00    -0.203 F 
ATOM     37  F   UNL     1      12.225  -4.716 -10.949  0.00  0.00    -0.205 F 
ENDBRANCH  28  30
ENDBRANCH  20  26
ENDBRANCH   6  20
TORSDOF 6
