REMARK  Name = ZINC09295313
REMARK  6 active torsions:
REMARK  status: ('A' for Active; 'I' for Inactive)
REMARK    1  A    between atoms: C_4  and  N_7
REMARK    2  A    between atoms: C_8  and  C_10
REMARK    3  A    between atoms: C_12  and  C_29
REMARK    4  A    between atoms: C_16  and  C_21
REMARK    5  A    between atoms: C_21  and  O_22
REMARK    6  A    between atoms: O_22  and  C_23
REMARK                            x       y       z     vdW  Elec       q    Type
REMARK                         _______ _______ _______ _____ _____    ______ ____
ROOT
ATOM      1  C   UNL     1      -2.476   0.800   0.132  0.00  0.00    +0.166 C 
ATOM      2  C   UNL     1      -3.559   1.649   0.811  0.00  0.00    +0.140 C 
ATOM      3  N   UNL     1      -4.702   0.815   1.187  0.00  0.00    -0.272 N 
ATOM      4  N   UNL     1      -5.288   0.185   0.136  0.00  0.00    -0.222 N 
ATOM      5  C   UNL     1      -6.556  -0.315   0.066  0.00  0.00    +0.189 A 
ATOM      6  N   UNL     1      -6.697  -0.854  -1.114  0.00  0.00    -0.128 NA
ATOM      7  N   UNL     1      -5.610  -0.725  -1.793  0.00  0.00    -0.121 NA
ATOM      8  C   UNL     1      -4.722  -0.093  -1.076  0.00  0.00    +0.209 A 
ATOM      9  S   UNL     1      -3.075   0.353  -1.525  0.00  0.00    -0.069 S 
ATOM     10  H   UNL     1      -4.446   0.156   1.907  0.00  0.00    +0.167 HD
ENDROOT
BRANCH   2  11
ATOM     11  C   UNL     1      -2.986   2.295   2.045  0.00  0.00    -0.024 A 
ATOM     12  C   UNL     1      -2.875   1.569   3.216  0.00  0.00    +0.008 A 
ATOM     13  C   UNL     1      -2.344   2.159   4.348  0.00  0.00    +0.038 A 
ATOM     14  C   UNL     1      -1.934   3.481   4.312  0.00  0.00    +0.123 A 
ATOM     15  C   UNL     1      -2.051   4.209   3.140  0.00  0.00    +0.038 A 
ATOM     16  C   UNL     1      -2.577   3.615   2.008  0.00  0.00    +0.008 A 
ATOM     17  F   UNL     1      -1.421   4.060   5.419  0.00  0.00    -0.205 F 
ENDBRANCH   2  11
BRANCH   1  19
ATOM     18  N   UNL     1      -0.011   0.966   0.007  0.00  0.00    -0.285 N 
ATOM     19  C   UNL     1      -1.202   1.597   0.017  0.00  0.00    +0.233 C 
ATOM     20  O   UNL     1      -1.248   2.806  -0.067  0.00  0.00    -0.274 OA
ATOM     21  H   UNL     1       0.024  -0.004   0.007  0.00  0.00    +0.155 HD
BRANCH  18  25
ATOM     22  C   UNL     1       3.519   3.178  -0.038  0.00  0.00    +0.000 A 
ATOM     23  C   UNL     1       3.462   1.983   0.656  0.00  0.00    +0.002 A 
ATOM     24  C   UNL     1       2.293   1.248   0.673  0.00  0.00    +0.023 A 
ATOM     25  C   UNL     1       1.174   1.709  -0.008  0.00  0.00    +0.033 A 
ATOM     26  C   UNL     1       1.236   2.906  -0.708  0.00  0.00    +0.023 A 
ATOM     27  C   UNL     1       2.406   3.640  -0.717  0.00  0.00    +0.002 A 
ENDBRANCH  18  25
ENDBRANCH   1  19
BRANCH   5  28
ATOM     28  C   UNL     1      -7.601  -0.256   1.151  0.00  0.00    +0.306 C 
BRANCH  28  29
ATOM     29  O   UNL     1      -7.494  -1.416   1.979  0.00  0.00    -0.484 OA
BRANCH  29  30
ATOM     30  C   UNL     1      -8.370  -1.518   3.013  0.00  0.00    +0.121 A 
ATOM     31  C   UNL     1      -9.309  -0.521   3.230  0.00  0.00    +0.045 A 
ATOM     32  C   UNL     1     -10.202  -0.630   4.278  0.00  0.00    +0.004 A 
ATOM     33  C   UNL     1     -10.153  -1.728   5.118  0.00  0.00    +0.000 A 
ATOM     34  C   UNL     1      -9.214  -2.721   4.907  0.00  0.00    +0.004 A 
ATOM     35  C   UNL     1      -8.322  -2.619   3.857  0.00  0.00    +0.045 A 
ENDBRANCH  29  30
ENDBRANCH  28  29
ENDBRANCH   5  28
TORSDOF 6
