REMARK  Name = ZINC65349076
REMARK  3 active torsions:
REMARK  status: ('A' for Active; 'I' for Inactive)
REMARK    1  A    between atoms: C_3  and  C_14
REMARK    2  A    between atoms: C_5  and  C_7
REMARK    3  A    between atoms: C_16  and  C_21
REMARK                            x       y       z     vdW  Elec       q    Type
REMARK                         _______ _______ _______ _____ _____    ______ ____
ROOT
ATOM      1  C   UNL     1       0.198   1.475  -0.109  0.00  0.00    +0.001 A 
ATOM      2  C   UNL     1       1.372   2.199  -0.037  0.00  0.00    +0.008 A 
ATOM      3  C   UNL     1       2.599   1.540   0.018  0.00  0.00    -0.016 A 
ATOM      4  C   UNL     1       2.641   0.150   0.000  0.00  0.00    +0.021 A 
ATOM      5  C   UNL     1       1.454  -0.576  -0.072  0.00  0.00    +0.037 A 
ATOM      6  C   UNL     1       0.231   0.096  -0.127  0.00  0.00    +0.013 A 
ENDROOT
BRANCH   3   7
ATOM      7  C   UNL     1       3.860   2.320   0.094  0.00  0.00    -0.001 A 
ATOM      8  C   UNL     1       3.825   3.714   0.117  0.00  0.00    +0.028 A 
ATOM      9  C   UNL     1       5.039   4.405   0.190  0.00  0.00    +0.101 A 
ATOM     10  C   UNL     1       6.239   3.669   0.236  0.00  0.00    +0.108 A 
ATOM     11  N   UNL     1       6.218   2.345   0.211  0.00  0.00    -0.349 N 
ATOM     12  C   UNL     1       5.091   1.667   0.149  0.00  0.00    +0.092 A 
ATOM     13  N   UNL     1       7.447   4.334   0.308  0.00  0.00    -0.344 N 
ATOM     14  H   UNL     1       7.472   5.302   0.249  0.00  0.00    +0.144 HD
ATOM     15  H   UNL     1       8.270   3.833   0.418  0.00  0.00    +0.144 HD
ATOM     16  H   UNL     1       7.058   1.861   0.243  0.00  0.00    +0.167 HD
BRANCH   9  17
ATOM     17  C   UNL     1       5.062   5.875   0.217  0.00  0.00    +0.390 C 
ATOM     18  O   UNL     1       4.014   6.503   0.277  0.00  0.00    -0.240 OA
ATOM     19  O   UNL     1       6.130   6.471   0.180  0.00  0.00    -0.240 OA
ENDBRANCH   9  17
ENDBRANCH   3   7
BRANCH   5  20
ATOM     20  C   UNL     1       1.489  -2.054  -0.091  0.00  0.00    +0.247 C 
ATOM     21  O   UNL     1       2.551  -2.636  -0.196  0.00  0.00    -0.270 OA
ATOM     22  N   UNL     1       0.343  -2.757   0.006  0.00  0.00    -0.298 N 
ATOM     23  C   UNL     1      -1.013  -2.188   0.024  0.00  0.00    +0.108 C 
ATOM     24  C   UNL     1      -2.002  -3.363   0.174  0.00  0.00    +0.020 C 
ATOM     25  C   UNL     1      -1.123  -4.478   0.802  0.00  0.00    +0.020 C 
ATOM     26  C   UNL     1       0.240  -4.224   0.107  0.00  0.00    +0.108 C 
ENDBRANCH   5  20
TORSDOF 3
