REMARK  Name = ZINC59106218
REMARK  4 active torsions:
REMARK  status: ('A' for Active; 'I' for Inactive)
REMARK    1  A    between atoms: C_6  and  N_7
REMARK    2  A    between atoms: C_11  and  C_12
REMARK    3  A    between atoms: C_15  and  O_19
REMARK    4  A    between atoms: C_17  and  O_18
REMARK                            x       y       z     vdW  Elec       q    Type
REMARK                         _______ _______ _______ _____ _____    ______ ____
ROOT
ATOM      1  N   UNL     1      -1.224  -0.777   0.499  0.00  0.00    -0.188 N 
ATOM      2  C   UNL     1      -1.203  -2.066   0.098  0.00  0.00    +0.264 C 
ATOM      3  O   UNL     1      -0.187  -2.573  -0.338  0.00  0.00    -0.269 OA
ATOM      4  C   UNL     1      -2.455  -2.840   0.206  0.00  0.00    +0.102 C 
ATOM      5  C   UNL     1      -2.521  -4.171  -0.184  0.00  0.00    +0.030 C 
ATOM      6  C   UNL     1      -3.629  -2.138   0.746  0.00  0.00    +0.276 C 
ATOM      7  O   UNL     1      -4.812  -2.773   0.878  0.00  0.00    -0.268 OA
ATOM      8  N   UNL     1      -3.498  -0.870   1.099  0.00  0.00    -0.123 NA
ATOM      9  C   UNL     1      -2.343  -0.221   0.985  0.00  0.00    +0.340 C 
ATOM     10  O   UNL     1      -2.300   0.945   1.337  0.00  0.00    -0.250 OA
ENDROOT
BRANCH   1  16
ATOM     11  C   UNL     1       0.458   0.339  -0.831  0.00  0.00    +0.027 A 
ATOM     12  C   UNL     1       1.611   1.095  -0.915  0.00  0.00    +0.040 A 
ATOM     13  C   UNL     1       2.256   1.507   0.240  0.00  0.00    +0.124 A 
ATOM     14  C   UNL     1       1.747   1.161   1.480  0.00  0.00    +0.040 A 
ATOM     15  C   UNL     1       0.594   0.404   1.568  0.00  0.00    +0.027 A 
ATOM     16  C   UNL     1      -0.054  -0.009   0.412  0.00  0.00    +0.046 A 
ATOM     17  F   UNL     1       3.383   2.246   0.156  0.00  0.00    -0.205 F 
ENDBRANCH   1  16
BRANCH   5  18
ATOM     18  C   UNL     1      -3.774  -4.819  -0.275  0.00  0.00    +0.019 A 
ATOM     19  C   UNL     1      -4.836  -4.212  -0.968  0.00  0.00    +0.029 A 
ATOM     20  C   UNL     1      -6.043  -4.840  -1.053  0.00  0.00    +0.056 A 
ATOM     21  C   UNL     1      -6.234  -6.086  -0.456  0.00  0.00    +0.133 A 
ATOM     22  C   UNL     1      -5.198  -6.702   0.232  0.00  0.00    +0.092 A 
ATOM     23  C   UNL     1      -3.965  -6.082   0.323  0.00  0.00    +0.128 A 
ATOM     24  I   UNL     1      -7.620  -3.928  -2.087  0.00  0.00    -0.040 I 
BRANCH  23  25
ATOM     25  O   UNL     1      -2.947  -6.682   0.989  0.00  0.00    -0.506 OA
ATOM     26  H   UNL     1      -2.910  -6.463   1.930  0.00  0.00    +0.292 HD
ENDBRANCH  23  25
BRANCH  21  27
ATOM     27  O   UNL     1      -7.440  -6.699  -0.549  0.00  0.00    -0.506 OA
ATOM     28  H   UNL     1      -7.531  -7.274  -1.321  0.00  0.00    +0.292 HD
ENDBRANCH  21  27
ENDBRANCH   5  18
TORSDOF 4
