REMARK  Name = ZINC35863310
REMARK  8 active torsions:
REMARK  status: ('A' for Active; 'I' for Inactive)
REMARK    1  A    between atoms: C_1  and  C_2
REMARK    2  A    between atoms: C_2  and  C_3
REMARK    3  A    between atoms: C_11  and  O_23
REMARK    4  A    between atoms: C_14  and  C_16
REMARK    5  A    between atoms: O_23  and  C_24
REMARK    6  A    between atoms: C_24  and  C_25
REMARK    7  A    between atoms: C_28  and  C_30
REMARK    8  A    between atoms: C_36  and  C_39
REMARK                            x       y       z     vdW  Elec       q    Type
REMARK                         _______ _______ _______ _____ _____    ______ ____
ROOT
ATOM      1  C   UNL     1       0.581  -0.619  -1.764  0.00  0.00    +0.216 C 
ATOM      2  O   UNL     1       0.984   0.068  -2.679  0.00  0.00    -0.276 OA
ATOM      3  N   UNL     1       0.667  -1.961  -1.839  0.00  0.00    -0.290 N 
ATOM      4  C   UNL     1       0.181  -2.822  -0.748  0.00  0.00    +0.113 C 
ATOM      5  C   UNL     1      -0.982  -3.653  -1.288  0.00  0.00    +0.054 C 
ATOM      6  C   UNL     1      -0.629  -4.270  -2.616  0.00  0.00    -0.040 A 
ATOM      7  C   UNL     1      -1.373  -5.369  -3.033  0.00  0.00    +0.007 A 
ATOM      8  C   UNL     1      -1.110  -5.977  -4.242  0.00  0.00    +0.046 A 
ATOM      9  C   UNL     1      -0.095  -5.490  -5.053  0.00  0.00    +0.121 A 
ATOM     10  C   UNL     1       0.647  -4.398  -4.636  0.00  0.00    +0.051 A 
ATOM     11  C   UNL     1       0.384  -3.792  -3.416  0.00  0.00    -0.016 A 
ATOM     12  C   UNL     1       1.243  -2.624  -3.014  0.00  0.00    +0.137 C 
ENDROOT
BRANCH  12  13
ATOM     13  C   UNL     1       2.628  -3.116  -2.683  0.00  0.00    -0.020 A 
ATOM     14  C   UNL     1       2.802  -4.099  -1.726  0.00  0.00    +0.006 A 
ATOM     15  C   UNL     1       4.072  -4.552  -1.421  0.00  0.00    +0.003 A 
ATOM     16  C   UNL     1       5.170  -4.022  -2.073  0.00  0.00    +0.038 A 
ATOM     17  C   UNL     1       4.997  -3.039  -3.032  0.00  0.00    +0.124 A 
ATOM     18  C   UNL     1       3.724  -2.590  -3.341  0.00  0.00    +0.044 A 
ATOM     19  F   UNL     1       6.069  -2.521  -3.670  0.00  0.00    -0.205 F 
ENDBRANCH  12  13
BRANCH   1  21
ATOM     20  C   UNL     1       0.004   1.551  -0.710  0.00  0.00    +0.013 C 
ATOM     21  C   UNL     1      -0.017   0.031  -0.542  0.00  0.00    +0.092 C 
ENDBRANCH   1  21
BRANCH   9  22
ATOM     22  O   UNL     1       0.168  -6.080  -6.248  0.00  0.00    -0.484 OA
BRANCH  22  23
ATOM     23  C   UNL     1      -0.640  -7.202  -6.609  0.00  0.00    +0.303 C 
BRANCH  23  24
ATOM     24  C   UNL     1      -0.205  -7.722  -7.955  0.00  0.00    +0.143 A 
ATOM     25  C   UNL     1       0.734  -8.670  -8.167  0.00  0.00    +0.049 A 
ATOM     26  C   UNL     1       0.829  -8.855  -9.556  0.00  0.00    +0.055 A 
ATOM     27  C   UNL     1      -0.069  -7.999 -10.127  0.00  0.00    +0.190 A 
ATOM     28  O   UNL     1      -0.690  -7.323  -9.138  0.00  0.00    -0.452 OA
BRANCH  27  29
ATOM     29  C   UNL     1      -0.317  -7.844 -11.564  0.00  0.00    +0.282 C 
ATOM     30  O   UNL     1       0.213  -8.600 -12.358  0.00  0.00    -0.267 OA
ATOM     31  N   UNL     1      -1.132  -6.866 -12.006  0.00  0.00    -0.298 N 
ATOM     32  C   UNL     1      -1.677  -5.860 -11.081  0.00  0.00    +0.089 C 
ATOM     33  C   UNL     1      -3.192  -5.778 -11.290  0.00  0.00    -0.063 C 
ATOM     34  N   UNL     1      -3.476  -5.516 -12.707  0.00  0.00    +0.383 N 
ATOM     35  C   UNL     1      -3.025  -6.649 -13.525  0.00  0.00    -0.057 C 
ATOM     36  C   UNL     1      -1.497  -6.770 -13.428  0.00  0.00    +0.092 C 
ATOM     37  C   UNL     1      -3.425  -6.415 -14.984  0.00  0.00    -0.012 C 
ATOM     38  H   UNL     1      -4.469  -5.387 -12.831  0.00  0.00    -0.085 HD
ATOM     39  H   UNL     1      -2.993  -4.679 -12.997  0.00  0.00    -0.085 HD
ENDBRANCH  27  29
ENDBRANCH  23  24
ENDBRANCH  22  23
ENDBRANCH   9  22
TORSDOF 6
