REMARK  Name = ZINC14457568
REMARK  6 active torsions:
REMARK  status: ('A' for Active; 'I' for Inactive)
REMARK    1  A    between atoms: C_1  and  C_2
REMARK    2  A    between atoms: C_4  and  C_29
REMARK    3  A    between atoms: C_5  and  C_9
REMARK    4  A    between atoms: C_6  and  C_8
REMARK    5  A    between atoms: C_20  and  N_25
REMARK    6  A    between atoms: C_26  and  C_28
REMARK                            x       y       z     vdW  Elec       q    Type
REMARK                         _______ _______ _______ _____ _____    ______ ____
ROOT
ATOM      1  C   UNL     1      -2.338   1.756  -1.234  0.00  0.00    +0.105 C 
ATOM      2  C   UNL     1      -2.571   2.393  -2.607  0.00  0.00    +0.029 C 
ATOM      3  C   UNL     1      -1.201   2.431  -3.342  0.00  0.00    +0.033 C 
ATOM      4  C   UNL     1      -0.534   3.672  -2.780  0.00  0.00    -0.030 C 
ATOM      5  C   UNL     1      -1.431   4.492  -2.287  0.00  0.00    -0.023 C 
ATOM      6  C   UNL     1      -2.815   3.909  -2.445  0.00  0.00    +0.049 C 
ATOM      7  C   UNL     1      -3.686   4.241  -1.276  0.00  0.00    -0.018 A 
ATOM      8  C   UNL     1      -4.189   5.530  -1.166  0.00  0.00    +0.029 A 
ATOM      9  C   UNL     1      -5.003   5.878  -0.101  0.00  0.00    +0.034 A 
ATOM     10  C   UNL     1      -5.324   4.937   0.869  0.00  0.00    +0.025 A 
ATOM     11  C   UNL     1      -4.826   3.655   0.766  0.00  0.00    +0.025 A 
ATOM     12  C   UNL     1      -4.009   3.307  -0.303  0.00  0.00    +0.031 A 
ATOM     13  N   UNL     1      -3.512   2.000  -0.390  0.00  0.00    -0.336 N 
ATOM     14  H   UNL     1      -3.933   1.274   0.097  0.00  0.00    +0.147 HD
ENDROOT
BRANCH   1  19
ATOM     15  C   UNL     1       2.339   4.109   1.212  0.00  0.00    +0.044 C 
ATOM     16  C   UNL     1       1.119   3.494   0.577  0.00  0.00    -0.050 A 
ATOM     17  C   UNL     1       1.131   2.164   0.200  0.00  0.00    +0.007 A 
ATOM     18  C   UNL     1       0.011   1.601  -0.383  0.00  0.00    -0.045 A 
ATOM     19  C   UNL     1      -1.119   2.369  -0.593  0.00  0.00    -0.021 A 
ATOM     20  C   UNL     1      -1.133   3.697  -0.211  0.00  0.00    -0.045 A 
ATOM     21  C   UNL     1      -0.013   4.261   0.372  0.00  0.00    +0.007 A 
ATOM     22  C   UNL     1      -2.368   4.532  -0.434  0.00  0.00    +0.044 C 
ATOM     23  C   UNL     1       0.024   0.151  -0.794  0.00  0.00    +0.044 C 
ENDBRANCH   1  19
BRANCH   9  24
ATOM     24  N   UNL     1      -5.505   7.183  -0.002  0.00  0.00    -0.286 N 
ATOM     25  C   UNL     1      -6.654   7.415   0.664  0.00  0.00    +0.214 C 
ATOM     26  O   UNL     1      -7.308   6.485   1.086  0.00  0.00    -0.276 OA
ATOM     27  C   UNL     1      -7.125   8.829   0.883  0.00  0.00    +0.109 C 
ATOM     28  H   UNL     1      -5.026   7.920  -0.413  0.00  0.00    +0.155 HD
ENDBRANCH   9  24
TORSDOF 2
