REMARK  Name = ZINC45166805
REMARK  4 active torsions:
REMARK  status: ('A' for Active; 'I' for Inactive)
REMARK    1  A    between atoms: C_3  and  N_22
REMARK    2  A    between atoms: C_4  and  S_8
REMARK    3  A    between atoms: S_8  and  N_11
REMARK    4  A    between atoms: C_15  and  C_17
REMARK                            x       y       z     vdW  Elec       q    Type
REMARK                         _______ _______ _______ _____ _____    ______ ____
ROOT
ATOM      1  S   UNL     1       3.780  -0.863  -0.812  0.00  0.00    +0.064 S 
ATOM      2  O   UNL     1       3.321  -2.131  -1.259  0.00  0.00    -0.153 OA
ATOM      3  O   UNL     1       4.604  -0.026  -1.611  0.00  0.00    -0.153 OA
ENDROOT
BRANCH   1   7
ATOM      4  C   UNL     1       0.091   1.559   0.223  0.00  0.00    +0.003 A 
ATOM      5  C   UNL     1       0.085   0.189   0.401  0.00  0.00    +0.025 A 
ATOM      6  C   UNL     1       1.214  -0.557   0.085  0.00  0.00    +0.053 A 
ATOM      7  C   UNL     1       2.346   0.078  -0.410  0.00  0.00    +0.144 A 
ATOM      8  C   UNL     1       2.345   1.449  -0.586  0.00  0.00    +0.069 A 
ATOM      9  C   UNL     1       1.219   2.188  -0.270  0.00  0.00    +0.022 A 
ATOM     10 CL   UNL     1       3.760   2.244  -1.204  0.00  0.00    -0.081 Cl
BRANCH   6  11
ATOM     11  N   UNL     1       1.210  -1.942   0.265  0.00  0.00    -0.356 N 
ATOM     12  H   UNL     1       0.381  -2.403   0.465  0.00  0.00    +0.142 HD
ATOM     13  H   UNL     1       2.038  -2.442   0.190  0.00  0.00    +0.142 HD
ENDBRANCH   6  11
ENDBRANCH   1   7
BRANCH   1  14
ATOM     14  N   UNL     1       4.603  -1.128   0.601  0.00  0.00    -0.173 NA
ATOM     15  C   UNL     1       5.507  -0.169   1.261  0.00  0.00    +0.110 C 
ATOM     16  C   UNL     1       5.513  -0.592   2.752  0.00  0.00    +0.019 C 
ATOM     17  C   UNL     1       5.453  -2.138   2.638  0.00  0.00    +0.022 C 
ATOM     18  C   UNL     1       4.548  -2.357   1.406  0.00  0.00    +0.083 C 
BRANCH  18  19
ATOM     19  C   UNL     1       5.067  -3.540   0.587  0.00  0.00    +0.008 C 
ATOM     20  C   UNL     1       5.053  -4.823   1.444  0.00  0.00    +0.005 C 
ATOM     21  C   UNL     1       6.329  -5.585   1.008  0.00  0.00    +0.000 C 
ATOM     22  C   UNL     1       7.356  -4.443   0.805  0.00  0.00    +0.000 C 
ATOM     23  C   UNL     1       6.531  -3.299   0.181  0.00  0.00    +0.005 C 
ENDBRANCH  18  19
ENDBRANCH   1  14
TORSDOF 4
