REMARK  Name = ZINC08442832
REMARK  8 active torsions:
REMARK  status: ('A' for Active; 'I' for Inactive)
REMARK    1  A    between atoms: C_1  and  C_2
REMARK    2  A    between atoms: C_6  and  C_7
REMARK    3  A    between atoms: C_9  and  C_31
REMARK    4  A    between atoms: C_10  and  N_30
REMARK    5  A    between atoms: N_11  and  C_21
REMARK    6  A    between atoms: C_17  and  C_19
REMARK    7  A    between atoms: C_17  and  C_20
REMARK    8  A    between atoms: C_24  and  N_27
REMARK                            x       y       z     vdW  Elec       q    Type
REMARK                         _______ _______ _______ _____ _____    ______ ____
ROOT
ATOM      1  C   UNL     1      -2.824   3.710   0.227  0.00  0.00    +0.104 C 
ATOM      2  C   UNL     1      -1.519   3.134  -0.239  0.00  0.00    +0.077 C 
ATOM      3  C   UNL     1      -1.356   1.793  -0.384  0.00  0.00    +0.107 C 
ATOM      4  N   UNL     1      -2.391   0.936  -0.086  0.00  0.00    -0.260 N 
ATOM      5  C   UNL     1      -3.429   1.346   0.709  0.00  0.00    +0.025 C 
ATOM      6  C   UNL     1      -3.672   2.660   0.899  0.00  0.00    +0.026 C 
ATOM      7  C   UNL     1      -4.724   3.090   1.726  0.00  0.00    +0.162 C 
ATOM      8  O   UNL     1      -4.922   4.281   1.869  0.00  0.00    -0.292 OA
ATOM      9  C   UNL     1      -5.611   2.105   2.437  0.00  0.00    +0.086 C 
ATOM     10  C   UNL     1      -4.820   0.819   2.698  0.00  0.00    -0.023 C 
ATOM     11  C   UNL     1      -4.292   0.294   1.361  0.00  0.00    +0.058 C 
ATOM     12  C   UNL     1      -3.646   1.119   3.632  0.00  0.00    +0.011 C 
ATOM     13  C   UNL     1      -5.734  -0.226   3.341  0.00  0.00    +0.011 C 
ENDROOT
BRANCH   1  19
ATOM     14  C   UNL     1      -3.662   6.635  -0.198  0.00  0.00    +0.044 C 
ATOM     15  C   UNL     1      -3.967   5.544  -1.192  0.00  0.00    -0.039 A 
ATOM     16  C   UNL     1      -4.648   5.830  -2.360  0.00  0.00    +0.011 A 
ATOM     17  C   UNL     1      -4.912   4.824  -3.229  0.00  0.00    +0.046 A 
ATOM     18  S   UNL     1      -4.182   3.420  -2.403  0.00  0.00    -0.100 S 
ATOM     19  C   UNL     1      -3.574   4.269  -0.955  0.00  0.00    +0.005 A 
ENDBRANCH   1  19
BRANCH   4  20
ATOM     20  C   UNL     1      -2.382  -0.367  -0.598  0.00  0.00    +0.040 A 
ATOM     21  C   UNL     1      -3.033  -0.650  -1.792  0.00  0.00    +0.026 A 
ATOM     22  C   UNL     1      -3.019  -1.935  -2.296  0.00  0.00    +0.034 A 
ATOM     23  C   UNL     1      -2.366  -2.942  -1.609  0.00  0.00    +0.126 A 
ATOM     24  C   UNL     1      -1.721  -2.665  -0.418  0.00  0.00    +0.034 A 
ATOM     25  C   UNL     1      -1.727  -1.381   0.090  0.00  0.00    +0.026 A 
BRANCH  23  26
ATOM     26  N   UNL     1      -2.358  -4.320  -2.151  0.00  0.00    +0.056 N 
ATOM     27  O   UNL     1      -1.783  -5.208  -1.547  0.00  0.00    -0.126 OA
ATOM     28  O   UNL     1      -2.925  -4.566  -3.200  0.00  0.00    -0.126 OA
ENDBRANCH  23  26
ENDBRANCH   4  20
BRANCH   3  29
ATOM     29  N   UNL     1      -0.155   1.292  -0.824  0.00  0.00    -0.345 N 
ATOM     30  H   UNL     1      -0.006   0.334  -0.841  0.00  0.00    +0.144 HD
ATOM     31  H   UNL     1       0.543   1.896  -1.122  0.00  0.00    +0.144 HD
ENDBRANCH   3  29
BRANCH   2  32
ATOM     32  C   UNL     1      -0.429   4.012  -0.541  0.00  0.00    +0.099 C 
ATOM     33  N   UNL     1       0.436   4.709  -0.780  0.00  0.00    -0.191 NA
ENDBRANCH   2  32
TORSDOF 5
