REMARK  Name = ZINC14644379
REMARK  8 active torsions:
REMARK  status: ('A' for Active; 'I' for Inactive)
REMARK    1  A    between atoms: C_1  and  C_2
REMARK    2  A    between atoms: C_2  and  C_4
REMARK    3  A    between atoms: C_2  and  O_25
REMARK    4  A    between atoms: N_6  and  N_7
REMARK    5  A    between atoms: C_8  and  C_10
REMARK    6  A    between atoms: C_13  and  N_16
REMARK    7  A    between atoms: C_17  and  C_19
REMARK    8  A    between atoms: O_25  and  C_26
REMARK                            x       y       z     vdW  Elec       q    Type
REMARK                         _______ _______ _______ _____ _____    ______ ____
ROOT
ATOM      1  N   UNL     1       1.820  -3.430   0.250  0.00  0.00    -0.230 N 
ATOM      2  C   UNL     1       0.531  -3.038   0.289  0.00  0.00    +0.260 C 
ATOM      3  O   UNL     1      -0.350  -3.860   0.454  0.00  0.00    -0.269 OA
ATOM      4  H   UNL     1       2.523  -2.774   0.118  0.00  0.00    +0.173 HD
ENDROOT
BRANCH   2   5
ATOM      5  C   UNL     1       0.189  -1.611   0.131  0.00  0.00    +0.038 A 
ATOM      6  C   UNL     1      -1.147  -1.202   0.171  0.00  0.00    +0.015 A 
ATOM      7  C   UNL     1      -1.463   0.129   0.024  0.00  0.00    +0.024 A 
ATOM      8  C   UNL     1      -0.454   1.069  -0.164  0.00  0.00    +0.033 A 
ATOM      9  C   UNL     1       0.877   0.665  -0.210  0.00  0.00    +0.024 A 
ATOM     10  C   UNL     1       1.200  -0.665  -0.059  0.00  0.00    +0.015 A 
BRANCH   8  11
ATOM     11  N   UNL     1      -0.777   2.417  -0.313  0.00  0.00    -0.285 N 
ATOM     12  C   UNL     1       0.037   3.365   0.192  0.00  0.00    +0.220 C 
ATOM     13  O   UNL     1       1.088   3.049   0.708  0.00  0.00    -0.275 OA
ATOM     14  H   UNL     1      -1.587   2.673  -0.783  0.00  0.00    +0.155 HD
BRANCH  12  15
ATOM     15  C   UNL     1      -0.359   4.817   0.115  0.00  0.00    +0.075 C 
ATOM     16  C   UNL     1      -0.533   5.221  -1.350  0.00  0.00    +0.013 C 
ATOM     17  C   UNL     1      -0.934   6.695  -1.429  0.00  0.00    +0.001 C 
ATOM     18  C   UNL     1       0.157   7.556  -0.788  0.00  0.00    +0.000 C 
ATOM     19  C   UNL     1       0.331   7.152   0.677  0.00  0.00    +0.001 C 
ATOM     20  C   UNL     1       0.733   5.677   0.755  0.00  0.00    +0.013 C 
ENDBRANCH  12  15
ENDBRANCH   8  11
ENDBRANCH   2   5
BRANCH   1  23
ATOM     21  C   UNL     1       3.434  -5.176   0.360  0.00  0.00    +0.270 C 
ATOM     22  O   UNL     1       4.312  -4.357   0.196  0.00  0.00    -0.270 OA
ATOM     23  N   UNL     1       2.145  -4.784   0.399  0.00  0.00    -0.231 N 
ATOM     24  H   UNL     1       1.442  -5.440   0.531  0.00  0.00    +0.173 HD
BRANCH  21  26
ATOM     25  C   UNL     1       3.221  -7.426  -0.660  0.00  0.00    +0.062 C 
ATOM     26  C   UNL     1       3.783  -6.633   0.521  0.00  0.00    +0.257 C 
BRANCH  26  27
ATOM     27  O   UNL     1       5.204  -6.781   0.561  0.00  0.00    -0.479 OA
BRANCH  27  28
ATOM     28  C   UNL     1       5.693  -7.886   1.185  0.00  0.00    +0.136 A 
ATOM     29  C   UNL     1       4.829  -8.760   1.827  0.00  0.00    +0.048 A 
ATOM     30  C   UNL     1       5.327  -9.885   2.455  0.00  0.00    +0.023 A 
ATOM     31  C   UNL     1       6.688 -10.134   2.454  0.00  0.00    +0.042 A 
ATOM     32  C   UNL     1       7.552  -9.261   1.819  0.00  0.00    +0.039 A 
ATOM     33  C   UNL     1       7.058  -8.137   1.185  0.00  0.00    +0.061 A 
ATOM     34 BR   UNL     1       8.240  -6.942   0.317  0.00  0.00    -0.046 Br
ATOM     35 CL   UNL     1       7.311 -11.545   3.250  0.00  0.00    -0.084 Cl
ENDBRANCH  27  28
ENDBRANCH  26  27
ENDBRANCH  21  26
ENDBRANCH   1  23
TORSDOF 7
