REMARK  Name = ZINC53619969
REMARK  8 active torsions:
REMARK  status: ('A' for Active; 'I' for Inactive)
REMARK    1  A    between atoms: C_1  and  C_2
REMARK    2  A    between atoms: C_5  and  C_8
REMARK    3  A    between atoms: C_10  and  C_14
REMARK    4  A    between atoms: C_16  and  C_27
REMARK    5  A    between atoms: C_20  and  C_22
REMARK    6  A    between atoms: C_22  and  C_23
REMARK    7  A    between atoms: C_23  and  C_24
REMARK    8  A    between atoms: C_23  and  C_25
REMARK                            x       y       z     vdW  Elec       q    Type
REMARK                         _______ _______ _______ _____ _____    ______ ____
ROOT
ATOM      1  C   UNL     1       0.059  -4.253  -0.021  0.00  0.00    +0.134 C 
ATOM      2  N   UNL     1      -0.467  -4.996   0.903  0.00  0.00    -0.338 N 
ATOM      3  C   UNL     1      -0.251  -6.405   0.553  0.00  0.00    +0.282 C 
ATOM      4  O   UNL     1       0.467  -6.386  -0.690  0.00  0.00    -0.243 OA
ATOM      5  N   UNL     1       0.631  -5.014  -1.011  0.00  0.00    -0.247 N 
ATOM      6  H   UNL     1       1.078  -4.669  -1.800  0.00  0.00    +0.196 HD
ATOM      7  H   UNL     1      -0.926  -4.674   1.694  0.00  0.00    +0.164 HD
ENDROOT
BRANCH   3   8
ATOM      8  C   UNL     1      -1.573  -7.109   0.384  0.00  0.00    +0.065 A 
ATOM      9  H   UNL     1      -5.918  -7.816   1.214  0.00  0.00    +0.157 HD
ATOM     10  C   UNL     1      -1.899  -8.157  -0.412  0.00  0.00    +0.055 A 
ATOM     11  N   UNL     1      -3.148  -8.581  -0.364  0.00  0.00    -0.229 NA
ATOM     12  C   UNL     1      -4.031  -8.007   0.423  0.00  0.00    +0.165 A 
ATOM     13  N   UNL     1      -5.373  -8.325   0.594  0.00  0.00    -0.265 N 
ATOM     14  C   UNL     1      -5.918  -9.343  -0.103  0.00  0.00    +0.219 C 
ATOM     15  O   UNL     1      -5.237  -9.980  -0.878  0.00  0.00    -0.275 OA
ATOM     16  S   UNL     1      -3.139  -6.797   1.182  0.00  0.00    -0.052 S 
ATOM     17  C   UNL     1      -0.880  -8.809  -1.311  0.00  0.00    +0.066 C 
BRANCH  14  18
ATOM     18  C   UNL     1      -7.373  -9.688   0.081  0.00  0.00    +0.099 C 
BRANCH  18  19
ATOM     19  C   UNL     1      -7.734 -10.871  -0.819  0.00  0.00    -0.008 C 
ATOM     20  C   UNL     1      -6.963 -12.112  -0.365  0.00  0.00    +0.008 C 
ATOM     21  C   UNL     1      -9.237 -11.143  -0.726  0.00  0.00    +0.008 C 
ENDBRANCH  18  19
ENDBRANCH  14  18
ENDBRANCH   3   8
BRANCH   1  26
ATOM     22  C   UNL     1      -0.018   1.503   0.010  0.00  0.00    +0.044 C 
ATOM     23  C   UNL     1       0.002  -0.004   0.002  0.00  0.00    -0.050 A 
ATOM     24  C   UNL     1       0.006  -0.686  -1.201  0.00  0.00    +0.004 A 
ATOM     25  C   UNL     1       0.024  -2.066  -1.216  0.00  0.00    +0.012 A 
ATOM     26  C   UNL     1       0.040  -2.773  -0.013  0.00  0.00    +0.017 A 
ATOM     27  C   UNL     1       0.036  -2.079   1.197  0.00  0.00    +0.012 A 
ATOM     28  C   UNL     1       0.023  -0.699   1.198  0.00  0.00    +0.004 A 
ENDBRANCH   1  26
TORSDOF 4
