REMARK  Name = ZINC47746511
REMARK  7 active torsions:
REMARK  status: ('A' for Active; 'I' for Inactive)
REMARK    1  A    between atoms: C_1  and  N_2
REMARK    2  A    between atoms: N_2  and  C_3
REMARK    3  A    between atoms: N_2  and  C_4
REMARK    4  A    between atoms: C_4  and  C_10
REMARK    5  A    between atoms: C_10  and  N_11
REMARK    6  A    between atoms: N_14  and  C_15
REMARK    7  A    between atoms: C_21  and  C_23
REMARK                            x       y       z     vdW  Elec       q    Type
REMARK                         _______ _______ _______ _____ _____    ______ ____
ROOT
ATOM      1  N   UNL     1      -1.094  -3.422  -2.694  0.00  0.00    -0.301 N 
ATOM      2  C   UNL     1      -1.461  -2.577  -3.678  0.00  0.00    +0.300 C 
ATOM      3  O   UNL     1      -2.199  -1.642  -3.433  0.00  0.00    -0.253 OA
ATOM      4  N   UNL     1      -1.009  -2.769  -4.933  0.00  0.00    -0.296 N 
ATOM      5  H   UNL     1      -0.506  -4.168  -2.889  0.00  0.00    +0.150 HD
ATOM      6  H   UNL     1      -0.421  -3.515  -5.128  0.00  0.00    +0.151 HD
ENDROOT
BRANCH   4   7
ATOM      7  C   UNL     1      -1.408  -1.851  -6.003  0.00  0.00    +0.077 C 
ATOM      8  C   UNL     1      -2.757  -2.290  -6.576  0.00  0.00    +0.041 C 
ATOM      9  C   UNL     1      -3.187  -1.308  -7.671  0.00  0.00    +0.109 C 
ATOM     10  N   UNL     1      -2.111  -1.210  -8.667  0.00  0.00    -0.301 N 
ATOM     11  C   UNL     1      -0.753  -0.882  -8.211  0.00  0.00    +0.109 C 
ATOM     12  C   UNL     1      -0.351  -1.869  -7.110  0.00  0.00    +0.041 C 
ATOM     13  C   UNL     1      -2.365  -1.418  -9.974  0.00  0.00    +0.219 C 
ATOM     14  O   UNL     1      -3.470  -1.766 -10.329  0.00  0.00    -0.275 OA
BRANCH  13  15
ATOM     15  C   UNL     1      -1.274  -1.217 -10.995  0.00  0.00    +0.075 C 
ATOM     16  C   UNL     1      -1.164   0.270 -11.338  0.00  0.00    +0.013 C 
ATOM     17  C   UNL     1      -0.057   0.474 -12.374  0.00  0.00    +0.001 C 
ATOM     18  C   UNL     1      -0.390  -0.319 -13.639  0.00  0.00    +0.000 C 
ATOM     19  C   UNL     1      -0.500  -1.806 -13.296  0.00  0.00    +0.001 C 
ATOM     20  C   UNL     1      -1.607  -2.010 -12.260  0.00  0.00    +0.013 C 
ENDBRANCH  13  15
ENDBRANCH   4   7
BRANCH   1  21
ATOM     21  C   UNL     1      -1.585  -3.213  -1.329  0.00  0.00    +0.094 C 
BRANCH  21  22
ATOM     22  C   UNL     1      -1.024  -4.303  -0.413  0.00  0.00    -0.050 C 
ATOM     23  C   UNL     1      -1.537  -4.085   1.012  0.00  0.00    -0.010 C 
ATOM     24  C   UNL     1      -3.065  -4.150   1.019  0.00  0.00    -0.001 C 
ATOM     25  C   UNL     1      -3.520  -5.522   0.518  0.00  0.00    -0.000 C 
ATOM     26  C   UNL     1      -3.008  -5.739  -0.907  0.00  0.00    -0.001 C 
ATOM     27  C   UNL     1      -1.479  -5.675  -0.915  0.00  0.00    -0.010 C 
BRANCH  22  29
ATOM     28  C   UNL     1       0.880  -2.924   0.061  0.00  0.00    -0.096 C 
ATOM     29  N   UNL     1       0.444  -4.241  -0.421  0.00  0.00    +0.381 N 
ATOM     30  C   UNL     1       0.982  -5.287   0.459  0.00  0.00    -0.096 C 
ATOM     31  H   UNL     1       0.781  -4.385  -1.361  0.00  0.00    -0.082 HD
ENDBRANCH  22  29
ENDBRANCH  21  22
ENDBRANCH   1  21
TORSDOF 5
