REMARK  Name = ZINC54201116
REMARK  9 active torsions:
REMARK  status: ('A' for Active; 'I' for Inactive)
REMARK    1  A    between atoms: C_1  and  C_2
REMARK    2  A    between atoms: C_2  and  C_3
REMARK    3  A    between atoms: C_3  and  C_4
REMARK    4  A    between atoms: C_10  and  C_12
REMARK    5  A    between atoms: C_12  and  C_13
REMARK    6  A    between atoms: C_13  and  C_15
REMARK    7  A    between atoms: C_13  and  N_21
REMARK    8  A    between atoms: N_21  and  S_22
REMARK    9  A    between atoms: S_22  and  C_25
REMARK                            x       y       z     vdW  Elec       q    Type
REMARK                         _______ _______ _______ _____ _____    ______ ____
ROOT
ATOM      1  C   UNL     1      -1.316  -9.293   0.732  0.00  0.00    +0.115 C 
ENDROOT
BRANCH   1   2
ATOM      2  C   UNL     1      -1.423 -10.722   0.263  0.00  0.00    -0.028 A 
ATOM      3  C   UNL     1      -0.303 -11.379  -0.212  0.00  0.00    +0.005 A 
ATOM      4  C   UNL     1      -0.402 -12.689  -0.642  0.00  0.00    +0.000 A 
ATOM      5  C   UNL     1      -1.619 -13.341  -0.598  0.00  0.00    +0.000 A 
ATOM      6  C   UNL     1      -2.739 -12.684  -0.123  0.00  0.00    +0.000 A 
ATOM      7  C   UNL     1      -2.640 -11.376   0.312  0.00  0.00    +0.005 A 
ENDBRANCH   1   2
BRANCH   1   8
ATOM      8  N   UNL     1      -0.064  -9.115   1.471  0.00  0.00    -0.182 NA
ATOM      9  H   UNL     1       0.758  -8.922   0.993  0.00  0.00    +0.149 HD
BRANCH   8  10
ATOM     10  S   UNL     1      -0.051  -9.243   3.122  0.00  0.00    +0.059 S 
ATOM     11  O   UNL     1       1.295  -9.048   3.534  0.00  0.00    -0.153 OA
ATOM     12  O   UNL     1      -1.118  -8.436   3.600  0.00  0.00    -0.153 OA
BRANCH  10  13
ATOM     13  C   UNL     1      -0.463 -10.909   3.518  0.00  0.00    +0.105 A 
ATOM     14  C   UNL     1      -1.785 -11.270   3.700  0.00  0.00    +0.029 A 
ATOM     15  C   UNL     1      -2.109 -12.577   4.011  0.00  0.00    +0.017 A 
ATOM     16  C   UNL     1      -1.110 -13.525   4.140  0.00  0.00    +0.018 A 
ATOM     17  C   UNL     1       0.213 -13.164   3.958  0.00  0.00    +0.017 A 
ATOM     18  C   UNL     1       0.535 -11.857   3.642  0.00  0.00    +0.029 A 
ATOM     19 BR   UNL     1      -1.553 -15.313   4.565  0.00  0.00    -0.050 Br
ENDBRANCH  10  13
ENDBRANCH   8  10
ENDBRANCH   1   8
BRANCH   1  20
ATOM     20  C   UNL     1      -1.333  -8.357  -0.478  0.00  0.00    +0.121 C 
BRANCH  20  27
ATOM     21  C   UNL     1      -1.413  -2.041   0.005  0.00  0.00    +0.104 A 
ATOM     22  N   UNL     1      -1.398  -2.891   1.011  0.00  0.00    -0.145 NA
ATOM     23  N   UNL     1      -1.382  -4.131   0.768  0.00  0.00    -0.126 NA
ATOM     24  C   UNL     1      -1.381  -4.599  -0.465  0.00  0.00    +0.188 A 
ATOM     25  S   UNL     1      -1.410  -3.179  -1.373  0.00  0.00    -0.035 S 
ATOM     26  N   UNL     1      -1.366  -5.920  -0.901  0.00  0.00    -0.263 N 
ATOM     27  C   UNL     1      -1.349  -6.926  -0.004  0.00  0.00    +0.221 C 
ATOM     28  O   UNL     1      -1.348  -6.680   1.183  0.00  0.00    -0.275 OA
ATOM     29  H   UNL     1      -1.367  -6.117  -1.851  0.00  0.00    +0.157 HD
BRANCH  21  30
ATOM     30  C   UNL     1      -1.433  -0.534   0.013  0.00  0.00    +0.064 C 
BRANCH  30  32
ATOM     31  C   UNL     1      -0.019   1.526   0.010  0.00  0.00    +0.004 C 
ATOM     32  C   UNL     1       0.002  -0.004   0.002  0.00  0.00    +0.003 C 
ENDBRANCH  30  32
ENDBRANCH  21  30
ENDBRANCH  20  27
ENDBRANCH   1  20
TORSDOF 8
