REMARK  Name = ZINC35446779
REMARK  3 active torsions:
REMARK  status: ('A' for Active; 'I' for Inactive)
REMARK    1  A    between atoms: C_1  and  C_2
REMARK    2  A    between atoms: C_5  and  N_8
REMARK    3  A    between atoms: C_25  and  C_29
REMARK                            x       y       z     vdW  Elec       q    Type
REMARK                         _______ _______ _______ _____ _____    ______ ____
ROOT
ATOM      1  N   UNL     1      -0.006  -4.176  -0.016  0.00  0.00    -0.269 N 
ATOM      2  C   UNL     1       0.174  -4.849   1.138  0.00  0.00    +0.306 C 
ATOM      3  O   UNL     1       0.230  -4.245   2.192  0.00  0.00    -0.252 OA
ATOM      4  N   UNL     1       0.294  -6.191   1.123  0.00  0.00    -0.285 N 
ATOM      5  C   UNL     1       0.414  -6.918  -0.148  0.00  0.00    +0.112 C 
ATOM      6  C   UNL     1       1.667  -7.799  -0.094  0.00  0.00    +0.051 C 
ATOM      7  C   UNL     1       1.602  -8.695   1.142  0.00  0.00    +0.075 C 
ATOM      8  C   UNL     1       1.558  -7.838   2.406  0.00  0.00    +0.051 C 
ATOM      9  C   UNL     1       0.312  -6.954   2.378  0.00  0.00    +0.112 C 
ATOM     10  C   UNL     1       2.808  -9.600   1.179  0.00  0.00    +0.047 A 
ATOM     11  C   UNL     1       4.072  -9.350   0.821  0.00  0.00    +0.025 A 
ATOM     12  C   UNL     1       4.821 -10.521   1.070  0.00  0.00    +0.020 A 
ATOM     13  C   UNL     1       3.973 -11.448   1.569  0.00  0.00    +0.092 A 
ATOM     14  N   UNL     1       2.736 -10.900   1.629  0.00  0.00    -0.316 N 
ATOM     15  C   UNL     1       1.518 -11.463   2.040  0.00  0.00    +0.067 A 
ATOM     16  C   UNL     1       1.462 -12.685   2.681  0.00  0.00    +0.028 A 
ATOM     17  C   UNL     1       0.240 -13.191   3.089  0.00  0.00    +0.005 A 
ATOM     18  C   UNL     1      -0.920 -12.475   2.859  0.00  0.00    -0.049 A 
ATOM     19  C   UNL     1      -0.872 -11.256   2.208  0.00  0.00    +0.028 A 
ATOM     20  C   UNL     1       0.345 -10.745   1.785  0.00  0.00    +0.052 A 
ATOM     21  N   UNL     1       0.400  -9.539   1.076  0.00  0.00    -0.331 N 
ATOM     22  C   UNL     1      -2.245 -13.027   3.318  0.00  0.00    +0.044 C 
ATOM     23  H   UNL     1      -0.178  -4.660  -0.839  0.00  0.00    +0.156 HD
ATOM     24  H   UNL     1      -0.358  -9.258   0.540  0.00  0.00    +0.147 HD
ENDROOT
BRANCH   1  29
ATOM     25  C   UNL     1       0.239   1.492  -0.062  0.00  0.00    +0.044 C 
ATOM     26  C   UNL     1       0.174  -0.013  -0.050  0.00  0.00    -0.050 A 
ATOM     27  C   UNL     1       0.417  -0.724  -1.211  0.00  0.00    +0.005 A 
ATOM     28  C   UNL     1       0.358  -2.104  -1.203  0.00  0.00    +0.023 A 
ATOM     29  C   UNL     1       0.055  -2.778  -0.027  0.00  0.00    +0.035 A 
ATOM     30  C   UNL     1      -0.189  -2.061   1.137  0.00  0.00    +0.023 A 
ATOM     31  C   UNL     1      -0.123  -0.682   1.124  0.00  0.00    +0.005 A 
ENDBRANCH   1  29
TORSDOF 1
