REMARK  Name = ZINC22851568
REMARK  6 active torsions:
REMARK  status: ('A' for Active; 'I' for Inactive)
REMARK    1  A    between atoms: C_5  and  N_7
REMARK    2  A    between atoms: N_10  and  C_13
REMARK    3  A    between atoms: C_13  and  C_15
REMARK    4  A    between atoms: C_13  and  C_26
REMARK    5  A    between atoms: C_15  and  N_16
REMARK    6  A    between atoms: N_19  and  C_20
REMARK                            x       y       z     vdW  Elec       q    Type
REMARK                         _______ _______ _______ _____ _____    ______ ____
ROOT
ATOM      1  C   UNL     1       5.914   1.510   1.179  0.00  0.00    +0.104 C 
ENDROOT
BRANCH   1   2
ATOM      2  C   UNL     1       7.007   0.599   1.676  0.00  0.00    -0.025 A 
ATOM      3  C   UNL     1       7.446  -0.447   0.885  0.00  0.00    +0.009 A 
ATOM      4  C   UNL     1       8.452  -1.282   1.335  0.00  0.00    +0.050 A 
ATOM      5  C   UNL     1       9.015  -1.079   2.584  0.00  0.00    +0.166 A 
ATOM      6  C   UNL     1       8.570  -0.028   3.382  0.00  0.00    +0.167 A 
ATOM      7  C   UNL     1       7.565   0.808   2.924  0.00  0.00    +0.054 A 
ATOM      8  O   UNL     1       9.274  -0.040   4.552  0.00  0.00    -0.453 OA
ATOM      9  C   UNL     1      10.433  -0.854   4.294  0.00  0.00    +0.466 C 
ATOM     10  O   UNL     1       9.999  -1.748   3.253  0.00  0.00    -0.453 OA
ENDBRANCH   1   2
BRANCH   1  14
ATOM     11  N   UNL     1       6.553   3.451  -2.518  0.00  0.00    -0.325 N 
ATOM     12  C   UNL     1       5.243   2.825  -2.286  0.00  0.00    +0.120 C 
ATOM     13  C   UNL     1       5.036   2.625  -0.783  0.00  0.00    +0.104 C 
ATOM     14  N   UNL     1       6.119   1.788  -0.248  0.00  0.00    -0.291 NA
ATOM     15  C   UNL     1       7.428   2.414  -0.480  0.00  0.00    +0.104 C 
ATOM     16  C   UNL     1       7.636   2.614  -1.984  0.00  0.00    +0.120 C 
BRANCH  11  21
ATOM     17  C   UNL     1       6.070   4.815  -5.898  0.00  0.00    +0.002 A 
ATOM     18  C   UNL     1       7.133   4.238  -6.568  0.00  0.00    +0.003 A 
ATOM     19  C   UNL     1       8.005   3.400  -5.898  0.00  0.00    +0.040 A 
ATOM     20  C   UNL     1       7.816   3.136  -4.554  0.00  0.00    +0.144 A 
ATOM     21  C   UNL     1       6.748   3.715  -3.877  0.00  0.00    +0.065 A 
ATOM     22  C   UNL     1       5.872   4.552  -4.556  0.00  0.00    +0.026 A 
ATOM     23  F   UNL     1       8.667   2.316  -3.899  0.00  0.00    -0.204 F 
ENDBRANCH  11  21
ENDBRANCH   1  14
BRANCH   1  24
ATOM     24  C   UNL     1       4.556   0.832   1.377  0.00  0.00    +0.129 C 
BRANCH  24  25
ATOM     25  N   UNL     1       4.313   0.635   2.808  0.00  0.00    -0.298 N 
ATOM     26  C   UNL     1       3.222  -0.042   3.220  0.00  0.00    +0.300 C 
ATOM     27  O   UNL     1       2.441  -0.490   2.403  0.00  0.00    -0.253 OA
ATOM     28  N   UNL     1       2.998  -0.223   4.536  0.00  0.00    -0.297 N 
ATOM     29  H   UNL     1       5.019   1.041   3.547  0.00  0.00    +0.150 HD
ATOM     30  H   UNL     1       3.705   0.183   5.275  0.00  0.00    +0.151 HD
BRANCH  28  31
ATOM     31  C   UNL     1       1.813  -0.959   4.983  0.00  0.00    +0.074 C 
ATOM     32  C   UNL     1       2.113  -2.460   4.978  0.00  0.00    +0.022 C 
ATOM     33  C   UNL     1       0.876  -3.229   5.445  0.00  0.00    +0.002 C 
ATOM     34  C   UNL     1       0.506  -2.788   6.862  0.00  0.00    +0.000 C 
ATOM     35  C   UNL     1       0.206  -1.287   6.867  0.00  0.00    +0.002 C 
ATOM     36  C   UNL     1       1.443  -0.518   6.401  0.00  0.00    +0.022 C 
ENDBRANCH  28  31
ENDBRANCH  24  25
ENDBRANCH   1  24
TORSDOF 6
