REMARK  Name = ZINC12180497
REMARK  7 active torsions:
REMARK  status: ('A' for Active; 'I' for Inactive)
REMARK    1  A    between atoms: C_1  and  O_2
REMARK    2  A    between atoms: O_2  and  C_3
REMARK    3  A    between atoms: C_8  and  N_9
REMARK    4  A    between atoms: C_10  and  C_12
REMARK    5  A    between atoms: C_12  and  S_13
REMARK    6  A    between atoms: S_13  and  C_14
REMARK    7  A    between atoms: C_20  and  C_22
REMARK                            x       y       z     vdW  Elec       q    Type
REMARK                         _______ _______ _______ _____ _____    ______ ____
ROOT
ATOM      1  C   UNL     1      -2.393   9.823  -1.238  0.00  0.00    +0.160 A 
ATOM      2  N   UNL     1      -1.774   9.287  -0.196  0.00  0.00    -0.133 NA
ATOM      3  N   UNL     1      -1.678   8.039  -0.046  0.00  0.00    -0.125 NA
ATOM      4  C   UNL     1      -2.188   7.187  -0.920  0.00  0.00    +0.189 A 
ATOM      5  S   UNL     1      -2.886   8.335  -2.104  0.00  0.00    -0.024 S 
ATOM      6  N   UNL     1      -2.180   5.794  -0.923  0.00  0.00    -0.263 N 
ATOM      7  C   UNL     1      -1.582   5.122   0.082  0.00  0.00    +0.225 C 
ATOM      8  O   UNL     1      -1.052   5.730   0.987  0.00  0.00    -0.275 OA
ATOM      9  H   UNL     1      -2.604   5.308  -1.647  0.00  0.00    +0.157 HD
ENDROOT
BRANCH   7  10
ATOM     10  C   UNL     1      -1.573   3.615   0.079  0.00  0.00    +0.048 C 
ATOM     11  C   UNL     1      -0.861   3.111  -1.178  0.00  0.00    +0.019 C 
ATOM     12  C   UNL     1      -0.851   1.581  -1.180  0.00  0.00    -0.009 C 
ATOM     13  C   UNL     1      -0.115   1.074   0.061  0.00  0.00    +0.007 C 
ATOM     14  C   UNL     1      -0.828   1.578   1.318  0.00  0.00    -0.009 C 
ATOM     15  C   UNL     1      -0.837   3.108   1.321  0.00  0.00    +0.019 C 
ATOM     16  C   UNL     1      -2.267   1.059   1.331  0.00  0.00    +0.007 C 
ATOM     17  C   UNL     1      -3.003   1.566   0.089  0.00  0.00    -0.009 C 
ATOM     18  C   UNL     1      -2.291   1.063  -1.167  0.00  0.00    +0.007 C 
ATOM     19  C   UNL     1      -3.012   3.096   0.092  0.00  0.00    +0.019 C 
ENDBRANCH   7  10
BRANCH   1  20
ATOM     20  S   UNL     1      -2.650  11.515  -1.656  0.00  0.00    -0.088 S 
BRANCH  20  21
ATOM     21  C   UNL     1      -1.857  12.427  -0.303  0.00  0.00    +0.172 C 
BRANCH  21  23
ATOM     22  N   UNL     1      -1.491  14.787   0.343  0.00  0.00    -0.282 N 
ATOM     23  C   UNL     1      -2.006  13.908  -0.540  0.00  0.00    +0.228 C 
ATOM     24  O   UNL     1      -2.590  14.308  -1.525  0.00  0.00    -0.275 OA
ATOM     25  H   UNL     1      -1.082  14.468   1.162  0.00  0.00    +0.155 HD
BRANCH  22  31
ATOM     26  C   UNL     1      -0.512  16.995   0.490  0.00  0.00    +0.141 A 
ATOM     27  C   UNL     1      -0.570  18.353   0.220  0.00  0.00    +0.049 A 
ATOM     28  C   UNL     1      -1.659  18.879  -0.450  0.00  0.00    +0.024 A 
ATOM     29  C   UNL     1      -2.691  18.052  -0.857  0.00  0.00    +0.043 A 
ATOM     30  C   UNL     1      -2.638  16.695  -0.595  0.00  0.00    +0.047 A 
ATOM     31  C   UNL     1      -1.548  16.161   0.076  0.00  0.00    +0.077 A 
ATOM     32 CL   UNL     1      -4.056  18.720  -1.697  0.00  0.00    -0.083 Cl
BRANCH  26  34
ATOM     33  C   UNL     1       1.581  17.392   1.547  0.00  0.00    +0.277 C 
ATOM     34  O   UNL     1       0.557  16.477   1.153  0.00  0.00    -0.493 OA
ENDBRANCH  26  34
ENDBRANCH  22  31
ENDBRANCH  21  23
ENDBRANCH  20  21
ENDBRANCH   1  20
TORSDOF 6
