REMARK  Name = ZINC39558608
REMARK  6 active torsions:
REMARK  status: ('A' for Active; 'I' for Inactive)
REMARK    1  A    between atoms: C_6  and  S_7
REMARK    2  A    between atoms: S_7  and  C_8
REMARK    3  A    between atoms: C_8  and  C_9
REMARK    4  A    between atoms: N_11  and  C_12
REMARK    5  A    between atoms: C_12  and  C_13
REMARK    6  A    between atoms: N_15  and  C_16
REMARK                            x       y       z     vdW  Elec       q    Type
REMARK                         _______ _______ _______ _____ _____    ______ ____
ROOT
ATOM      1  C   UNL     1      -2.795  -7.186  -0.011  0.00  0.00    +0.234 C 
ATOM      2  O   UNL     1      -1.614  -7.461  -0.033  0.00  0.00    -0.274 OA
ATOM      3  N   UNL     1      -3.716  -8.169  -0.005  0.00  0.00    -0.284 N 
ATOM      4  H   UNL     1      -4.657  -7.951   0.080  0.00  0.00    +0.155 HD
ENDROOT
BRANCH   3   5
ATOM      5  C   UNL     1      -3.315  -9.506  -0.122  0.00  0.00    +0.036 A 
ATOM      6  C   UNL     1      -4.106 -10.410  -0.821  0.00  0.00    +0.025 A 
ATOM      7  C   UNL     1      -3.716 -11.728  -0.940  0.00  0.00    +0.029 A 
ATOM      8  C   UNL     1      -2.531 -12.154  -0.360  0.00  0.00    +0.067 A 
ATOM      9  C   UNL     1      -1.733 -11.249   0.343  0.00  0.00    +0.069 A 
ATOM     10  C   UNL     1      -2.125  -9.924   0.456  0.00  0.00    +0.051 A 
ATOM     11  N   UNL     1      -0.627 -11.960   0.802  0.00  0.00    -0.306 N 
ATOM     12  H   UNL     1       0.105 -11.595   1.325  0.00  0.00    +0.170 HD
ATOM     13  C   UNL     1      -0.745 -13.238   0.397  0.00  0.00    +0.325 A 
ATOM     14  O   UNL     1       0.056 -14.124   0.631  0.00  0.00    -0.247 OA
ATOM     15  N   UNL     1      -1.883 -13.388  -0.306  0.00  0.00    -0.306 N 
ATOM     16  H   UNL     1      -2.198 -14.213  -0.707  0.00  0.00    +0.170 HD
ENDBRANCH   3   5
BRANCH   1  17
ATOM     17  C   UNL     1      -3.231  -5.744   0.010  0.00  0.00    +0.200 C 
BRANCH  17  20
ATOM     18  C   UNL     1      -2.200  -3.536   0.014  0.00  0.00    +0.224 C 
ATOM     19  O   UNL     1      -3.310  -3.049   0.037  0.00  0.00    -0.275 OA
ATOM     20  N   UNL     1      -2.051  -4.876  -0.001  0.00  0.00    -0.306 N 
ATOM     21  H   UNL     1      -1.163  -5.265  -0.020  0.00  0.00    +0.149 HD
BRANCH  18  22
ATOM     22  C   UNL     1      -0.986  -2.643   0.002  0.00  0.00    +0.170 C 
BRANCH  22  23
ATOM     23  S   UNL     1      -1.511  -0.907   0.027  0.00  0.00    -0.116 S 
BRANCH  23  29
ATOM     24  C   UNL     1      -0.018   1.386   0.024  0.00  0.00    +0.016 A 
ATOM     25  C   UNL     1       1.169   2.091   0.012  0.00  0.00    +0.016 A 
ATOM     26  C   UNL     1       2.377   1.416  -0.015  0.00  0.00    +0.018 A 
ATOM     27  C   UNL     1       2.399   0.032  -0.028  0.00  0.00    +0.016 A 
ATOM     28  C   UNL     1       1.215  -0.679  -0.016  0.00  0.00    +0.016 A 
ATOM     29  C   UNL     1       0.001  -0.004   0.011  0.00  0.00    +0.008 A 
ATOM     30 BR   UNL     1       4.000   2.386  -0.032  0.00  0.00    -0.050 Br
ENDBRANCH  23  29
ENDBRANCH  22  23
ENDBRANCH  18  22
ENDBRANCH  17  20
ENDBRANCH   1  17
TORSDOF 6
