REMARK  Name = ZINC16887139
REMARK  7 active torsions:
REMARK  status: ('A' for Active; 'I' for Inactive)
REMARK    1  A    between atoms: C_1  and  C_2
REMARK    2  A    between atoms: C_3  and  C_17
REMARK    3  A    between atoms: N_7  and  S_8
REMARK    4  A    between atoms: S_8  and  C_11
REMARK    5  A    between atoms: N_19  and  N_20
REMARK    6  A    between atoms: C_21  and  C_22
REMARK    7  A    between atoms: C_21  and  C_23
REMARK                            x       y       z     vdW  Elec       q    Type
REMARK                         _______ _______ _______ _____ _____    ______ ____
ROOT
ATOM      1  C   UNL     1       5.587   1.169  -5.801  0.00  0.00    +0.067 C 
ATOM      2  C   UNL     1       5.198   1.161  -4.345  0.00  0.00    +0.060 A 
ATOM      3  C   UNL     1       5.075   2.344  -3.630  0.00  0.00    +0.100 A 
ATOM      4  S   UNL     1       4.610   1.710  -2.025  0.00  0.00    -0.046 S 
ATOM      5  C   UNL     1       4.622   0.023  -2.434  0.00  0.00    +0.178 A 
ATOM      6  N   UNL     1       4.970   0.040  -3.712  0.00  0.00    -0.228 NA
ATOM      7  N   UNL     1       4.345  -1.062  -1.630  0.00  0.00    -0.194 N 
ATOM      8  H   UNL     1       4.391  -1.960  -1.994  0.00  0.00    +0.176 HD
ENDROOT
BRANCH   3   9
ATOM      9  C   UNL     1       5.271   3.725  -4.067  0.00  0.00    +0.272 C 
ATOM     10  O   UNL     1       5.591   3.959  -5.219  0.00  0.00    -0.268 OA
ATOM     11  N   UNL     1       5.097   4.739  -3.197  0.00  0.00    -0.202 N 
ATOM     12  H   UNL     1       4.842   4.553  -2.280  0.00  0.00    +0.178 HD
BRANCH  11  13
ATOM     13  N   UNL     1       5.285   6.062  -3.616  0.00  0.00    -0.184 NA
ATOM     14  C   UNL     1       5.118   7.039  -2.778  0.00  0.00    +0.063 C 
ATOM     15  C   UNL     1       4.721   6.749  -1.353  0.00  0.00    +0.068 C 
BRANCH  14  16
ATOM     16  C   UNL     1       5.315   8.432  -3.220  0.00  0.00    -0.002 A 
ATOM     17  C   UNL     1       5.130   9.486  -2.322  0.00  0.00    +0.011 A 
ATOM     18  C   UNL     1       5.322  10.786  -2.740  0.00  0.00    +0.016 A 
ATOM     19  C   UNL     1       5.686  11.048  -4.050  0.00  0.00    +0.018 A 
ATOM     20  C   UNL     1       5.866  10.009  -4.947  0.00  0.00    +0.016 A 
ATOM     21  C   UNL     1       5.683   8.704  -4.540  0.00  0.00    +0.011 A 
ATOM     22 BR   UNL     1       5.939  12.835  -4.616  0.00  0.00    -0.050 Br
ENDBRANCH  14  16
ENDBRANCH  11  13
ENDBRANCH   3   9
BRANCH   7  23
ATOM     23  S   UNL     1       3.934  -0.832  -0.042  0.00  0.00    +0.074 S 
ATOM     24  O   UNL     1       4.902   0.054   0.504  0.00  0.00    -0.150 OA
ATOM     25  O   UNL     1       3.686  -2.120   0.504  0.00  0.00    -0.150 OA
BRANCH  23  26
ATOM     26  C   UNL     1       2.396   0.029  -0.022  0.00  0.00    +0.109 A 
ATOM     27  C   UNL     1       1.208  -0.679  -0.014  0.00  0.00    +0.029 A 
ATOM     28  C   UNL     1       0.002  -0.004   0.002  0.00  0.00    +0.002 A 
ATOM     29  C   UNL     1      -0.017   1.378   0.010  0.00  0.00    +0.000 A 
ATOM     30  C   UNL     1       1.171   2.086   0.002  0.00  0.00    +0.002 A 
ATOM     31  C   UNL     1       2.377   1.411  -0.014  0.00  0.00    +0.029 A 
ENDBRANCH  23  26
ENDBRANCH   7  23
TORSDOF 5
