REMARK  Name = ZINC35723641
REMARK  7 active torsions:
REMARK  status: ('A' for Active; 'I' for Inactive)
REMARK    1  A    between atoms: C_4  and  C_7
REMARK    2  A    between atoms: C_7  and  C_8
REMARK    3  A    between atoms: C_8  and  C_10
REMARK    4  A    between atoms: C_8  and  N_25
REMARK    5  A    between atoms: C_16  and  C_18
REMARK    6  A    between atoms: C_26  and  C_28
REMARK    7  A    between atoms: C_31  and  C_33
REMARK                            x       y       z     vdW  Elec       q    Type
REMARK                         _______ _______ _______ _____ _____    ______ ____
ROOT
ATOM      1  C   UNL     1       4.686  -1.541   3.951  0.00  0.00    +0.163 C 
ENDROOT
BRANCH   1   2
ATOM      2  C   UNL     1       5.532  -2.145   5.041  0.00  0.00    +0.239 C 
ATOM      3  O   UNL     1       6.167  -1.426   5.785  0.00  0.00    -0.273 OA
ATOM      4  N   UNL     1       5.585  -3.483   5.191  0.00  0.00    -0.262 N 
ATOM      5  C   UNL     1       6.366  -4.040   6.196  0.00  0.00    +0.188 A 
ATOM      6  N   UNL     1       7.124  -3.451   7.112  0.00  0.00    -0.125 NA
ATOM      7  N   UNL     1       7.777  -4.113   7.963  0.00  0.00    -0.140 NA
ATOM      8  C   UNL     1       7.745  -5.440   7.995  0.00  0.00    +0.134 A 
ATOM      9  S   UNL     1       6.629  -5.757   6.631  0.00  0.00    -0.030 S 
ATOM     10  H   UNL     1       5.077  -4.058   4.596  0.00  0.00    +0.157 HD
BRANCH   8  11
ATOM     11  C   UNL     1       8.429  -6.385   8.902  0.00  0.00    +0.009 A 
ATOM     12  C   UNL     1       8.251  -7.761   8.744  0.00  0.00    +0.012 A 
ATOM     13  C   UNL     1       8.892  -8.638   9.593  0.00  0.00    +0.020 A 
ATOM     14  C   UNL     1       9.712  -8.157  10.601  0.00  0.00    +0.041 A 
ATOM     15  C   UNL     1       9.893  -6.794  10.762  0.00  0.00    +0.020 A 
ATOM     16  C   UNL     1       9.261  -5.907   9.915  0.00  0.00    +0.012 A 
ATOM     17 CL   UNL     1      10.515  -9.268  11.666  0.00  0.00    -0.084 Cl
ENDBRANCH   8  11
ENDBRANCH   1   2
BRANCH   1  18
ATOM     18  N   UNL     1       4.797  -0.081   3.998  0.00  0.00    -0.303 N 
ATOM     19  C   UNL     1       3.708   0.685   3.791  0.00  0.00    +0.217 C 
ATOM     20  O   UNL     1       2.655   0.170   3.477  0.00  0.00    -0.275 OA
ATOM     21  H   UNL     1       5.655   0.334   4.178  0.00  0.00    +0.149 HD
BRANCH  19  22
ATOM     22  C   UNL     1       3.798   2.181   3.949  0.00  0.00    +0.083 C 
ATOM     23  C   UNL     1       3.203   3.046   2.835  0.00  0.00    +0.022 C 
ATOM     24  C   UNL     1       2.494   2.946   4.188  0.00  0.00    +0.032 C 
BRANCH  24  25
ATOM     25  C   UNL     1       1.219   2.145   4.248  0.00  0.00    -0.044 A 
ATOM     26  C   UNL     1       0.579   1.776   3.080  0.00  0.00    +0.004 A 
ATOM     27  C   UNL     1      -0.591   1.042   3.135  0.00  0.00    +0.000 A 
ATOM     28  C   UNL     1      -1.121   0.676   4.358  0.00  0.00    +0.000 A 
ATOM     29  C   UNL     1      -0.480   1.044   5.526  0.00  0.00    +0.000 A 
ATOM     30  C   UNL     1       0.692   1.775   5.471  0.00  0.00    +0.004 A 
ENDBRANCH  24  25
ENDBRANCH  19  22
ENDBRANCH   1  18
BRANCH   1  31
ATOM     31  C   UNL     1       5.170  -2.046   2.590  0.00  0.00    +0.067 C 
BRANCH  31  35
ATOM     32  C   UNL     1       2.537  -0.649  -0.470  0.00  0.00    +0.000 A 
ATOM     33  C   UNL     1       3.717   0.024  -0.212  0.00  0.00    +0.000 A 
ATOM     34  C   UNL     1       4.569  -0.428   0.778  0.00  0.00    +0.004 A 
ATOM     35  C   UNL     1       4.241  -1.553   1.511  0.00  0.00    -0.045 A 
ATOM     36  C   UNL     1       3.061  -2.226   1.254  0.00  0.00    +0.004 A 
ATOM     37  C   UNL     1       2.210  -1.774   0.263  0.00  0.00    +0.000 A 
ENDBRANCH  31  35
ENDBRANCH   1  31
TORSDOF 7
