REMARK  Name = ZINC47136024
REMARK  8 active torsions:
REMARK  status: ('A' for Active; 'I' for Inactive)
REMARK    1  A    between atoms: C_1  and  C_2
REMARK    2  A    between atoms: C_2  and  C_3
REMARK    3  A    between atoms: C_2  and  C_4
REMARK    4  A    between atoms: C_2  and  C_5
REMARK    5  A    between atoms: C_12  and  N_25
REMARK    6  A    between atoms: C_13  and  C_14
REMARK    7  A    between atoms: N_16  and  C_17
REMARK    8  A    between atoms: N_25  and  C_26
REMARK                            x       y       z     vdW  Elec       q    Type
REMARK                         _______ _______ _______ _____ _____    ______ ____
ROOT
ATOM      1  C   UNL     1       0.718  -0.497  -1.257  0.00  0.00    -0.000 C 
ATOM      2  C   UNL     1       0.746  -2.029  -1.264  0.00  0.00    +0.009 C 
ATOM      3  C   UNL     1       1.235  -2.534  -2.624  0.00  0.00    +0.037 C 
ATOM      4  C   UNL     1       2.547  -1.839  -2.958  0.00  0.00    -0.023 A 
ATOM      5  C   UNL     1       2.921  -0.705  -2.330  0.00  0.00    -0.004 A 
ATOM      6  S   UNL     1       4.484  -0.289  -3.046  0.00  0.00    -0.078 S 
ATOM      7  C   UNL     1       4.648  -1.556  -4.135  0.00  0.00    +0.081 A 
ATOM      8  C   UNL     1       3.497  -2.310  -3.953  0.00  0.00    +0.068 A 
ATOM      9  C   UNL     1       2.161   0.028  -1.267  0.00  0.00    +0.046 C 
ENDROOT
BRANCH   1  11
ATOM     10  C   UNL     1      -0.019   1.526   0.010  0.00  0.00    +0.011 C 
ATOM     11  C   UNL     1       0.002  -0.004   0.002  0.00  0.00    -0.035 C 
ATOM     12  C   UNL     1       0.742  -0.511   1.242  0.00  0.00    +0.011 C 
ATOM     13  C   UNL     1      -1.433  -0.534   0.013  0.00  0.00    +0.011 C 
ENDBRANCH   1  11
BRANCH   8  14
ATOM     14  C   UNL     1       3.251  -3.527  -4.729  0.00  0.00    +0.247 C 
ATOM     15  O   UNL     1       2.658  -3.462  -5.790  0.00  0.00    -0.270 OA
ATOM     16  N   UNL     1       3.680  -4.718  -4.269  0.00  0.00    -0.307 N 
ATOM     17  H   UNL     1       4.153  -4.770  -3.423  0.00  0.00    +0.149 HD
BRANCH  16  18
ATOM     18  C   UNL     1       3.433  -5.936  -5.046  0.00  0.00    +0.096 C 
ATOM     19  C   UNL     1       4.551  -6.112  -6.087  0.00  0.00    +0.046 C 
ATOM     20  C   UNL     1       4.443  -7.549  -6.674  0.00  0.00    +0.168 C 
ATOM     21  S   UNL     1       4.063  -8.509  -5.148  0.00  0.00    -0.029 S 
ATOM     22  O   UNL     1       3.017  -9.429  -5.430  0.00  0.00    -0.174 OA
ATOM     23  O   UNL     1       5.279  -8.983  -4.586  0.00  0.00    -0.174 OA
ATOM     24  C   UNL     1       3.404  -7.156  -4.093  0.00  0.00    +0.188 C 
ENDBRANCH  16  18
ENDBRANCH   8  14
BRANCH   7  25
ATOM     25  N   UNL     1       5.690  -1.794  -5.011  0.00  0.00    -0.300 N 
ATOM     26  H   UNL     1       5.665  -2.569  -5.595  0.00  0.00    +0.150 HD
BRANCH  25  27
ATOM     27  C   UNL     1       6.830  -0.876  -5.060  0.00  0.00    +0.297 C 
ATOM     28  C   UNL     1       7.274  -0.680  -6.487  0.00  0.00    +0.025 A 
ATOM     29  C   UNL     1       6.657  -0.187  -7.612  0.00  0.00    +0.010 A 
ATOM     30  C   UNL     1       7.347  -0.133  -8.812  0.00  0.00    +0.000 A 
ATOM     31  C   UNL     1       8.656  -0.575  -8.883  0.00  0.00    +0.001 A 
ATOM     32  C   UNL     1       9.286  -1.072  -7.761  0.00  0.00    +0.015 A 
ATOM     33  C   UNL     1       8.597  -1.129  -6.549  0.00  0.00    +0.067 A 
ATOM     34  C   UNL     1       8.974  -1.593  -5.201  0.00  0.00    +0.342 C 
ATOM     35  O   UNL     1      10.060  -2.047  -4.899  0.00  0.00    -0.245 OA
ATOM     36  O   UNL     1       7.941  -1.439  -4.355  0.00  0.00    -0.435 OA
ENDBRANCH  25  27
ENDBRANCH   7  25
TORSDOF 5
