REMARK  Name = ZINC13395968
REMARK  6 active torsions:
REMARK  status: ('A' for Active; 'I' for Inactive)
REMARK    1  A    between atoms: C_4  and  C_7
REMARK    2  A    between atoms: C_7  and  C_12
REMARK    3  A    between atoms: N_14  and  C_15
REMARK    4  A    between atoms: C_18  and  S_21
REMARK    5  A    between atoms: S_21  and  N_24
REMARK    6  A    between atoms: C_28  and  C_31
REMARK                            x       y       z     vdW  Elec       q    Type
REMARK                         _______ _______ _______ _____ _____    ______ ____
ROOT
ATOM      1  C   UNL     1      -5.899  -0.167  -0.915  0.00  0.00    +0.034 A 
ATOM      2  C   UNL     1      -6.004   0.910  -1.785  0.00  0.00    +0.025 A 
ATOM      3  C   UNL     1      -4.869   1.587  -2.185  0.00  0.00    +0.030 A 
ATOM      4  C   UNL     1      -3.627   1.193  -1.720  0.00  0.00    +0.106 A 
ATOM      5  C   UNL     1      -3.518   0.117  -0.858  0.00  0.00    +0.030 A 
ATOM      6  C   UNL     1      -4.650  -0.560  -0.450  0.00  0.00    +0.025 A 
ENDROOT
BRANCH   1   9
ATOM      7  C   UNL     1      -6.982  -2.174  -0.237  0.00  0.00    +0.228 C 
ATOM      8  O   UNL     1      -5.907  -2.735  -0.210  0.00  0.00    -0.275 OA
ATOM      9  N   UNL     1      -7.047  -0.856  -0.509  0.00  0.00    -0.285 N 
ATOM     10  H   UNL     1      -7.890  -0.384  -0.422  0.00  0.00    +0.155 HD
BRANCH   7  11
ATOM     11  C   UNL     1      -8.244  -2.951   0.034  0.00  0.00    +0.072 C 
ATOM     12  C   UNL     1      -9.191  -2.125   0.922  0.00  0.00    +0.021 C 
ATOM     13  C   UNL     1      -9.403  -2.940   2.215  0.00  0.00    +0.001 C 
ATOM     14  C   UNL     1      -8.156  -3.854   2.298  0.00  0.00    +0.001 C 
ATOM     15  C   UNL     1      -7.915  -4.238   0.817  0.00  0.00    +0.021 C 
BRANCH  11  19
ATOM     16  C   UNL     1     -10.175  -3.933  -3.648  0.00  0.00    +0.000 A 
ATOM     17  C   UNL     1      -8.925  -3.341  -3.659  0.00  0.00    +0.000 A 
ATOM     18  C   UNL     1      -8.301  -3.023  -2.468  0.00  0.00    +0.004 A 
ATOM     19  C   UNL     1      -8.925  -3.297  -1.265  0.00  0.00    -0.032 A 
ATOM     20  C   UNL     1     -10.172  -3.894  -1.254  0.00  0.00    +0.004 A 
ATOM     21  C   UNL     1     -10.799  -4.207  -2.446  0.00  0.00    +0.000 A 
ENDBRANCH  11  19
ENDBRANCH   7  11
ENDBRANCH   1   9
BRANCH   4  22
ATOM     22  S   UNL     1      -2.181   2.059  -2.233  0.00  0.00    +0.061 S 
ATOM     23  O   UNL     1      -2.497   2.679  -3.472  0.00  0.00    -0.153 OA
ATOM     24  O   UNL     1      -1.094   1.155  -2.088  0.00  0.00    -0.153 OA
BRANCH  22  25
ATOM     25  N   UNL     1      -1.929   3.280  -1.143  0.00  0.00    -0.176 NA
ATOM     26  C   UNL     1      -2.528   4.606  -1.353  0.00  0.00    +0.109 C 
ATOM     27  C   UNL     1      -3.318   4.994  -0.099  0.00  0.00    +0.018 C 
ATOM     28  C   UNL     1      -2.402   4.904   1.124  0.00  0.00    +0.017 C 
ATOM     29  C   UNL     1      -1.906   3.465   1.292  0.00  0.00    +0.118 C 
ATOM     30  C   UNL     1      -1.104   3.059   0.052  0.00  0.00    +0.124 C 
BRANCH  29  31
ATOM     31  C   UNL     1      -1.028   3.372   2.512  0.00  0.00    +0.360 C 
ATOM     32  O   UNL     1       0.122   3.017   2.404  0.00  0.00    -0.246 OA
ATOM     33  O   UNL     1      -1.522   3.683   3.721  0.00  0.00    -0.246 OA
ENDBRANCH  29  31
ENDBRANCH  22  25
ENDBRANCH   4  22
TORSDOF 6
