REMARK  Name = ZINC39686367
REMARK  8 active torsions:
REMARK  status: ('A' for Active; 'I' for Inactive)
REMARK    1  A    between atoms: C_1  and  C_2
REMARK    2  A    between atoms: C_2  and  C_4
REMARK    3  A    between atoms: C_2  and  N_13
REMARK    4  A    between atoms: C_4  and  C_5
REMARK    5  A    between atoms: C_10  and  O_11
REMARK    6  A    between atoms: O_11  and  C_12
REMARK    7  A    between atoms: C_14  and  C_16
REMARK    8  A    between atoms: C_27  and  C_29
REMARK                            x       y       z     vdW  Elec       q    Type
REMARK                         _______ _______ _______ _____ _____    ______ ____
ROOT
ATOM      1  C   UNL     1       0.566  -0.420  -3.527  0.00  0.00    +0.100 C 
ATOM      2  C   UNL     1       1.785   0.343  -4.091  0.00  0.00    +0.121 C 
ATOM      3  N   UNL     1       1.673   0.194  -5.561  0.00  0.00    -0.296 N 
ATOM      4  C   UNL     1       0.221   0.322  -5.835  0.00  0.00    +0.115 C 
ATOM      5  C   UNL     1      -0.459  -0.431  -4.674  0.00  0.00    -0.004 C 
ATOM      6  C   UNL     1      -1.733   0.293  -4.251  0.00  0.00    -0.010 C 
ATOM      7  C   UNL     1      -2.758   0.218  -5.387  0.00  0.00    -0.082 C 
ATOM      8  N   UNL     1      -3.049  -1.187  -5.694  0.00  0.00    +0.379 N 
ATOM      9  C   UNL     1      -1.837  -1.853  -6.189  0.00  0.00    -0.082 C 
ATOM     10  C   UNL     1      -0.774  -1.865  -5.088  0.00  0.00    -0.010 C 
ATOM     11  C   UNL     1       2.666  -0.012  -6.449  0.00  0.00    +0.247 C 
ATOM     12  O   UNL     1       3.797  -0.224  -6.057  0.00  0.00    -0.270 OA
ATOM     13  H   UNL     1      -3.370  -1.654  -4.859  0.00  0.00    -0.086 HD
ATOM     14  H   UNL     1      -3.768  -1.234  -6.400  0.00  0.00    -0.086 HD
ENDROOT
BRANCH  11  15
ATOM     15  C   UNL     1       2.380   0.020  -7.898  0.00  0.00    +0.038 A 
ATOM     16  C   UNL     1       1.239   0.671  -8.373  0.00  0.00    +0.014 A 
ATOM     17  C   UNL     1       0.977   0.697  -9.727  0.00  0.00    +0.022 A 
ATOM     18  C   UNL     1       1.842   0.080 -10.615  0.00  0.00    +0.059 A 
ATOM     19  C   UNL     1       2.975  -0.568 -10.150  0.00  0.00    +0.060 A 
ATOM     20  C   UNL     1       3.251  -0.596  -8.798  0.00  0.00    +0.034 A 
ATOM     21 CL   UNL     1       4.054  -1.339 -11.271  0.00  0.00    -0.082 Cl
ATOM     22 CL   UNL     1       1.504   0.117 -12.318  0.00  0.00    -0.082 Cl
ENDBRANCH  11  15
BRANCH   1  24
ATOM     23  N   UNL     1      -0.351  -0.394  -1.230  0.00  0.00    -0.312 N 
ATOM     24  C   UNL     1       0.004   0.301  -2.329  0.00  0.00    +0.218 C 
ATOM     25  O   UNL     1      -0.129   1.506  -2.354  0.00  0.00    -0.275 OA
ATOM     26  H   UNL     1      -0.244  -1.357  -1.210  0.00  0.00    +0.149 HD
BRANCH  23  28
ATOM     27  C   UNL     1       0.252   0.818   0.808  0.00  0.00    +0.028 C 
ATOM     28  C   UNL     1      -0.897   0.307  -0.065  0.00  0.00    +0.074 C 
BRANCH  28  29
ATOM     29  C   UNL     1      -1.766  -0.654   0.748  0.00  0.00    +0.060 C 
BRANCH  29  30
ATOM     30  C   UNL     1      -2.964  -1.062  -0.070  0.00  0.00    -0.004 A 
ATOM     31  C   UNL     1      -4.159  -0.382   0.067  0.00  0.00    +0.007 A 
ATOM     32  C   UNL     1      -5.258  -0.755  -0.683  0.00  0.00    +0.000 A 
ATOM     33  C   UNL     1      -5.166  -1.810  -1.572  0.00  0.00    +0.004 A 
ATOM     34  C   UNL     1      -3.974  -2.494  -1.713  0.00  0.00    +0.046 A 
ATOM     35  C   UNL     1      -2.867  -2.117  -0.965  0.00  0.00    +0.123 A 
BRANCH  35  36
ATOM     36  O   UNL     1      -1.692  -2.784  -1.106  0.00  0.00    -0.495 OA
ATOM     37  C   UNL     1      -1.665  -3.860  -2.046  0.00  0.00    +0.277 C 
ENDBRANCH  35  36
ENDBRANCH  29  30
ENDBRANCH  28  29
ENDBRANCH  23  28
ENDBRANCH   1  24
TORSDOF 6
