REMARK  Name = ZINC13018846
REMARK  7 active torsions:
REMARK  status: ('A' for Active; 'I' for Inactive)
REMARK    1  A    between atoms: C_1  and  O_2
REMARK    2  A    between atoms: O_2  and  C_3
REMARK    3  A    between atoms: C_6  and  C_19
REMARK    4  A    between atoms: C_8  and  S_9
REMARK    5  A    between atoms: S_9  and  N_12
REMARK    6  A    between atoms: N_21  and  C_22
REMARK    7  A    between atoms: C_24  and  C_28
REMARK                            x       y       z     vdW  Elec       q    Type
REMARK                         _______ _______ _______ _____ _____    ______ ____
ROOT
ATOM      1  C   UNL     1      -1.199  -0.637   0.010  0.00  0.00    +0.146 A 
ATOM      2  C   UNL     1      -2.374   0.106   0.020  0.00  0.00    +0.048 A 
ATOM      3  C   UNL     1      -3.594  -0.531   0.028  0.00  0.00    +0.017 A 
ATOM      4  C   UNL     1      -3.651  -1.928   0.027  0.00  0.00    +0.043 A 
ATOM      5  C   UNL     1      -2.467  -2.672   0.017  0.00  0.00    +0.045 A 
ATOM      6  C   UNL     1      -1.250  -2.025   0.003  0.00  0.00    +0.148 A 
ENDROOT
BRANCH   6   7
ATOM      7  S   UNL     1       0.243  -2.961  -0.017  0.00  0.00    +0.064 S 
ATOM      8  O   UNL     1       1.073  -2.423   1.004  0.00  0.00    -0.153 OA
ATOM      9  O   UNL     1      -0.137  -4.330  -0.047  0.00  0.00    -0.153 OA
BRANCH   7  10
ATOM     10  N   UNL     1       0.998  -2.647  -1.456  0.00  0.00    -0.176 NA
ATOM     11  C   UNL     1       0.694  -3.483  -2.596  0.00  0.00    +0.109 C 
ATOM     12  C   UNL     1       1.658  -4.695  -2.622  0.00  0.00    +0.017 C 
ATOM     13  C   UNL     1       3.014  -4.261  -2.991  0.00  0.00    +0.001 C 
ATOM     14  C   UNL     1       3.654  -3.292  -2.002  0.00  0.00    +0.001 C 
ATOM     15  C   UNL     1       3.217  -1.885  -2.327  0.00  0.00    +0.017 C 
ATOM     16  C   UNL     1       1.950  -1.520  -1.525  0.00  0.00    +0.109 C 
ENDBRANCH   7  10
ENDBRANCH   6   7
BRANCH   4  17
ATOM     17  C   UNL     1      -4.955  -2.615   0.037  0.00  0.00    +0.281 C 
ATOM     18  O   UNL     1      -5.007  -3.965   0.036  0.00  0.00    -0.265 OA
ATOM     19  N   UNL     1      -6.066  -1.915   0.047  0.00  0.00    -0.172 NA
BRANCH  19  20
ATOM     20  C   UNL     1      -7.268  -2.548   0.056  0.00  0.00    +0.250 A 
ATOM     21  N   UNL     1      -7.459  -3.855   0.056  0.00  0.00    -0.190 NA
ATOM     22  C   UNL     1      -8.772  -4.118   0.067  0.00  0.00    +0.183 A 
ATOM     23  N   UNL     1      -9.439  -2.985   0.073  0.00  0.00    -0.151 NA
ATOM     24  H   UNL     1      -8.671  -0.996   0.079  0.00  0.00    +0.192 HD
ATOM     25  N   UNL     1      -8.491  -1.949   0.072  0.00  0.00    -0.243 N 
BRANCH  22  26
ATOM     26  C   UNL     1      -9.377  -5.472   0.070  0.00  0.00    +0.021 A 
ATOM     27  C   UNL     1      -8.562  -6.602   0.067  0.00  0.00    +0.014 A 
ATOM     28  C   UNL     1      -9.129  -7.860   0.070  0.00  0.00    +0.039 A 
ATOM     29  C   UNL     1     -10.507  -8.000   0.076  0.00  0.00    +0.123 A 
ATOM     30  C   UNL     1     -11.322  -6.880   0.078  0.00  0.00    +0.039 A 
ATOM     31  C   UNL     1     -10.763  -5.618   0.081  0.00  0.00    +0.014 A 
ATOM     32  F   UNL     1     -11.059  -9.234   0.079  0.00  0.00    -0.205 F 
ENDBRANCH  22  26
ENDBRANCH  19  20
ENDBRANCH   4  17
BRANCH   1  34
ATOM     33  C   UNL     1      -0.017   1.425   0.010  0.00  0.00    +0.277 C 
ATOM     34  O   UNL     1       0.002  -0.004   0.002  0.00  0.00    -0.493 OA
ENDBRANCH   1  34
TORSDOF 6
