REMARK  Name = ZINC11859663
REMARK  8 active torsions:
REMARK  status: ('A' for Active; 'I' for Inactive)
REMARK    1  A    between atoms: C_1  and  C_2
REMARK    2  A    between atoms: C_5  and  C_8
REMARK    3  A    between atoms: N_33  and  C_36
REMARK    4  A    between atoms: C_36  and  C_38
REMARK    5  A    between atoms: C_36  and  C_42
REMARK    6  A    between atoms: C_38  and  C_39
REMARK    7  A    between atoms: C_39  and  C_40
REMARK    8  A    between atoms: C_39  and  C_41
REMARK                            x       y       z     vdW  Elec       q    Type
REMARK                         _______ _______ _______ _____ _____    ______ ____
ROOT
ATOM      1  C   UNL     1      -0.348  -4.999  -0.738  0.00  0.00    +0.063 C 
ATOM      2  C   UNL     1      -1.110  -4.469  -1.933  0.00  0.00    +0.032 A 
ATOM      3  C   UNL     1      -2.127  -3.579  -1.993  0.00  0.00    +0.087 A 
ATOM      4  N   UNL     1      -2.603  -3.296  -3.251  0.00  0.00    -0.311 N 
ATOM      5  H   UNL     1      -3.330  -2.663  -3.361  0.00  0.00    +0.170 HD
ATOM      6  C   UNL     1      -2.066  -3.892  -4.334  0.00  0.00    +0.289 A 
ATOM      7  O   UNL     1      -2.365  -3.757  -5.507  0.00  0.00    -0.260 OA
ATOM      8  S   UNL     1      -0.840  -4.901  -3.632  0.00  0.00    -0.030 S 
ATOM      9  S   UNL     1      -2.799  -2.823  -0.510  0.00  0.00    -0.103 S 
ATOM     10  C   UNL     1      -2.204  -4.025   0.709  0.00  0.00    +0.061 C 
ATOM     11  C   UNL     1      -0.690  -4.152   0.410  0.00  0.00    +0.019 C 
ATOM     12  C   UNL     1       0.015  -3.952   1.750  0.00  0.00    +0.007 C 
ATOM     13  C   UNL     1      -1.104  -4.628   2.671  0.00  0.00    +0.010 C 
ATOM     14  C   UNL     1      -2.298  -3.673   2.173  0.00  0.00    +0.015 C 
ATOM     15  C   UNL     1      -1.656  -2.421   2.735  0.00  0.00    +0.092 C 
ATOM     16  C   UNL     1      -0.266  -2.496   1.971  0.00  0.00    +0.091 C 
ATOM     17  C   UNL     1       0.340  -1.279   2.472  0.00  0.00    +0.227 C 
ATOM     18  O   UNL     1       1.461  -1.100   2.887  0.00  0.00    -0.275 OA
ATOM     19  N   UNL     1      -0.716  -0.388   2.344  0.00  0.00    -0.228 N 
ATOM     20  C   UNL     1      -1.931  -1.026   2.233  0.00  0.00    +0.227 C 
ATOM     21  O   UNL     1      -2.977  -0.569   1.827  0.00  0.00    -0.275 OA
ENDROOT
BRANCH   1  26
ATOM     22  C   UNL     1      -1.755 -10.513   0.270  0.00  0.00    +0.044 C 
ATOM     23  C   UNL     1      -1.388  -9.075   0.007  0.00  0.00    -0.050 A 
ATOM     24  C   UNL     1      -2.368  -8.165  -0.343  0.00  0.00    +0.003 A 
ATOM     25  C   UNL     1      -2.031  -6.846  -0.584  0.00  0.00    +0.004 A 
ATOM     26  C   UNL     1      -0.715  -6.437  -0.475  0.00  0.00    -0.039 A 
ATOM     27  C   UNL     1       0.265  -7.348  -0.129  0.00  0.00    +0.004 A 
ATOM     28  C   UNL     1      -0.072  -8.666   0.116  0.00  0.00    +0.003 A 
ENDBRANCH   1  26
BRANCH  19  29
ATOM     29  C   UNL     1      -0.558   1.066   2.329  0.00  0.00    +0.197 C 
BRANCH  29  30
ATOM     30  C   UNL     1      -1.334   1.666   3.473  0.00  0.00    +0.376 C 
ATOM     31  O   UNL     1      -1.955   0.951   4.223  0.00  0.00    -0.244 OA
ATOM     32  O   UNL     1      -1.335   2.996   3.659  0.00  0.00    -0.244 OA
ENDBRANCH  29  30
BRANCH  29  33
ATOM     33  C   UNL     1      -1.087   1.623   1.006  0.00  0.00    +0.037 C 
BRANCH  33  34
ATOM     34  C   UNL     1      -0.220   1.111  -0.146  0.00  0.00    -0.015 C 
ATOM     35  C   UNL     1       1.196   1.672  -0.007  0.00  0.00    +0.007 C 
ATOM     36  C   UNL     1      -0.821   1.565  -1.478  0.00  0.00    +0.007 C 
ENDBRANCH  33  34
ENDBRANCH  29  33
ENDBRANCH  19  29
TORSDOF 5
