REMARK  Name = ZINC39680040
REMARK  6 active torsions:
REMARK  status: ('A' for Active; 'I' for Inactive)
REMARK    1  A    between atoms: C_1  and  C_2
REMARK    2  A    between atoms: C_8  and  C_16
REMARK    3  A    between atoms: C_12  and  C_13
REMARK    4  A    between atoms: C_16  and  S_17
REMARK    5  A    between atoms: S_17  and  C_18
REMARK    6  A    between atoms: N_33  and  C_34
REMARK                            x       y       z     vdW  Elec       q    Type
REMARK                         _______ _______ _______ _____ _____    ______ ____
ROOT
ATOM      1  C   UNL     1       0.025  -3.320  -4.573  0.00  0.00    +0.151 C 
ENDROOT
BRANCH   1   9
ATOM      2  C   UNL     1      -0.018   1.503   0.010  0.00  0.00    +0.046 C 
ATOM      3  C   UNL     1       0.002  -0.004   0.002  0.00  0.00    -0.015 A 
ATOM      4  C   UNL     1       0.005  -0.700  -1.207  0.00  0.00    +0.076 A 
ATOM      5  C   UNL     1      -0.009  -0.168  -2.590  0.00  0.00    +0.260 A 
ATOM      6  O   UNL     1      -0.026   1.032  -2.798  0.00  0.00    -0.267 OA
ATOM      7  N   UNL     1      -0.002  -1.047  -3.611  0.00  0.00    -0.310 N 
ATOM      8  H   UNL     1      -0.010  -0.716  -4.523  0.00  0.00    +0.170 HD
ATOM      9  C   UNL     1       0.018  -2.385  -3.391  0.00  0.00    +0.121 A 
ATOM     10  N   UNL     1       0.031  -2.886  -2.186  0.00  0.00    -0.226 NA
ATOM     11  C   UNL     1       0.026  -2.110  -1.109  0.00  0.00    +0.116 A 
ATOM     12  S   UNL     1       0.038  -2.402   0.641  0.00  0.00    -0.062 S 
ATOM     13  C   UNL     1       0.023  -0.703   1.188  0.00  0.00    +0.106 A 
BRANCH  13  14
ATOM     14  C   UNL     1       0.029  -0.199   2.513  0.00  0.00    +0.393 C 
ATOM     15  O   UNL     1       0.015   1.010   2.709  0.00  0.00    -0.240 OA
ATOM     16  O   UNL     1       0.050  -0.973   3.463  0.00  0.00    -0.240 OA
ENDBRANCH  13  14
ENDBRANCH   1   9
BRANCH   1  17
ATOM     17  S   UNL     1       0.052  -5.036  -3.985  0.00  0.00    -0.083 S 
BRANCH  17  18
ATOM     18  C   UNL     1       0.057  -5.993  -5.464  0.00  0.00    +0.159 C 
ATOM     19  N   UNL     1       0.048  -5.390  -6.610  0.00  0.00    -0.247 NA
ATOM     20  C   UNL     1       0.067  -6.109  -7.881  0.00  0.00    +0.185 C 
ATOM     21  C   UNL     1       0.831  -7.448  -7.717  0.00  0.00    +0.137 C 
ATOM     22  C   UNL     1       2.321  -7.217  -7.753  0.00  0.00    -0.045 C 
ATOM     23  C   UNL     1       2.750  -6.124  -8.379  0.00  0.00    -0.012 C 
ATOM     24  S   UNL     1       1.272  -5.253  -8.992  0.00  0.00    -0.102 S 
ATOM     25  C   UNL     1       4.174  -5.687  -8.562  0.00  0.00    +0.042 C 
ATOM     26  C   UNL     1       5.061  -6.479  -7.592  0.00  0.00    +0.005 C 
ATOM     27  C   UNL     1       4.694  -7.962  -7.696  0.00  0.00    +0.005 C 
ATOM     28  C   UNL     1       3.303  -8.188  -7.104  0.00  0.00    +0.032 C 
ATOM     29  C   UNL     1       0.435  -8.109  -6.430  0.00  0.00    +0.231 C 
ATOM     30  O   UNL     1       0.482  -9.317  -6.335  0.00  0.00    -0.274 OA
ATOM     31  N   UNL     1       0.077  -7.371  -5.379  0.00  0.00    -0.253 N 
ATOM     32  C   UNL     1      -0.346  -8.036  -4.144  0.00  0.00    +0.140 C 
ENDBRANCH  17  18
ENDBRANCH   1  17
TORSDOF 4
