REMARK  Name = ZINC17122330
REMARK  8 active torsions:
REMARK  status: ('A' for Active; 'I' for Inactive)
REMARK    1  A    between atoms: C_1  and  C_2
REMARK    2  A    between atoms: C_7  and  C_8
REMARK    3  A    between atoms: N_12  and  N_13
REMARK    4  A    between atoms: C_14  and  C_16
REMARK    5  A    between atoms: C_19  and  S_22
REMARK    6  A    between atoms: S_22  and  N_25
REMARK    7  A    between atoms: C_27  and  C_34
REMARK    8  A    between atoms: C_30  and  C_33
REMARK                            x       y       z     vdW  Elec       q    Type
REMARK                         _______ _______ _______ _____ _____    ______ ____
ROOT
ATOM      1  N   UNL     1       0.105  -6.525   2.881  0.00  0.00    -0.231 N 
ATOM      2  C   UNL     1       0.123  -7.450   3.861  0.00  0.00    +0.260 C 
ATOM      3  O   UNL     1       0.123  -7.101   5.025  0.00  0.00    -0.269 OA
ATOM      4  H   UNL     1       0.105  -6.804   1.951  0.00  0.00    +0.173 HD
ENDROOT
BRANCH   1  16
ATOM      5  C   UNL     1      -0.018   1.503   0.010  0.00  0.00    +0.044 C 
ATOM      6  C   UNL     1       0.002  -0.004   0.002  0.00  0.00    -0.045 A 
ATOM      7  C   UNL     1       0.005  -0.675  -1.212  0.00  0.00    +0.005 A 
ATOM      8  C   UNL     1       0.025  -2.058  -1.221  0.00  0.00    +0.017 A 
ATOM      9  C   UNL     1       0.040  -2.743  -0.032  0.00  0.00    +0.041 A 
ATOM     10  C   UNL     1       0.037  -2.094   1.223  0.00  0.00    +0.083 A 
ATOM     11  C   UNL     1       0.023  -0.680   1.194  0.00  0.00    -0.021 A 
ATOM     12  C   UNL     1       0.024   0.092   2.489  0.00  0.00    +0.046 C 
ATOM     13  N   UNL     1       0.053  -2.906   2.303  0.00  0.00    -0.223 NA
ATOM     14  C   UNL     1       0.071  -4.215   2.200  0.00  0.00    +0.176 A 
ATOM     15  S   UNL     1       0.066  -4.459   0.429  0.00  0.00    -0.051 S 
ATOM     16  N   UNL     1       0.088  -5.162   3.204  0.00  0.00    -0.242 N 
ATOM     17  H   UNL     1       0.089  -4.884   4.133  0.00  0.00    +0.172 HD
ENDBRANCH   1  16
BRANCH   2  18
ATOM     18  C   UNL     1       0.141  -8.889   3.520  0.00  0.00    +0.038 A 
ATOM     19  C   UNL     1       0.146  -9.292   2.184  0.00  0.00    +0.015 A 
ATOM     20  C   UNL     1       0.162 -10.636   1.873  0.00  0.00    +0.029 A 
ATOM     21  C   UNL     1       0.174 -11.583   2.882  0.00  0.00    +0.106 A 
ATOM     22  C   UNL     1       0.170 -11.189   4.208  0.00  0.00    +0.029 A 
ATOM     23  C   UNL     1       0.159  -9.849   4.533  0.00  0.00    +0.015 A 
BRANCH  21  24
ATOM     24  S   UNL     1       0.195 -13.297   2.475  0.00  0.00    +0.061 S 
ATOM     25  O   UNL     1      -0.347 -13.986   3.594  0.00  0.00    -0.153 OA
ATOM     26  O   UNL     1      -0.355 -13.412   1.170  0.00  0.00    -0.153 OA
BRANCH  24  27
ATOM     27  N   UNL     1       1.783 -13.754   2.362  0.00  0.00    -0.176 NA
ATOM     28  C   UNL     1       2.498 -13.664   1.082  0.00  0.00    +0.112 C 
ATOM     29  C   UNL     1       3.117 -15.029   0.765  0.00  0.00    +0.002 C 
ATOM     30  C   UNL     1       3.989 -15.475   1.942  0.00  0.00    +0.009 C 
ATOM     31  C   UNL     1       3.122 -15.616   3.196  0.00  0.00    +0.002 C 
ATOM     32  C   UNL     1       2.504 -14.252   3.541  0.00  0.00    +0.112 C 
ATOM     33  C   UNL     1       3.987 -16.094   4.363  0.00  0.00    +0.009 C 
ATOM     34  C   UNL     1       3.978 -14.919  -0.495  0.00  0.00    +0.009 C 
ENDBRANCH  24  27
ENDBRANCH  21  24
ENDBRANCH   2  18
TORSDOF 4
