REMARK  Name = ZINC36019585
REMARK  8 active torsions:
REMARK  status: ('A' for Active; 'I' for Inactive)
REMARK    1  A    between atoms: C_1  and  C_2
REMARK    2  A    between atoms: C_5  and  N_8
REMARK    3  A    between atoms: N_14  and  C_17
REMARK    4  A    between atoms: C_20  and  N_31
REMARK    5  A    between atoms: C_22  and  C_23
REMARK    6  A    between atoms: C_32  and  C_34
REMARK    7  A    between atoms: C_34  and  C_35
REMARK    8  A    between atoms: C_34  and  C_36
REMARK                            x       y       z     vdW  Elec       q    Type
REMARK                         _______ _______ _______ _____ _____    ______ ____
ROOT
ATOM      1  C   UNL     1       1.686  -9.886   1.113  0.00  0.00    +0.042 A 
ATOM      2  C   UNL     1       2.894 -10.448   0.720  0.00  0.00    +0.026 A 
ATOM      3  C   UNL     1       3.107 -11.803   0.864  0.00  0.00    +0.025 A 
ATOM      4  C   UNL     1       2.116 -12.618   1.402  0.00  0.00    +0.034 A 
ATOM      5  C   UNL     1       0.907 -12.074   1.798  0.00  0.00    +0.038 A 
ATOM      6  C   UNL     1       0.684 -10.701   1.661  0.00  0.00    +0.060 A 
ENDROOT
BRANCH   1  13
ATOM      7  N   UNL     1      -0.876  -4.434  -0.032  0.00  0.00    -0.269 N 
ATOM      8  C   UNL     1      -0.205  -4.901   1.039  0.00  0.00    +0.307 C 
ATOM      9  O   UNL     1       0.214  -4.128   1.879  0.00  0.00    -0.252 OA
ATOM     10  N   UNL     1       0.002  -6.226   1.180  0.00  0.00    -0.282 N 
ATOM     11  C   UNL     1      -0.356  -7.157   0.101  0.00  0.00    +0.128 C 
ATOM     12  C   UNL     1       0.884  -7.982  -0.266  0.00  0.00    +0.124 C 
ATOM     13  N   UNL     1       1.472  -8.520   0.968  0.00  0.00    -0.326 N 
ATOM     14  C   UNL     1       1.831  -7.589   2.047  0.00  0.00    +0.124 C 
ATOM     15  C   UNL     1       0.596  -6.763   2.412  0.00  0.00    +0.128 C 
ATOM     16  H   UNL     1      -1.295  -5.053  -0.650  0.00  0.00    +0.156 HD
BRANCH   7  21
ATOM     17  C   UNL     1      -1.252   1.156  -0.928  0.00  0.00    +0.044 C 
ATOM     18  C   UNL     1      -1.152  -0.329  -0.690  0.00  0.00    -0.050 A 
ATOM     19  C   UNL     1      -1.150  -1.201  -1.763  0.00  0.00    +0.005 A 
ATOM     20  C   UNL     1      -1.059  -2.562  -1.548  0.00  0.00    +0.023 A 
ATOM     21  C   UNL     1      -0.968  -3.055  -0.253  0.00  0.00    +0.035 A 
ATOM     22  C   UNL     1      -0.970  -2.176   0.823  0.00  0.00    +0.023 A 
ATOM     23  C   UNL     1      -1.056  -0.816   0.601  0.00  0.00    +0.005 A 
ENDBRANCH   7  21
ENDBRANCH   1  13
BRANCH   6  24
ATOM     24  C   UNL     1      -0.599 -10.113   2.086  0.00  0.00    +0.248 C 
ATOM     25  O   UNL     1      -1.243  -9.433   1.310  0.00  0.00    -0.270 OA
ATOM     26  N   UNL     1      -1.059 -10.329   3.335  0.00  0.00    -0.297 N 
ATOM     27  C   UNL     1      -0.228 -11.021   4.329  0.00  0.00    +0.108 C 
ATOM     28  C   UNL     1      -0.134 -10.149   5.585  0.00  0.00    +0.019 C 
ATOM     29  C   UNL     1      -1.544  -9.808   6.072  0.00  0.00    +0.003 C 
ATOM     30  C   UNL     1      -2.282  -9.017   4.990  0.00  0.00    +0.019 C 
ATOM     31  C   UNL     1      -2.399  -9.871   3.729  0.00  0.00    +0.108 C 
ENDBRANCH   6  24
BRANCH   4  32
ATOM     32  N   UNL     1       2.342 -13.994   1.544  0.00  0.00    -0.285 N 
ATOM     33  C   UNL     1       1.379 -14.874   1.206  0.00  0.00    +0.220 C 
ATOM     34  O   UNL     1       0.367 -14.486   0.662  0.00  0.00    -0.275 OA
ATOM     35  H   UNL     1       3.192 -14.313   1.885  0.00  0.00    +0.155 HD
BRANCH  33  36
ATOM     36  C   UNL     1       1.560 -16.340   1.503  0.00  0.00    +0.069 C 
ATOM     37  C   UNL     1       0.331 -17.113   1.021  0.00  0.00    +0.017 C 
ATOM     38  C   UNL     1       2.804 -16.858   0.779  0.00  0.00    +0.017 C 
ENDBRANCH  33  36
ENDBRANCH   4  32
TORSDOF 5
