REMARK  Name = ZINC47145955
REMARK  6 active torsions:
REMARK  status: ('A' for Active; 'I' for Inactive)
REMARK    1  A    between atoms: C_1  and  O_2
REMARK    2  A    between atoms: O_2  and  C_3
REMARK    3  A    between atoms: C_5  and  C_10
REMARK    4  A    between atoms: C_8  and  O_9
REMARK    5  A    between atoms: N_25  and  C_28
REMARK    6  A    between atoms: C_31  and  N_34
REMARK                            x       y       z     vdW  Elec       q    Type
REMARK                         _______ _______ _______ _____ _____    ______ ____
ROOT
ATOM      1  C   UNL     1       2.403   0.379  -4.230  0.00  0.00    +0.072 C 
ATOM      2  C   UNL     1       1.764   0.007  -5.516  0.00  0.00    +0.035 A 
ATOM      3  C   UNL     1       2.352  -0.262  -6.713  0.00  0.00    +0.113 A 
ATOM      4  N   UNL     1       1.500  -0.526  -7.707  0.00  0.00    -0.196 NA
ATOM      5  C   UNL     1       0.201  -0.553  -7.521  0.00  0.00    +0.311 A 
ATOM      6  O   UNL     1      -0.774  -0.809  -8.427  0.00  0.00    -0.258 OA
ATOM      7  S   UNL     1       0.039  -0.193  -5.884  0.00  0.00    -0.028 S 
ATOM      8  S   UNL     1       4.117  -0.274  -6.883  0.00  0.00    -0.091 S 
ATOM      9  C   UNL     1       4.702   0.609  -5.401  0.00  0.00    +0.152 C 
ATOM     10  C   UNL     1       3.873   0.202  -4.178  0.00  0.00    +0.110 C 
ATOM     11  C   UNL     1       4.437  -1.132  -3.800  0.00  0.00    +0.232 C 
ATOM     12  O   UNL     1       3.863  -2.030  -3.221  0.00  0.00    -0.274 OA
ATOM     13  N   UNL     1       5.718  -1.131  -4.237  0.00  0.00    -0.209 N 
ATOM     14  C   UNL     1       6.027  -0.073  -5.018  0.00  0.00    +0.240 C 
ATOM     15  O   UNL     1       7.138   0.270  -5.360  0.00  0.00    -0.274 OA
ENDROOT
BRANCH   1  18
ATOM     16  C   UNL     1       1.081  -0.699  -0.859  0.00  0.00    +0.162 A 
ATOM     17  C   UNL     1       1.646   0.067  -1.865  0.00  0.00    +0.053 A 
ATOM     18  C   UNL     1       1.787  -0.456  -3.137  0.00  0.00    -0.035 A 
ATOM     19  C   UNL     1       1.364  -1.744  -3.409  0.00  0.00    +0.008 A 
ATOM     20  C   UNL     1       0.798  -2.514  -2.410  0.00  0.00    +0.049 A 
ATOM     21  C   UNL     1       0.659  -1.998  -1.131  0.00  0.00    +0.158 A 
BRANCH  16  23
ATOM     22  C   UNL     1       1.396   1.153   0.599  0.00  0.00    +0.277 C 
ATOM     23  O   UNL     1       0.942  -0.186   0.392  0.00  0.00    -0.491 OA
ENDBRANCH  16  23
BRANCH  21  24
ATOM     24  O   UNL     1       0.108  -2.756  -0.146  0.00  0.00    -0.503 OA
ATOM     25  H   UNL     1      -0.852  -2.671  -0.075  0.00  0.00    +0.292 HD
ENDBRANCH  21  24
ENDBRANCH   1  18
BRANCH  13  26
ATOM     26  C   UNL     1       6.642  -2.131  -3.902  0.00  0.00    +0.044 A 
ATOM     27  C   UNL     1       6.257  -3.189  -3.090  0.00  0.00    +0.026 A 
ATOM     28  C   UNL     1       7.169  -4.173  -2.762  0.00  0.00    +0.034 A 
ATOM     29  C   UNL     1       8.465  -4.105  -3.241  0.00  0.00    +0.126 A 
ATOM     30  C   UNL     1       8.851  -3.052  -4.049  0.00  0.00    +0.034 A 
ATOM     31  C   UNL     1       7.942  -2.068  -4.386  0.00  0.00    +0.026 A 
BRANCH  29  32
ATOM     32  N   UNL     1       9.440  -5.161  -2.887  0.00  0.00    +0.056 N 
ATOM     33  O   UNL     1       9.103  -6.082  -2.180  0.00  0.00    -0.126 OA
ATOM     34  O   UNL     1      10.572  -5.102  -3.305  0.00  0.00    -0.126 OA
ENDBRANCH  29  32
ENDBRANCH  13  26
TORSDOF 5
