REMARK  Name = ZINC33432030
REMARK  8 active torsions:
REMARK  status: ('A' for Active; 'I' for Inactive)
REMARK    1  A    between atoms: C_1  and  C_2
REMARK    2  A    between atoms: C_2  and  N_3
REMARK    3  A    between atoms: N_6  and  C_9
REMARK    4  A    between atoms: C_12  and  N_15
REMARK    5  A    between atoms: C_16  and  C_18
REMARK    6  A    between atoms: C_18  and  S_19
REMARK    7  A    between atoms: S_19  and  C_20
REMARK    8  A    between atoms: C_23  and  C_25
REMARK                            x       y       z     vdW  Elec       q    Type
REMARK                         _______ _______ _______ _____ _____    ______ ____
ROOT
ATOM      1  N   UNL     1      -6.573  -5.463   4.085  0.00  0.00    -0.285 N 
ATOM      2  C   UNL     1      -7.686  -5.017   4.701  0.00  0.00    +0.228 C 
ATOM      3  O   UNL     1      -8.081  -3.888   4.498  0.00  0.00    -0.275 OA
ATOM      4  H   UNL     1      -6.301  -6.388   4.185  0.00  0.00    +0.155 HD
ENDROOT
BRANCH   1   8
ATOM      5  C   UNL     1      -4.300  -2.862   1.747  0.00  0.00    +0.030 A 
ATOM      6  C   UNL     1      -4.937  -2.393   2.888  0.00  0.00    +0.025 A 
ATOM      7  C   UNL     1      -5.690  -3.253   3.662  0.00  0.00    +0.025 A 
ATOM      8  C   UNL     1      -5.809  -4.588   3.299  0.00  0.00    +0.034 A 
ATOM      9  C   UNL     1      -5.172  -5.058   2.158  0.00  0.00    +0.025 A 
ATOM     10  C   UNL     1      -4.424  -4.196   1.381  0.00  0.00    +0.025 A 
BRANCH   5  14
ATOM     11  N   UNL     1      -1.353  -0.498   0.060  0.00  0.00    +0.382 N 
ATOM     12  C   UNL     1      -2.016  -0.117   1.313  0.00  0.00    -0.060 C 
ATOM     13  C   UNL     1      -3.485  -0.551   1.265  0.00  0.00    +0.086 C 
ATOM     14  N   UNL     1      -3.537  -1.989   0.963  0.00  0.00    -0.333 N 
ATOM     15  C   UNL     1      -2.764  -2.485  -0.186  0.00  0.00    +0.086 C 
ATOM     16  C   UNL     1      -1.329  -1.960  -0.069  0.00  0.00    -0.060 C 
ATOM     17  H   UNL     1      -1.857  -0.101  -0.718  0.00  0.00    -0.082 HD
BRANCH  11  19
ATOM     18  C   UNL     1      -0.001   1.544   0.071  0.00  0.00    -0.017 C 
ATOM     19  C   UNL     1       0.024   0.014   0.062  0.00  0.00    -0.082 C 
ENDBRANCH  11  19
ENDBRANCH   5  14
ENDBRANCH   1   8
BRANCH   2  20
ATOM     20  C   UNL     1      -8.439  -5.921   5.642  0.00  0.00    +0.175 C 
BRANCH  20  21
ATOM     21  S   UNL     1      -9.878  -5.038   6.306  0.00  0.00    -0.056 S 
BRANCH  21  22
ATOM     22  C   UNL     1     -10.643  -6.213   7.374  0.00  0.00    +0.278 A 
ATOM     23  N   UNL     1     -10.227  -7.436   7.609  0.00  0.00    -0.101 NA
ATOM     24  N   UNL     1     -11.027  -8.008   8.438  0.00  0.00    -0.106 NA
ATOM     25  C   UNL     1     -11.985  -7.176   8.765  0.00  0.00    +0.249 A 
ATOM     26  O   UNL     1     -11.759  -6.019   8.102  0.00  0.00    -0.411 OA
BRANCH  25  27
ATOM     27  C   UNL     1     -13.104  -7.449   9.691  0.00  0.00    +0.039 A 
ATOM     28  C   UNL     1     -14.062  -6.465   9.942  0.00  0.00    +0.014 A 
ATOM     29  C   UNL     1     -15.103  -6.726  10.808  0.00  0.00    +0.016 A 
ATOM     30  C   UNL     1     -15.200  -7.961  11.427  0.00  0.00    +0.018 A 
ATOM     31  C   UNL     1     -14.253  -8.941  11.182  0.00  0.00    +0.016 A 
ATOM     32  C   UNL     1     -13.210  -8.694  10.313  0.00  0.00    +0.014 A 
ATOM     33 BR   UNL     1     -16.631  -8.310  12.613  0.00  0.00    -0.050 Br
ENDBRANCH  25  27
ENDBRANCH  21  22
ENDBRANCH  20  21
ENDBRANCH   2  20
TORSDOF 7
