REMARK  Name = ZINC39945692
REMARK  7 active torsions:
REMARK  status: ('A' for Active; 'I' for Inactive)
REMARK    1  A    between atoms: C_1  and  C_2
REMARK    2  A    between atoms: C_2  and  C_4
REMARK    3  A    between atoms: C_2  and  S_14
REMARK    4  A    between atoms: N_6  and  C_7
REMARK    5  A    between atoms: S_14  and  C_15
REMARK    6  A    between atoms: C_19  and  C_28
REMARK    7  A    between atoms: N_20  and  C_21
REMARK                            x       y       z     vdW  Elec       q    Type
REMARK                         _______ _______ _______ _____ _____    ______ ____
ROOT
ATOM      1  C   UNL     1      -2.131  -0.004   1.479  0.00  0.00    +0.242 C 
ATOM      2  N   UNL     1      -2.106   1.443   1.752  0.00  0.00    -0.237 N 
ATOM      3  N   UNL     1      -1.540   1.599   3.022  0.00  0.00    -0.169 NA
ATOM      4  C   UNL     1      -1.224   0.444   3.546  0.00  0.00    +0.151 C 
ATOM      5  N   UNL     1      -1.544  -0.613   2.684  0.00  0.00    -0.254 N 
ATOM      6  H   UNL     1      -2.420   2.149   1.165  0.00  0.00    +0.171 HD
ENDROOT
BRANCH   4   7
ATOM      7  C   UNL     1      -0.638   0.282   4.811  0.00  0.00    +0.022 C 
ATOM      8  C   UNL     1      -0.319   1.285   5.727  0.00  0.00    +0.006 A 
ATOM      9  C   UNL     1      -0.466   2.689   5.694  0.00  0.00    +0.010 A 
ATOM     10  C   UNL     1      -0.059   3.434   6.753  0.00  0.00    +0.001 A 
ATOM     11  C   UNL     1       0.507   2.846   7.886  0.00  0.00    +0.002 A 
ATOM     12  C   UNL     1       0.678   1.504   7.987  0.00  0.00    +0.026 A 
ATOM     13  C   UNL     1       0.276   0.660   6.920  0.00  0.00    +0.043 A 
ATOM     14  N   UNL     1       0.333  -0.649   6.774  0.00  0.00    -0.380 N 
ATOM     15  C   UNL     1      -0.227  -1.016   5.470  0.00  0.00    +0.152 C 
ATOM     16  H   UNL     1       0.685  -1.272   7.429  0.00  0.00    +0.160 HD
ENDBRANCH   4   7
BRANCH   5  17
ATOM     17  C   UNL     1      -1.346  -1.976   2.920  0.00  0.00    +0.038 A 
ATOM     18  C   UNL     1      -2.426  -2.792   3.234  0.00  0.00    +0.025 A 
ATOM     19  C   UNL     1      -2.228  -4.139   3.466  0.00  0.00    +0.022 A 
ATOM     20  C   UNL     1      -0.955  -4.676   3.387  0.00  0.00    +0.041 A 
ATOM     21  C   UNL     1       0.123  -3.865   3.074  0.00  0.00    +0.022 A 
ATOM     22  C   UNL     1      -0.070  -2.519   2.834  0.00  0.00    +0.025 A 
ATOM     23 CL   UNL     1      -0.709  -6.369   3.680  0.00  0.00    -0.084 Cl
ENDBRANCH   5  17
BRANCH   1  24
ATOM     24  S   UNL     1      -1.127  -0.392   0.019  0.00  0.00    -0.105 S 
BRANCH  24  26
ATOM     25  C   UNL     1       0.436   1.789   0.550  0.00  0.00    +0.029 C 
ATOM     26  C   UNL     1       0.513   0.266   0.427  0.00  0.00    +0.133 C 
BRANCH  26  27
ATOM     27  C   UNL     1       1.487  -0.101  -0.663  0.00  0.00    +0.230 C 
ATOM     28  O   UNL     1       1.085  -0.320  -1.786  0.00  0.00    -0.274 OA
ATOM     29  N   UNL     1       2.804  -0.185  -0.390  0.00  0.00    -0.285 N 
ATOM     30  H   UNL     1       3.134   0.064   0.487  0.00  0.00    +0.155 HD
BRANCH  29  31
ATOM     31  C   UNL     1       3.695  -0.631  -1.373  0.00  0.00    +0.035 A 
ATOM     32  C   UNL     1       4.809  -1.379  -1.014  0.00  0.00    +0.023 A 
ATOM     33  C   UNL     1       5.687  -1.818  -1.985  0.00  0.00    +0.003 A 
ATOM     34  C   UNL     1       5.458  -1.514  -3.315  0.00  0.00    +0.020 A 
ATOM     35  C   UNL     1       4.349  -0.770  -3.676  0.00  0.00    +0.043 A 
ATOM     36  C   UNL     1       3.464  -0.332  -2.709  0.00  0.00    +0.043 A 
ATOM     37 CL   UNL     1       4.066  -0.391  -5.346  0.00  0.00    -0.083 Cl
ENDBRANCH  29  31
ENDBRANCH  26  27
ENDBRANCH  24  26
ENDBRANCH   1  24
TORSDOF 6
