REMARK  Name = ZINC39609217
REMARK  8 active torsions:
REMARK  status: ('A' for Active; 'I' for Inactive)
REMARK    1  A    between atoms: C_1  and  C_2
REMARK    2  A    between atoms: C_5  and  C_9
REMARK    3  A    between atoms: C_7  and  C_8
REMARK    4  A    between atoms: C_9  and  C_10
REMARK    5  A    between atoms: C_10  and  N_11
REMARK    6  A    between atoms: C_12  and  C_14
REMARK    7  A    between atoms: C_25  and  C_27
REMARK    8  A    between atoms: C_30  and  C_34
REMARK                            x       y       z     vdW  Elec       q    Type
REMARK                         _______ _______ _______ _____ _____    ______ ____
ROOT
ATOM      1  C   UNL     1       2.470  -9.042  -0.044  0.00  0.00    +0.100 C 
ATOM      2  C   UNL     1       1.757  -9.250  -1.399  0.00  0.00    +0.121 C 
ATOM      3  N   UNL     1       2.857  -9.415  -2.379  0.00  0.00    -0.296 N 
ATOM      4  C   UNL     1       3.867 -10.232  -1.665  0.00  0.00    +0.115 C 
ATOM      5  C   UNL     1       3.853  -9.691  -0.221  0.00  0.00    -0.004 C 
ATOM      6  C   UNL     1       4.953  -8.650  -0.038  0.00  0.00    -0.010 C 
ATOM      7  C   UNL     1       6.319  -9.330  -0.163  0.00  0.00    -0.082 C 
ATOM      8  N   UNL     1       6.438 -10.382   0.855  0.00  0.00    +0.379 N 
ATOM      9  C   UNL     1       5.435 -11.427   0.616  0.00  0.00    -0.082 C 
ATOM     10  C   UNL     1       4.032 -10.835   0.773  0.00  0.00    -0.010 C 
ATOM     11  C   UNL     1       2.924  -8.931  -3.635  0.00  0.00    +0.247 C 
ATOM     12  O   UNL     1       2.068  -8.168  -4.039  0.00  0.00    -0.270 OA
ATOM     13  H   UNL     1       7.361 -10.787   0.810  0.00  0.00    -0.086 HD
ATOM     14  H   UNL     1       6.293  -9.981   1.769  0.00  0.00    -0.086 HD
ENDROOT
BRANCH  11  15
ATOM     15  C   UNL     1       4.038  -9.329  -4.522  0.00  0.00    +0.040 A 
ATOM     16  C   UNL     1       4.761 -10.493  -4.260  0.00  0.00    +0.014 A 
ATOM     17  C   UNL     1       5.799 -10.860  -5.090  0.00  0.00    +0.016 A 
ATOM     18  C   UNL     1       6.125 -10.077  -6.183  0.00  0.00    +0.090 A 
ATOM     19  C   UNL     1       5.413  -8.919  -6.450  0.00  0.00    +0.136 A 
ATOM     20  C   UNL     1       4.367  -8.544  -5.628  0.00  0.00    +0.052 A 
ATOM     21  F   UNL     1       5.737  -8.158  -7.518  0.00  0.00    -0.205 F 
BRANCH  18  22
ATOM     22  C   UNL     1       7.261 -10.484  -7.086  0.00  0.00    +0.420 C 
ATOM     23  F   UNL     1       7.824 -11.676  -6.618  0.00  0.00    -0.166 F 
ATOM     24  F   UNL     1       6.778 -10.675  -8.385  0.00  0.00    -0.166 F 
ATOM     25  F   UNL     1       8.235  -9.479  -7.093  0.00  0.00    -0.166 F 
ENDBRANCH  18  22
ENDBRANCH  11  15
BRANCH   1  27
ATOM     26  N   UNL     1       2.753  -7.152   1.527  0.00  0.00    -0.315 N 
ATOM     27  C   UNL     1       2.614  -7.572   0.254  0.00  0.00    +0.218 C 
ATOM     28  O   UNL     1       2.606  -6.766  -0.653  0.00  0.00    -0.275 OA
ATOM     29  H   UNL     1       2.760  -7.797   2.252  0.00  0.00    +0.149 HD
BRANCH  26  30
ATOM     30  C   UNL     1       2.894  -5.723   1.816  0.00  0.00    +0.109 C 
BRANCH  30  31
ATOM     31  C   UNL     1       3.034  -5.519   3.326  0.00  0.00    +0.054 C 
BRANCH  31  36
ATOM     32  C   UNL     1       3.589   0.118   4.469  0.00  0.00    +0.044 C 
ATOM     33  C   UNL     1       3.444  -1.352   4.171  0.00  0.00    -0.048 A 
ATOM     34  C   UNL     1       2.188  -1.929   4.130  0.00  0.00    +0.004 A 
ATOM     35  C   UNL     1       2.056  -3.277   3.857  0.00  0.00    +0.004 A 
ATOM     36  C   UNL     1       3.179  -4.049   3.623  0.00  0.00    -0.046 A 
ATOM     37  C   UNL     1       4.434  -3.472   3.662  0.00  0.00    +0.007 A 
ATOM     38  C   UNL     1       4.566  -2.123   3.932  0.00  0.00    -0.047 A 
ATOM     39  C   UNL     1       5.935  -1.493   3.969  0.00  0.00    +0.044 C 
ENDBRANCH  31  36
ENDBRANCH  30  31
ENDBRANCH  26  30
ENDBRANCH   1  27
TORSDOF 6
