REMARK  Name = ZINC15613361
REMARK  4 active torsions:
REMARK  status: ('A' for Active; 'I' for Inactive)
REMARK    1  A    between atoms: C_3  and  S_18
REMARK    2  A    between atoms: C_6  and  C_7
REMARK    3  A    between atoms: N_9  and  C_10
REMARK    4  A    between atoms: S_18  and  N_21
REMARK                            x       y       z     vdW  Elec       q    Type
REMARK                         _______ _______ _______ _____ _____    ______ ____
ROOT
ATOM      1  C   UNL     1       4.028   2.608  -0.050  0.00  0.00    +0.015 A 
ATOM      2  C   UNL     1       5.324   3.083  -0.051  0.00  0.00    +0.029 A 
ATOM      3  C   UNL     1       6.316   2.395   0.624  0.00  0.00    +0.105 A 
ATOM      4  C   UNL     1       6.017   1.231   1.309  0.00  0.00    +0.029 A 
ATOM      5  C   UNL     1       4.724   0.748   1.323  0.00  0.00    +0.015 A 
ATOM      6  C   UNL     1       3.718   1.437   0.644  0.00  0.00    +0.037 A 
ENDROOT
BRANCH   6   7
ATOM      7  C   UNL     1       2.331   0.925   0.654  0.00  0.00    +0.244 C 
ATOM      8  O   UNL     1       2.065  -0.097   1.255  0.00  0.00    -0.270 OA
ATOM      9  N   UNL     1       1.362   1.593  -0.002  0.00  0.00    -0.308 N 
ATOM     10  H   UNL     1       1.574   2.409  -0.482  0.00  0.00    +0.149 HD
BRANCH   9  11
ATOM     11  C   UNL     1      -0.013   1.086   0.008  0.00  0.00    +0.073 C 
ATOM     12  C   UNL     1      -0.729   1.579   1.267  0.00  0.00    +0.022 C 
ATOM     13  C   UNL     1      -2.239   1.400   1.098  0.00  0.00    +0.002 C 
ATOM     14  C   UNL     1      -2.600  -0.076   1.276  0.00  0.00    +0.000 C 
ATOM     15  C   UNL     1      -2.205  -0.852   0.018  0.00  0.00    +0.000 C 
ATOM     16  C   UNL     1      -2.624  -0.062  -1.223  0.00  0.00    +0.000 C 
ATOM     17  C   UNL     1      -1.376   0.408  -1.973  0.00  0.00    +0.002 C 
ATOM     18  C   UNL     1      -0.752   1.593  -1.232  0.00  0.00    +0.022 C 
ENDBRANCH   9  11
ENDBRANCH   6   7
BRANCH   3  19
ATOM     19  S   UNL     1       7.969   3.005   0.612  0.00  0.00    +0.056 S 
ATOM     20  O   UNL     1       7.885   4.401   0.357  0.00  0.00    -0.153 OA
ATOM     21  O   UNL     1       8.605   2.479   1.769  0.00  0.00    -0.153 OA
BRANCH  19  22
ATOM     22  N   UNL     1       8.731   2.330  -0.695  0.00  0.00    -0.204 NA
ATOM     23  H   UNL     1       8.248   1.722  -1.277  0.00  0.00    +0.144 HD
ATOM     24  H   UNL     1       9.659   2.543  -0.878  0.00  0.00    +0.144 HD
ENDBRANCH  19  22
ENDBRANCH   3  19
TORSDOF 4
