REMARK  Name = ZINC50634026
REMARK  3 active torsions:
REMARK  status: ('A' for Active; 'I' for Inactive)
REMARK    1  A    between atoms: C_6  and  N_7
REMARK    2  A    between atoms: N_7  and  S_8
REMARK    3  A    between atoms: S_8  and  C_11
REMARK                            x       y       z     vdW  Elec       q    Type
REMARK                         _______ _______ _______ _____ _____    ______ ____
ROOT
ATOM      1  S   UNL     1      -1.174  -2.376   0.001  0.00  0.00    +0.092 S 
ATOM      2  O   UNL     1      -0.629  -2.768  -1.252  0.00  0.00    -0.148 OA
ATOM      3  O   UNL     1      -0.605  -2.781   1.238  0.00  0.00    -0.148 OA
ENDROOT
BRANCH   1   4
ATOM      4  C   UNL     1      -2.849  -2.922   0.014  0.00  0.00    +0.115 A 
ATOM      5  C   UNL     1      -3.515  -3.142   1.212  0.00  0.00    +0.046 A 
ATOM      6  C   UNL     1      -4.827  -3.569   1.188  0.00  0.00    +0.086 A 
ATOM      7  N   UNL     1      -5.453  -3.768   0.044  0.00  0.00    -0.350 N 
ATOM      8  C   UNL     1      -4.853  -3.570  -1.119  0.00  0.00    +0.095 A 
ATOM      9  C   UNL     1      -3.533  -3.134  -1.170  0.00  0.00    +0.070 A 
ATOM     10  N   UNL     1      -5.551  -3.793  -2.301  0.00  0.00    -0.345 N 
ATOM     11  H   UNL     1      -6.473  -4.093  -2.271  0.00  0.00    +0.144 HD
ATOM     12  H   UNL     1      -5.115  -3.648  -3.156  0.00  0.00    +0.144 HD
ATOM     13  H   UNL     1      -6.376  -4.068   0.056  0.00  0.00    +0.166 HD
ENDBRANCH   1   4
BRANCH   1  14
ATOM     14  N   UNL     1      -1.198  -0.720   0.010  0.00  0.00    -0.098 NA
BRANCH  14  20
ATOM     15  C   UNL     1      -0.017   1.385   0.010  0.00  0.00    +0.028 A 
ATOM     16  C   UNL     1       1.171   2.091   0.002  0.00  0.00    +0.023 A 
ATOM     17  C   UNL     1       2.378   1.416  -0.013  0.00  0.00    +0.059 A 
ATOM     18  C   UNL     1       2.401   0.031  -0.021  0.00  0.00    +0.061 A 
ATOM     19  C   UNL     1       1.216  -0.680  -0.013  0.00  0.00    +0.048 A 
ATOM     20  C   UNL     1       0.002  -0.004   0.002  0.00  0.00    +0.076 A 
ATOM     21 CL   UNL     1       3.918  -0.812  -0.041  0.00  0.00    -0.082 Cl
ATOM     22 CL   UNL     1       3.868   2.307  -0.024  0.00  0.00    -0.082 Cl
ENDBRANCH  14  20
ENDBRANCH   1  14
TORSDOF 3
