REMARK  Name = ZINC26809050
REMARK  5 active torsions:
REMARK  status: ('A' for Active; 'I' for Inactive)
REMARK    1  A    between atoms: C_3  and  S_6
REMARK    2  A    between atoms: S_6  and  N_9
REMARK    3  A    between atoms: C_13  and  C_16
REMARK    4  A    between atoms: N_18  and  N_19
REMARK    5  A    between atoms: C_20  and  C_22
REMARK                            x       y       z     vdW  Elec       q    Type
REMARK                         _______ _______ _______ _____ _____    ______ ____
ROOT
ATOM      1  C   UNL     1      -1.083   6.259   4.446  0.00  0.00    +0.233 C 
ATOM      2  O   UNL     1      -1.188   7.396   4.039  0.00  0.00    -0.274 OA
ATOM      3  N   UNL     1      -0.475   6.018   5.625  0.00  0.00    -0.234 N 
ATOM      4  H   UNL     1      -0.381   4.986   5.994  0.00  0.00    +0.173 HD
ENDROOT
BRANCH   1   9
ATOM      5  N   UNL     1      -2.913   4.548   1.635  0.00  0.00    -0.175 NA
ATOM      6  C   UNL     1      -3.889   3.717   2.353  0.00  0.00    +0.109 C 
ATOM      7  C   UNL     1      -3.233   3.192   3.639  0.00  0.00    +0.018 C 
ATOM      8  C   UNL     1      -2.696   4.374   4.450  0.00  0.00    +0.015 C 
ATOM      9  C   UNL     1      -1.634   5.115   3.635  0.00  0.00    +0.092 C 
ATOM     10  C   UNL     1      -2.268   5.658   2.350  0.00  0.00    +0.122 C 
BRANCH   5  11
ATOM     11  S   UNL     1      -2.551   4.243   0.049  0.00  0.00    +0.067 S 
ATOM     12  O   UNL     1      -2.072   5.463  -0.500  0.00  0.00    -0.152 OA
ATOM     13  O   UNL     1      -3.664   3.547  -0.496  0.00  0.00    -0.152 OA
BRANCH  11  16
ATOM     14  C   UNL     1      -0.013   1.076   0.008  0.00  0.00    +0.010 A 
ATOM     15  C   UNL     1      -1.213   1.761   0.017  0.00  0.00    +0.036 A 
ATOM     16  C   UNL     1      -1.196   3.116   0.030  0.00  0.00    +0.143 A 
ATOM     17  S   UNL     1       0.555   3.464   0.015  0.00  0.00    -0.077 S 
ATOM     18  C   UNL     1       1.146   1.780   0.001  0.00  0.00    +0.047 A 
ENDBRANCH  11  16
ENDBRANCH   5  11
ENDBRANCH   1   9
BRANCH   3  19
ATOM     19  N   UNL     1       0.036   7.082   6.380  0.00  0.00    -0.234 N 
ATOM     20  C   UNL     1       0.644   6.840   7.558  0.00  0.00    +0.235 C 
ATOM     21  O   UNL     1       0.748   5.703   7.965  0.00  0.00    -0.274 OA
ATOM     22  H   UNL     1      -0.058   8.113   6.010  0.00  0.00    +0.173 HD
BRANCH  20  23
ATOM     23  C   UNL     1       1.195   7.985   8.370  0.00  0.00    +0.049 C 
ATOM     24  C   UNL     1       0.061   8.947   8.729  0.00  0.00    +0.019 C 
ATOM     25  C   UNL     1       0.620  10.109   9.553  0.00  0.00    -0.009 C 
ATOM     26  C   UNL     1       1.253   9.566  10.835  0.00  0.00    +0.007 C 
ATOM     27  C   UNL     1       2.387   8.603  10.476  0.00  0.00    -0.009 C 
ATOM     28  C   UNL     1       1.828   7.442   9.652  0.00  0.00    +0.019 C 
ATOM     29  C   UNL     1       3.446   9.345   9.659  0.00  0.00    +0.007 C 
ATOM     30  C   UNL     1       2.813   9.888   8.376  0.00  0.00    -0.009 C 
ATOM     31  C   UNL     1       1.679  10.851   8.735  0.00  0.00    +0.007 C 
ATOM     32  C   UNL     1       2.254   8.727   7.552  0.00  0.00    +0.019 C 
ENDBRANCH  20  23
ENDBRANCH   3  19
TORSDOF 5
