REMARK  Name = ZINC63280093
REMARK  10 active torsions:
REMARK  status: ('A' for Active; 'I' for Inactive)
REMARK    1  A    between atoms: C_1  and  C_2
REMARK    2  A    between atoms: C_2  and  C_4
REMARK    3  A    between atoms: C_2  and  N_14
REMARK    4  A    between atoms: C_4  and  C_5
REMARK    5  A    between atoms: C_15  and  C_17
REMARK    6  A    between atoms: C_21  and  C_24
REMARK    7  A    between atoms: C_27  and  O_32
REMARK    8  A    between atoms: C_28  and  O_30
REMARK    9  A    between atoms: O_30  and  C_31
REMARK   10  A    between atoms: O_32  and  C_33
REMARK                            x       y       z     vdW  Elec       q    Type
REMARK                         _______ _______ _______ _____ _____    ______ ____
ROOT
ATOM      1  N   UNL     1       0.723  -0.255  -1.272  0.00  0.00    -0.309 N 
ATOM      2  C   UNL     1       0.065  -0.380  -2.441  0.00  0.00    +0.239 C 
ATOM      3  O   UNL     1      -1.049   0.095  -2.567  0.00  0.00    -0.271 OA
ATOM      4  H   UNL     1       1.611  -0.634  -1.171  0.00  0.00    +0.149 HD
ENDROOT
BRANCH   2   5
ATOM      5  C   UNL     1       0.668  -1.064  -3.522  0.00  0.00    +0.086 C 
ATOM      6  C   UNL     1      -0.033  -1.292  -4.652  0.00  0.00    +0.020 C 
ATOM      7  C   UNL     1       0.606  -1.890  -5.900  0.00  0.00    +0.121 C 
ATOM      8  S   UNL     1      -0.483  -1.147  -7.192  0.00  0.00    -0.128 S 
ATOM      9  C   UNL     1      -1.921  -0.794  -6.095  0.00  0.00    +0.159 C 
ATOM     10  N   UNL     1      -1.349  -1.013  -4.751  0.00  0.00    -0.331 N 
ATOM     11  H   UNL     1      -1.905  -0.955  -3.958  0.00  0.00    +0.147 HD
BRANCH   9  12
ATOM     12  C   UNL     1      -2.388   0.629  -6.264  0.00  0.00    -0.014 A 
ATOM     13  C   UNL     1      -1.829   1.634  -5.497  0.00  0.00    +0.010 A 
ATOM     14  C   UNL     1      -2.254   2.941  -5.648  0.00  0.00    +0.050 A 
ATOM     15  C   UNL     1      -3.243   3.245  -6.569  0.00  0.00    +0.162 A 
ATOM     16  C   UNL     1      -3.806   2.234  -7.341  0.00  0.00    +0.162 A 
ATOM     17  C   UNL     1      -3.372   0.927  -7.188  0.00  0.00    +0.055 A 
BRANCH  16  18
ATOM     18  O   UNL     1      -4.777   2.528  -8.247  0.00  0.00    -0.491 OA
ATOM     19  C   UNL     1      -5.309   1.439  -9.004  0.00  0.00    +0.277 C 
ENDBRANCH  16  18
BRANCH  15  20
ATOM     20  O   UNL     1      -3.662   4.530  -6.718  0.00  0.00    -0.491 OA
ATOM     21  C   UNL     1      -3.040   5.516  -5.892  0.00  0.00    +0.277 C 
ENDBRANCH  15  20
ENDBRANCH   9  12
ENDBRANCH   2   5
BRANCH   1  23
ATOM     22  C   UNL     1       0.357   1.955  -0.290  0.00  0.00    +0.028 C 
ATOM     23  C   UNL     1       0.098   0.453  -0.152  0.00  0.00    +0.074 C 
BRANCH  23  24
ATOM     24  C   UNL     1       0.695  -0.048   1.165  0.00  0.00    +0.055 C 
BRANCH  24  25
ATOM     25  C   UNL     1       0.334  -1.498   1.360  0.00  0.00    -0.040 C 
ATOM     26  C   UNL     1       1.087  -2.574   1.034  0.00  0.00    -0.001 A 
ATOM     27  C   UNL     1       2.414  -2.710   0.423  0.00  0.00    +0.010 A 
ATOM     28  C   UNL     1       2.917  -3.949   0.215  0.00  0.00    +0.001 A 
ATOM     29  C   UNL     1       2.203  -5.102   0.567  0.00  0.00    +0.002 A 
ATOM     30  C   UNL     1       0.978  -5.057   1.133  0.00  0.00    +0.026 A 
ATOM     31  C   UNL     1       0.353  -3.807   1.397  0.00  0.00    +0.043 A 
ATOM     32  N   UNL     1      -0.807  -3.506   1.927  0.00  0.00    -0.380 N 
ATOM     33  C   UNL     1      -0.939  -2.045   1.966  0.00  0.00    +0.144 C 
ATOM     34  H   UNL     1      -1.467  -4.142   2.245  0.00  0.00    +0.160 HD
ENDBRANCH  24  25
ENDBRANCH  23  24
ENDBRANCH   1  23
TORSDOF 7
