REMARK  Name = ZINC39227146
REMARK  7 active torsions:
REMARK  status: ('A' for Active; 'I' for Inactive)
REMARK    1  A    between atoms: C_1  and  C_2
REMARK    2  A    between atoms: C_3  and  O_29
REMARK    3  A    between atoms: N_12  and  C_15
REMARK    4  A    between atoms: C_15  and  C_16
REMARK    5  A    between atoms: N_18  and  C_19
REMARK    6  A    between atoms: O_29  and  C_30
REMARK    7  A    between atoms: C_30  and  C_31
REMARK                            x       y       z     vdW  Elec       q    Type
REMARK                         _______ _______ _______ _____ _____    ______ ____
ROOT
ATOM      1  C   UNL     1       0.002   1.528   0.026  0.00  0.00    +0.051 C 
ATOM      2  C   UNL     1       0.023   0.021   0.010  0.00  0.00    +0.034 A 
ATOM      3  C   UNL     1       0.032  -0.661  -1.198  0.00  0.00    +0.127 A 
ATOM      4  C   UNL     1       0.051  -2.053  -1.226  0.00  0.00    +0.047 A 
ATOM      5  C   UNL     1       0.057  -2.765  -0.060  0.00  0.00    +0.018 A 
ATOM      6  C   UNL     1       0.046  -2.091   1.165  0.00  0.00    +0.060 A 
ATOM      7  C   UNL     1       0.038  -0.685   1.202  0.00  0.00    +0.138 A 
ATOM      8  O   UNL     1       0.049  -0.022   2.381  0.00  0.00    -0.484 OA
ATOM      9  C   UNL     1      -0.399  -0.699   3.554  0.00  0.00    +0.114 C 
ATOM     10  C   UNL     1      -0.115   0.163   4.787  0.00  0.00    +0.030 C 
ATOM     11  C   UNL     1      -0.923   1.459   4.694  0.00  0.00    -0.074 C 
ATOM     12  N   UNL     1      -2.355   1.144   4.633  0.00  0.00    +0.386 N 
ATOM     13  C   UNL     1      -2.646   0.380   3.413  0.00  0.00    -0.074 C 
ATOM     14  C   UNL     1      -1.904  -0.959   3.457  0.00  0.00    +0.030 C 
ATOM     15  C   UNL     1       0.340  -2.037   3.690  0.00  0.00    +0.127 C 
ATOM     16  C   UNL     1       0.045  -2.838   2.432  0.00  0.00    +0.170 C 
ATOM     17  O   UNL     1      -0.168  -4.032   2.469  0.00  0.00    -0.292 OA
ATOM     18  H   UNL     1      -2.613   0.597   5.440  0.00  0.00    -0.081 HD
ENDROOT
BRANCH  12  19
ATOM     19  C   UNL     1      -3.130   2.392   4.622  0.00  0.00    +0.019 C 
BRANCH  19  20
ATOM     20  C   UNL     1      -4.601   2.071   4.683  0.00  0.00    +0.201 C 
ATOM     21  O   UNL     1      -4.968   0.916   4.730  0.00  0.00    -0.278 OA
ATOM     22  N   UNL     1      -5.508   3.067   4.685  0.00  0.00    -0.287 N 
ATOM     23  H   UNL     1      -5.215   3.991   4.715  0.00  0.00    +0.155 HD
BRANCH  22  24
ATOM     24  C   UNL     1      -6.876   2.768   4.643  0.00  0.00    +0.033 A 
ATOM     25  C   UNL     1      -7.363   1.645   5.298  0.00  0.00    +0.026 A 
ATOM     26  C   UNL     1      -8.712   1.353   5.255  0.00  0.00    +0.040 A 
ATOM     27  C   UNL     1      -9.579   2.178   4.559  0.00  0.00    +0.124 A 
ATOM     28  C   UNL     1      -9.095   3.299   3.905  0.00  0.00    +0.040 A 
ATOM     29  C   UNL     1      -7.748   3.598   3.950  0.00  0.00    +0.026 A 
ATOM     30  F   UNL     1     -10.898   1.889   4.518  0.00  0.00    -0.205 F 
ENDBRANCH  22  24
ENDBRANCH  19  20
ENDBRANCH  12  19
BRANCH   3  31
ATOM     31  O   UNL     1       0.022   0.035  -2.363  0.00  0.00    -0.487 OA
BRANCH  31  32
ATOM     32  C   UNL     1       0.033  -0.726  -3.573  0.00  0.00    +0.264 C 
BRANCH  32  33
ATOM     33  C   UNL     1       0.020   0.210  -4.754  0.00  0.00    -0.010 A 
ATOM     34  C   UNL     1      -1.183   0.627  -5.292  0.00  0.00    +0.007 A 
ATOM     35  C   UNL     1      -1.195   1.486  -6.376  0.00  0.00    +0.000 A 
ATOM     36  C   UNL     1      -0.004   1.927  -6.921  0.00  0.00    +0.000 A 
ATOM     37  C   UNL     1       1.199   1.510  -6.383  0.00  0.00    +0.000 A 
ATOM     38  C   UNL     1       1.211   0.655  -5.296  0.00  0.00    +0.007 A 
ENDBRANCH  32  33
ENDBRANCH  31  32
ENDBRANCH   3  31
TORSDOF 6
