REMARK  Name = ZINC36586935
REMARK  19 active torsions:
REMARK  status: ('A' for Active; 'I' for Inactive)
REMARK    1  A    between atoms: C_1  and  C_2
REMARK    2  A    between atoms: C_7  and  C_8
REMARK    3  A    between atoms: C_8  and  C_10
REMARK    4  A    between atoms: C_8  and  N_21
REMARK    5  A    between atoms: N_12  and  C_13
REMARK    6  A    between atoms: C_13  and  C_14
REMARK    7  A    between atoms: C_13  and  C_15
REMARK    8  A    between atoms: C_13  and  C_16
REMARK    9  A    between atoms: C_16  and  C_17
REMARK   10  A    between atoms: C_17  and  C_18
REMARK   11  A    between atoms: C_17  and  C_19
REMARK   12  A    between atoms: C_17  and  C_20
REMARK   13  A    between atoms: N_21  and  C_32
REMARK   14  A    between atoms: C_22  and  C_24
REMARK   15  A    between atoms: C_28  and  O_31
REMARK   16  A    between atoms: C_29  and  O_30
REMARK   17  A    between atoms: C_32  and  C_33
REMARK   18  A    between atoms: C_32  and  C_34
REMARK   19  A    between atoms: C_32  and  C_35
REMARK                            x       y       z     vdW  Elec       q    Type
REMARK                         _______ _______ _______ _____ _____    ______ ____
ROOT
ATOM      1  C   UNL     1      -2.762   0.142   4.107  0.00  0.00    +0.193 C 
ENDROOT
BRANCH   1   8
ATOM      2  C   UNL     1      -2.405   2.069   1.984  0.00  0.00    +0.044 C 
ATOM      3  C   UNL     1      -1.691   0.743   1.926  0.00  0.00    -0.045 A 
ATOM      4  C   UNL     1      -0.862   0.451   0.859  0.00  0.00    +0.004 A 
ATOM      5  C   UNL     1      -0.208  -0.766   0.806  0.00  0.00    +0.000 A 
ATOM      6  C   UNL     1      -0.383  -1.690   1.819  0.00  0.00    +0.000 A 
ATOM      7  C   UNL     1      -1.211  -1.397   2.886  0.00  0.00    +0.006 A 
ATOM      8  C   UNL     1      -1.862  -0.179   2.941  0.00  0.00    -0.015 A 
ENDBRANCH   1   8
BRANCH   1   9
ATOM      9  C   UNL     1      -4.178  -0.248   3.771  0.00  0.00    +0.239 C 
ATOM     10  O   UNL     1      -4.834  -0.891   4.563  0.00  0.00    -0.273 OA
ATOM     11  N   UNL     1      -4.716   0.118   2.591  0.00  0.00    -0.308 N 
ATOM     12  H   UNL     1      -4.166   0.555   1.922  0.00  0.00    +0.149 HD
BRANCH  11  13
ATOM     13  C   UNL     1      -6.131  -0.144   2.318  0.00  0.00    +0.030 C 
ATOM     14  C   UNL     1      -6.348  -1.650   2.152  0.00  0.00    +0.031 C 
ATOM     15  C   UNL     1      -6.979   0.367   3.485  0.00  0.00    +0.031 C 
BRANCH  13  16
ATOM     16  C   UNL     1      -6.545   0.575   1.033  0.00  0.00    +0.031 C 
BRANCH  16  17
ATOM     17  C   UNL     1      -5.922   1.972   1.007  0.00  0.00    -0.036 C 
ATOM     18  C   UNL     1      -4.474   1.876   0.523  0.00  0.00    +0.010 C 
ATOM     19  C   UNL     1      -6.719   2.869   0.058  0.00  0.00    +0.010 C 
ATOM     20  C   UNL     1      -5.950   2.569   2.416  0.00  0.00    +0.010 C 
ENDBRANCH  16  17
ENDBRANCH  13  16
ENDBRANCH  11  13
ENDBRANCH   1   9
BRANCH   1  21
ATOM     21  N   UNL     1      -2.316  -0.603   5.287  0.00  0.00    -0.277 N 
ATOM     22  C   UNL     1      -2.740  -1.867   5.485  0.00  0.00    +0.252 C 
ATOM     23  O   UNL     1      -2.516  -2.425   6.542  0.00  0.00    -0.270 OA
BRANCH  22  24
ATOM     24  C   UNL     1      -3.476  -2.574   4.420  0.00  0.00    +0.082 A 
ATOM     25  C   UNL     1      -3.537  -2.035   3.131  0.00  0.00    +0.017 A 
ATOM     26  C   UNL     1      -4.224  -2.698   2.139  0.00  0.00    +0.005 A 
ATOM     27  C   UNL     1      -4.857  -3.900   2.409  0.00  0.00    +0.049 A 
ATOM     28  C   UNL     1      -4.807  -4.447   3.680  0.00  0.00    +0.159 A 
ATOM     29  C   UNL     1      -4.111  -3.791   4.692  0.00  0.00    +0.171 A 
BRANCH  29  30
ATOM     30  O   UNL     1      -4.054  -4.327   5.938  0.00  0.00    -0.503 OA
ATOM     31  H   UNL     1      -4.774  -4.048   6.519  0.00  0.00    +0.292 HD
ENDBRANCH  29  30
BRANCH  28  32
ATOM     32  O   UNL     1      -5.431  -5.627   3.938  0.00  0.00    -0.503 OA
ATOM     33  H   UNL     1      -4.876  -6.405   3.795  0.00  0.00    +0.292 HD
ENDBRANCH  28  32
ENDBRANCH  22  24
BRANCH  21  34
ATOM     34  C   UNL     1      -1.411   0.026   6.252  0.00  0.00    +0.030 C 
ATOM     35  C   UNL     1      -0.990   1.403   5.734  0.00  0.00    +0.031 C 
ATOM     36  C   UNL     1      -2.126   0.182   7.596  0.00  0.00    +0.031 C 
ATOM     37  C   UNL     1      -0.170  -0.852   6.433  0.00  0.00    +0.031 C 
ENDBRANCH  21  34
ENDBRANCH   1  21
TORSDOF 10
