REMARK  Name = ZINC32101475
REMARK  4 active torsions:
REMARK  status: ('A' for Active; 'I' for Inactive)
REMARK    1  A    between atoms: C_11  and  C_12
REMARK    2  A    between atoms: C_12  and  C_14
REMARK    3  A    between atoms: C_12  and  N_17
REMARK    4  A    between atoms: C_24  and  C_33
REMARK                            x       y       z     vdW  Elec       q    Type
REMARK                         _______ _______ _______ _____ _____    ______ ____
ROOT
ATOM      1  N   UNL     1      -3.090   3.642  -0.050  0.00  0.00    +0.394 N 
ATOM      2  C   UNL     1      -3.234   2.875  -1.296  0.00  0.00    -0.058 C 
ATOM      3  C   UNL     1      -4.606   2.199  -1.319  0.00  0.00    +0.088 C 
ATOM      4  N   UNL     1      -5.656   3.222  -1.210  0.00  0.00    -0.318 N 
ATOM      5  C   UNL     1      -5.512   3.989   0.036  0.00  0.00    +0.088 C 
ATOM      6  C   UNL     1      -4.139   4.665   0.059  0.00  0.00    -0.058 C 
ATOM      7  C   UNL     1      -6.914   2.653  -1.299  0.00  0.00    +0.139 A 
ATOM      8  C   UNL     1      -7.559   2.570  -2.546  0.00  0.00    +0.092 A 
ATOM      9  C   UNL     1      -8.828   1.989  -2.601  0.00  0.00    +0.027 A 
ATOM     10  C   UNL     1      -9.406   1.526  -1.425  0.00  0.00    -0.025 A 
ATOM     11  C   UNL     1      -8.714   1.641  -0.239  0.00  0.00    +0.047 A 
ATOM     12  N   UNL     1      -7.508   2.195  -0.214  0.00  0.00    -0.235 NA
ATOM     13  C   UNL     1      -9.274   1.143   1.070  0.00  0.00    +0.056 C 
ATOM     14  C   UNL     1     -10.785   0.946   0.969  0.00  0.00    +0.006 C 
ATOM     15  C   UNL     1     -11.080   0.087  -0.266  0.00  0.00    +0.005 C 
ATOM     16  C   UNL     1     -10.780   0.918  -1.512  0.00  0.00    +0.037 C 
ATOM     17  H   UNL     1      -3.205   2.946   0.793  0.00  0.00    -0.080 HD
ENDROOT
BRANCH   8  18
ATOM     18  C   UNL     1      -6.927   3.064  -3.732  0.00  0.00    +0.103 C 
ATOM     19  N   UNL     1      -6.426   3.457  -4.673  0.00  0.00    -0.191 NA
ENDBRANCH   8  18
BRANCH   1  20
ATOM     20  C   UNL     1      -1.754   4.246   0.045  0.00  0.00    +0.080 C 
BRANCH  20  31
ATOM     21  C   UNL     1       1.005   7.688   1.631  0.00  0.00    +0.021 A 
ATOM     22  C   UNL     1       0.281   6.710   1.009  0.00  0.00    +0.011 A 
ATOM     23  C   UNL     1      -0.667   5.984   1.731  0.00  0.00    +0.002 A 
ATOM     24  C   UNL     1      -0.874   6.260   3.095  0.00  0.00    +0.048 A 
ATOM     25  C   UNL     1      -0.127   7.260   3.709  0.00  0.00    +0.046 A 
ATOM     26  C   UNL     1       0.805   7.965   2.977  0.00  0.00    +0.043 A 
ATOM     27 CL   UNL     1       1.738   9.211   3.746  0.00  0.00    -0.083 Cl
ATOM     28  N   UNL     1      -1.854   5.401   3.540  0.00  0.00    -0.360 N 
ATOM     29  H   UNL     1      -2.185   5.440   4.588  0.00  0.00    +0.165 HD
ATOM     30  C   UNL     1      -2.265   4.594   2.514  0.00  0.00    +0.086 A 
ATOM     31  C   UNL     1      -1.593   4.899   1.393  0.00  0.00    -0.025 A 
ENDBRANCH  20  31
BRANCH  20  32
ATOM     32  C   UNL     1      -0.706   3.176  -0.123  0.00  0.00    +0.347 C 
ATOM     33  O   UNL     1      -0.951   2.035   0.191  0.00  0.00    -0.248 OA
ATOM     34  O   UNL     1       0.500   3.490  -0.622  0.00  0.00    -0.248 OA
ENDBRANCH  20  32
ENDBRANCH   1  20
TORSDOF 4
