REMARK  Name = ZINC36053523
REMARK  13 active torsions:
REMARK  status: ('A' for Active; 'I' for Inactive)
REMARK    1  A    between atoms: C_1  and  C_2
REMARK    2  A    between atoms: C_3  and  C_33
REMARK    3  A    between atoms: C_4  and  C_24
REMARK    4  A    between atoms: C_7  and  C_12
REMARK    5  A    between atoms: C_13  and  N_15
REMARK    6  A    between atoms: N_15  and  C_16
REMARK    7  A    between atoms: C_16  and  C_17
REMARK    8  A    between atoms: C_17  and  C_18
REMARK    9  A    between atoms: C_27  and  C_30
REMARK   10  A    between atoms: C_30  and  C_31
REMARK   11  A    between atoms: C_30  and  C_32
REMARK   12  A    between atoms: C_33  and  O_35
REMARK   13  A    between atoms: O_35  and  C_36
REMARK                            x       y       z     vdW  Elec       q    Type
REMARK                         _______ _______ _______ _____ _____    ______ ____
ROOT
ATOM      1  C   UNL     1      -0.029   1.554   0.209  0.00  0.00    +0.066 C 
ATOM      2  C   UNL     1      -0.021   0.048   0.155  0.00  0.00    +0.053 C 
ATOM      3  C   UNL     1      -1.216  -0.645   0.142  0.00  0.00    +0.082 C 
ATOM      4  C   UNL     1      -1.155  -2.155   0.086  0.00  0.00    +0.150 C 
ATOM      5  N   UNL     1       0.195  -2.777   0.051  0.00  0.00    -0.267 N 
ATOM      6  C   UNL     1       0.488  -4.125  -0.001  0.00  0.00    +0.048 C 
ATOM      7  C   UNL     1       1.791  -4.483  -0.026  0.00  0.00    +0.072 C 
ATOM      8  S   UNL     1       2.609  -2.901   0.024  0.00  0.00    -0.060 S 
ATOM      9  C   UNL     1       1.254  -1.912   0.073  0.00  0.00    +0.166 C 
ATOM     10  N   UNL     1       1.131  -0.602   0.116  0.00  0.00    -0.230 NA
ENDROOT
BRANCH   4  11
ATOM     11  C   UNL     1      -1.904  -2.605  -1.141  0.00  0.00    -0.022 A 
ATOM     12  C   UNL     1      -1.342  -2.440  -2.393  0.00  0.00    +0.006 A 
ATOM     13  C   UNL     1      -2.030  -2.853  -3.519  0.00  0.00    +0.004 A 
ATOM     14  C   UNL     1      -3.279  -3.431  -3.393  0.00  0.00    -0.045 A 
ATOM     15  C   UNL     1      -3.841  -3.597  -2.141  0.00  0.00    +0.004 A 
ATOM     16  C   UNL     1      -3.151  -3.188  -1.015  0.00  0.00    +0.006 A 
BRANCH  14  17
ATOM     17  C   UNL     1      -4.028  -3.881  -4.621  0.00  0.00    +0.013 C 
ATOM     18  C   UNL     1      -4.297  -5.384  -4.533  0.00  0.00    +0.012 C 
ATOM     19  C   UNL     1      -5.359  -3.130  -4.710  0.00  0.00    +0.012 C 
ENDBRANCH  14  17
ENDBRANCH   4  11
BRANCH   6  20
ATOM     20  C   UNL     1      -0.579  -5.136  -0.027  0.00  0.00    +0.091 C 
ATOM     21  C   UNL     1      -0.271  -6.443   0.069  0.00  0.00    +0.239 C 
ATOM     22  O   UNL     1       1.005  -6.822   0.324  0.00  0.00    -0.271 OA
BRANCH  21  23
ATOM     23  N   UNL     1      -1.258  -7.401  -0.092  0.00  0.00    -0.311 N 
ATOM     24  H   UNL     1      -2.183  -7.130  -0.201  0.00  0.00    +0.149 HD
BRANCH  23  25
ATOM     25  C   UNL     1      -0.906  -8.823  -0.099  0.00  0.00    +0.110 C 
BRANCH  25  26
ATOM     26  C   UNL     1      -2.150  -9.655  -0.415  0.00  0.00    +0.074 C 
BRANCH  26  27
ATOM     27  C   UNL     1      -1.787 -11.118  -0.422  0.00  0.00    +0.043 A 
ATOM     28  C   UNL     1      -2.486 -11.999   0.382  0.00  0.00    +0.023 A 
ATOM     29  C   UNL     1      -2.144 -13.342   0.368  0.00  0.00    +0.003 A 
ATOM     30  C   UNL     1      -1.108 -13.751  -0.458  0.00  0.00    +0.020 A 
ATOM     31  C   UNL     1      -0.454 -12.813  -1.233  0.00  0.00    +0.111 A 
ATOM     32  N   UNL     1      -0.810 -11.543  -1.198  0.00  0.00    -0.260 NA
ENDBRANCH  26  27
ENDBRANCH  25  26
ENDBRANCH  23  25
ENDBRANCH  21  23
ENDBRANCH   6  20
BRANCH   3  33
ATOM     33  C   UNL     1      -2.443   0.028   0.178  0.00  0.00    +0.339 C 
ATOM     34  O   UNL     1      -2.469   1.246   0.223  0.00  0.00    -0.245 OA
BRANCH  33  35
ATOM     35  O   UNL     1      -3.599  -0.672   0.163  0.00  0.00    -0.465 OA
ATOM     36  C   UNL     1      -4.814   0.080   0.202  0.00  0.00    +0.280 C 
ENDBRANCH  33  35
ENDBRANCH   3  33
TORSDOF 9
