REMARK  Name = ZINC13251264
REMARK  8 active torsions:
REMARK  status: ('A' for Active; 'I' for Inactive)
REMARK    1  A    between atoms: C_4  and  O_27
REMARK    2  A    between atoms: C_5  and  C_7
REMARK    3  A    between atoms: C_7  and  N_8
REMARK    4  A    between atoms: N_8  and  C_9
REMARK    5  A    between atoms: N_8  and  S_15
REMARK    6  A    between atoms: C_9  and  C_10
REMARK    7  A    between atoms: S_15  and  C_18
REMARK    8  A    between atoms: C_20  and  C_25
REMARK                            x       y       z     vdW  Elec       q    Type
REMARK                         _______ _______ _______ _____ _____    ______ ____
ROOT
ATOM      1  N   UNL     1      -1.782   0.629   2.825  0.00  0.00    -0.165 NA
ENDROOT
BRANCH   1   2
ATOM      2  S   UNL     1      -3.029  -0.136   3.601  0.00  0.00    +0.063 S 
ATOM      3  O   UNL     1      -4.220   0.237   2.921  0.00  0.00    -0.153 OA
ATOM      4  O   UNL     1      -2.637  -1.492   3.761  0.00  0.00    -0.153 OA
BRANCH   2   5
ATOM      5  C   UNL     1      -3.137   0.553   5.219  0.00  0.00    +0.120 A 
ATOM      6  C   UNL     1      -4.222   1.330   5.565  0.00  0.00    +0.044 A 
ATOM      7  C   UNL     1      -4.308   1.871   6.850  0.00  0.00    +0.065 A 
ATOM      8  C   UNL     1      -3.288   1.629   7.773  0.00  0.00    +0.016 A 
ATOM      9  C   UNL     1      -2.206   0.854   7.413  0.00  0.00    +0.018 A 
ATOM     10  C   UNL     1      -2.129   0.316   6.139  0.00  0.00    +0.044 A 
ATOM     11 BR   UNL     1      -0.642  -0.746   5.653  0.00  0.00    -0.048 Br
BRANCH   7  12
ATOM     12  C   UNL     1      -5.470   2.700   7.229  0.00  0.00    +0.387 C 
ATOM     13  O   UNL     1      -6.356   2.909   6.424  0.00  0.00    -0.241 OA
ATOM     14  O   UNL     1      -5.548   3.224   8.468  0.00  0.00    -0.241 OA
ENDBRANCH   7  12
ENDBRANCH   2   5
ENDBRANCH   1   2
BRANCH   1  15
ATOM     15  C   UNL     1      -0.475  -0.024   2.718  0.00  0.00    +0.148 C 
BRANCH  15  20
ATOM     16  C   UNL     1      -0.263  -1.827  -0.593  0.00  0.00    +0.001 A 
ATOM     17  C   UNL     1       0.358  -0.880  -1.387  0.00  0.00    +0.004 A 
ATOM     18  C   UNL     1       0.706   0.347  -0.857  0.00  0.00    +0.046 A 
ATOM     19  C   UNL     1       0.442   0.626   0.476  0.00  0.00    +0.121 A 
ATOM     20  C   UNL     1      -0.181  -0.325   1.271  0.00  0.00    +0.010 A 
ATOM     21  C   UNL     1      -0.532  -1.549   0.734  0.00  0.00    +0.008 A 
BRANCH  19  22
ATOM     22  O   UNL     1       0.788   1.830   1.002  0.00  0.00    -0.506 OA
ATOM     23  H   UNL     1       1.677   1.853   1.382  0.00  0.00    +0.292 HD
ENDBRANCH  19  22
ENDBRANCH  15  20
ENDBRANCH   1  15
BRANCH   1  24
ATOM     24  C   UNL     1      -1.985   1.960   2.247  0.00  0.00    +0.184 C 
BRANCH  24  25
ATOM     25  C   UNL     1      -2.442   1.822   0.817  0.00  0.00    +0.120 A 
ATOM     26  C   UNL     1      -3.707   1.606   0.413  0.00  0.00    +0.046 A 
ATOM     27  C   UNL     1      -3.680   1.544  -0.999  0.00  0.00    +0.041 A 
ATOM     28  C   UNL     1      -2.401   1.725  -1.373  0.00  0.00    +0.195 A 
ATOM     29  O   UNL     1      -1.656   1.899  -0.269  0.00  0.00    -0.466 OA
ENDBRANCH  24  25
ENDBRANCH   1  24
TORSDOF 8
