REMARK  Name = ZINC20106871
REMARK  6 active torsions:
REMARK  status: ('A' for Active; 'I' for Inactive)
REMARK    1  A    between atoms: C_1  and  C_2
REMARK    2  A    between atoms: C_5  and  N_8
REMARK    3  A    between atoms: C_9  and  C_11
REMARK    4  A    between atoms: N_22  and  C_34
REMARK    5  A    between atoms: C_23  and  C_25
REMARK    6  A    between atoms: N_27  and  C_28
REMARK                            x       y       z     vdW  Elec       q    Type
REMARK                         _______ _______ _______ _____ _____    ______ ____
ROOT
ATOM      1  C   UNL     1       2.885  -0.427  -4.353  0.00  0.00    +0.123 C 
ATOM      2  C   UNL     1       4.319  -0.634  -3.768  0.00  0.00    +0.155 C 
ATOM      3  C   UNL     1       5.151   0.583  -4.186  0.00  0.00    +0.004 C 
ATOM      4  C   UNL     1       4.745   1.618  -3.439  0.00  0.00    +0.009 C 
ATOM      5  C   UNL     1       3.653   1.046  -2.608  0.00  0.00    +0.127 C 
ATOM      6  C   UNL     1       2.415   0.824  -3.553  0.00  0.00    +0.128 C 
ATOM      7  C   UNL     1       1.332   0.562  -2.544  0.00  0.00    +0.224 C 
ATOM      8  O   UNL     1       0.322  -0.078  -2.748  0.00  0.00    -0.275 OA
ATOM      9  N   UNL     1       1.661   1.158  -1.370  0.00  0.00    -0.283 N 
ATOM     10  C   UNL     1       3.027   1.733  -1.435  0.00  0.00    +0.199 C 
ATOM     11  O   UNL     1       4.082  -0.318  -2.348  0.00  0.00    -0.358 OA
ENDROOT
BRANCH   1  13
ATOM     12  N   UNL     1       0.998  -1.932  -4.894  0.00  0.00    -0.285 N 
ATOM     13  C   UNL     1       2.005  -1.613  -4.056  0.00  0.00    +0.224 C 
ATOM     14  O   UNL     1       2.202  -2.282  -3.064  0.00  0.00    -0.275 OA
ATOM     15  H   UNL     1       0.864  -1.372  -5.831  0.00  0.00    +0.155 HD
BRANCH  12  20
ATOM     16  C   UNL     1      -2.552  -6.159  -3.584  0.00  0.00    +0.044 C 
ATOM     17  C   UNL     1      -1.609  -5.037  -3.933  0.00  0.00    -0.050 A 
ATOM     18  C   UNL     1      -2.083  -3.917  -4.592  0.00  0.00    +0.005 A 
ATOM     19  C   UNL     1      -1.221  -2.886  -4.912  0.00  0.00    +0.023 A 
ATOM     20  C   UNL     1       0.122  -2.975  -4.571  0.00  0.00    +0.033 A 
ATOM     21  C   UNL     1       0.596  -4.103  -3.914  0.00  0.00    +0.023 A 
ATOM     22  C   UNL     1      -0.272  -5.128  -3.592  0.00  0.00    +0.005 A 
ENDBRANCH  12  20
ENDBRANCH   1  13
BRANCH  10  23
ATOM     23  C   UNL     1       2.964   3.220  -1.666  0.00  0.00    +0.237 C 
ATOM     24  O   UNL     1       1.949   3.724  -2.099  0.00  0.00    -0.274 OA
ATOM     25  N   UNL     1       4.035   3.991  -1.391  0.00  0.00    -0.311 N 
ATOM     26  H   UNL     1       4.955   3.534  -0.998  0.00  0.00    +0.149 HD
BRANCH  25  27
ATOM     27  C   UNL     1       3.973   5.438  -1.615  0.00  0.00    +0.073 C 
ATOM     28  C   UNL     1       4.313   5.742  -3.075  0.00  0.00    +0.022 C 
ATOM     29  C   UNL     1       4.249   7.253  -3.310  0.00  0.00    +0.002 C 
ATOM     30  C   UNL     1       5.255   7.954  -2.395  0.00  0.00    +0.000 C 
ATOM     31  C   UNL     1       4.915   7.649  -0.935  0.00  0.00    +0.002 C 
ATOM     32  C   UNL     1       4.979   6.139  -0.700  0.00  0.00    +0.022 C 
ENDBRANCH  25  27
ENDBRANCH  10  23
BRANCH   9  33
ATOM     33  C   UNL     1       0.788   1.220  -0.195  0.00  0.00    +0.077 C 
ATOM     34  C   UNL     1      -0.559   1.928  -0.353  0.00  0.00    +0.024 C 
ATOM     35  C   UNL     1      -0.505   0.404  -0.233  0.00  0.00    +0.024 C 
ENDBRANCH   9  33
TORSDOF 5
