REMARK  Name = ZINC45534277
REMARK  9 active torsions:
REMARK  status: ('A' for Active; 'I' for Inactive)
REMARK    1  A    between atoms: C_1  and  C_2
REMARK    2  A    between atoms: C_2  and  C_3
REMARK    3  A    between atoms: C_2  and  C_4
REMARK    4  A    between atoms: C_4  and  C_6
REMARK    5  A    between atoms: C_4  and  N_20
REMARK    6  A    between atoms: C_6  and  N_7
REMARK    7  A    between atoms: N_10  and  N_11
REMARK    8  A    between atoms: N_11  and  C_12
REMARK    9  A    between atoms: C_12  and  C_19
REMARK                            x       y       z     vdW  Elec       q    Type
REMARK                         _______ _______ _______ _____ _____    ______ ____
ROOT
ATOM      1  N   UNL     1      -3.418  -0.675  -1.339  0.00  0.00    -0.300 N 
ATOM      2  C   UNL     1      -4.131  -0.596  -2.479  0.00  0.00    +0.313 C 
ATOM      3  O   UNL     1      -3.629  -0.119  -3.479  0.00  0.00    -0.252 OA
ATOM      4  N   UNL     1      -5.402  -1.046  -2.512  0.00  0.00    -0.234 N 
ATOM      5  H   UNL     1      -3.818  -1.055  -0.541  0.00  0.00    +0.150 HD
ATOM      6  H   UNL     1      -5.915  -0.989  -3.333  0.00  0.00    +0.171 HD
ENDROOT
BRANCH   4   7
ATOM      7  N   UNL     1      -5.966  -1.581  -1.389  0.00  0.00    -0.232 NA
ATOM      8  H   UNL     1      -5.412  -2.347  -1.036  0.00  0.00    +0.145 HD
BRANCH   7   9
ATOM      9  C   UNL     1      -7.348  -2.005  -1.645  0.00  0.00    +0.054 C 
ATOM     10  C   UNL     1      -8.137  -0.809  -2.176  0.00  0.00    +0.047 C 
ATOM     11  C   UNL     1      -9.640  -0.948  -1.806  0.00  0.00    +0.168 C 
ATOM     12  S   UNL     1      -9.475  -1.627  -0.097  0.00  0.00    -0.029 S 
ATOM     13  O   UNL     1     -10.552  -2.519   0.158  0.00  0.00    -0.174 OA
ATOM     14  O   UNL     1      -9.216  -0.562   0.807  0.00  0.00    -0.174 OA
ATOM     15  C   UNL     1      -7.931  -2.599  -0.348  0.00  0.00    +0.189 C 
ATOM     16  C   UNL     1      -7.334  -3.094  -2.720  0.00  0.00    +0.031 C 
ENDBRANCH   7   9
ENDBRANCH   4   7
BRANCH   1  17
ATOM     17  C   UNL     1      -2.037  -0.186  -1.303  0.00  0.00    +0.091 C 
BRANCH  17  18
ATOM     18  C   UNL     1      -1.406  -0.538   0.045  0.00  0.00    -0.048 C 
BRANCH  18  19
ATOM     19  N   UNL     1      -1.177  -1.987   0.115  0.00  0.00    +0.383 N 
ATOM     20  C   UNL     1      -0.326  -2.387  -1.022  0.00  0.00    -0.078 C 
ATOM     21  C   UNL     1       0.392  -3.661  -0.651  0.00  0.00    -0.019 C 
ATOM     22  C   UNL     1      -0.350  -4.901  -1.182  0.00  0.00    -0.002 C 
ATOM     23  C   UNL     1      -1.877  -4.768  -1.020  0.00  0.00    -0.002 C 
ATOM     24  C   UNL     1      -2.263  -4.162   0.306  0.00  0.00    -0.019 C 
ATOM     25  C   UNL     1      -2.413  -2.635   0.137  0.00  0.00    -0.078 C 
ATOM     26  H   UNL     1      -0.687  -2.196   0.973  0.00  0.00    -0.081 HD
ENDBRANCH  18  19
BRANCH  18  28
ATOM     27  C   UNL     1      -0.324   1.705   0.252  0.00  0.00    +0.005 C 
ATOM     28  C   UNL     1      -0.072   0.197   0.192  0.00  0.00    -0.029 C 
ATOM     29  C   UNL     1       0.622  -0.256   1.478  0.00  0.00    +0.005 C 
ENDBRANCH  18  28
ENDBRANCH  17  18
ENDBRANCH   1  17
TORSDOF 6
