REMARK  Name = ZINC00793190
REMARK  4 active torsions:
REMARK  status: ('A' for Active; 'I' for Inactive)
REMARK    1  A    between atoms: C_3  and  N_8
REMARK    2  A    between atoms: C_9  and  C_11
REMARK    3  A    between atoms: C_16  and  C_31
REMARK    4  A    between atoms: C_19  and  C_22
REMARK                            x       y       z     vdW  Elec       q    Type
REMARK                         _______ _______ _______ _____ _____    ______ ____
ROOT
ATOM      1  C   UNL     1       6.021   2.228   0.169  0.00  0.00    +0.149 A 
ATOM      2  C   UNL     1       7.317   1.673   0.260  0.00  0.00    +0.078 A 
ATOM      3  C   UNL     1       8.193   2.694   0.336  0.00  0.00    +0.119 A 
ATOM      4  N   UNL     1       7.488   3.863   0.297  0.00  0.00    -0.238 N 
ATOM      5  N   UNL     1       6.135   3.545   0.185  0.00  0.00    -0.164 NA
ATOM      6  C   UNL     1       8.109   5.189   0.362  0.00  0.00    +0.215 C 
ATOM      7  C   UNL     1       9.518   5.049   0.950  0.00  0.00    +0.063 C 
ATOM      8  C   UNL     1      10.283   3.944   0.213  0.00  0.00    +0.104 C 
ATOM      9  N   UNL     1       9.587   2.662   0.437  0.00  0.00    -0.322 N 
ATOM     10  H   UNL     1      10.069   1.845   0.642  0.00  0.00    +0.148 HD
ENDROOT
BRANCH   8  11
ATOM     11  C   UNL     1      11.690   3.861   0.746  0.00  0.00    -0.024 A 
ATOM     12  C   UNL     1      11.941   3.189   1.929  0.00  0.00    +0.009 A 
ATOM     13  C   UNL     1      13.230   3.110   2.421  0.00  0.00    +0.050 A 
ATOM     14  C   UNL     1      14.274   3.704   1.731  0.00  0.00    +0.166 A 
ATOM     15  C   UNL     1      14.021   4.380   0.540  0.00  0.00    +0.167 A 
ATOM     16  C   UNL     1      12.728   4.451   0.049  0.00  0.00    +0.055 A 
ATOM     17  O   UNL     1      15.201   4.871   0.059  0.00  0.00    -0.453 OA
ATOM     18  C   UNL     1      16.113   4.840   1.172  0.00  0.00    +0.466 C 
ATOM     19  O   UNL     1      15.612   3.771   1.996  0.00  0.00    -0.453 OA
ENDBRANCH   8  11
BRANCH   1  21
ATOM     20  N   UNL     1       3.583   2.125  -0.021  0.00  0.00    -0.280 N 
ATOM     21  C   UNL     1       4.758   1.470   0.066  0.00  0.00    +0.268 C 
ATOM     22  O   UNL     1       4.778   0.254   0.060  0.00  0.00    -0.268 OA
ATOM     23  H   UNL     1       3.571   3.093  -0.084  0.00  0.00    +0.155 HD
BRANCH  20  26
ATOM     24  C   UNL     1       0.070   1.231   0.593  0.00  0.00    +0.003 A 
ATOM     25  C   UNL     1       1.256   1.940   0.595  0.00  0.00    +0.023 A 
ATOM     26  C   UNL     1       2.382   1.409  -0.021  0.00  0.00    +0.035 A 
ATOM     27  C   UNL     1       2.312   0.166  -0.637  0.00  0.00    +0.043 A 
ATOM     28  C   UNL     1       1.123  -0.538  -0.636  0.00  0.00    +0.043 A 
ATOM     29  C   UNL     1       0.003  -0.005  -0.021  0.00  0.00    +0.020 A 
ATOM     30 CL   UNL     1       1.034  -2.091  -1.405  0.00  0.00    -0.083 Cl
ENDBRANCH  20  26
ENDBRANCH   1  21
BRANCH   6  31
ATOM     31  C   UNL     1       7.268   6.106   1.254  0.00  0.00    +0.412 C 
ATOM     32  F   UNL     1       7.194   5.563   2.541  0.00  0.00    -0.168 F 
ATOM     33  F   UNL     1       7.862   7.370   1.315  0.00  0.00    -0.168 F 
ATOM     34  F   UNL     1       5.980   6.221   0.721  0.00  0.00    -0.168 F 
ENDBRANCH   6  31
TORSDOF 4
