REMARK  Name = ZINC40984686
REMARK  10 active torsions:
REMARK  status: ('A' for Active; 'I' for Inactive)
REMARK    1  A    between atoms: C_1  and  C_2
REMARK    2  A    between atoms: C_3  and  C_15
REMARK    3  A    between atoms: C_5  and  C_7
REMARK    4  A    between atoms: C_10  and  O_13
REMARK    5  A    between atoms: O_13  and  C_14
REMARK    6  A    between atoms: C_15  and  N_16
REMARK    7  A    between atoms: C_19  and  C_22
REMARK    8  A    between atoms: N_24  and  C_25
REMARK    9  A    between atoms: C_25  and  C_26
REMARK   10  A    between atoms: C_30  and  C_32
REMARK                            x       y       z     vdW  Elec       q    Type
REMARK                         _______ _______ _______ _____ _____    ______ ____
ROOT
ATOM      1  N   UNL     1      -2.988  -0.231  -1.370  0.00  0.00    +0.383 N 
ATOM      2  C   UNL     1      -2.973  -1.540  -2.035  0.00  0.00    -0.078 C 
ATOM      3  C   UNL     1      -3.390  -1.377  -3.498  0.00  0.00    -0.006 C 
ATOM      4  C   UNL     1      -4.803  -0.789  -3.559  0.00  0.00    +0.071 C 
ATOM      5  C   UNL     1      -4.824   0.540  -2.798  0.00  0.00    -0.006 C 
ATOM      6  C   UNL     1      -4.354   0.307  -1.361  0.00  0.00    -0.078 C 
ATOM      7  H   UNL     1      -2.381   0.403  -1.867  0.00  0.00    -0.081 HD
ENDROOT
BRANCH   4   8
ATOM      8  C   UNL     1      -5.189  -0.553  -4.996  0.00  0.00    +0.216 C 
ATOM      9  O   UNL     1      -4.413  -0.828  -5.886  0.00  0.00    -0.276 OA
ATOM     10  N   UNL     1      -6.398  -0.036  -5.292  0.00  0.00    -0.311 N 
ATOM     11  H   UNL     1      -7.019   0.184  -4.580  0.00  0.00    +0.149 HD
BRANCH  10  12
ATOM     12  C   UNL     1      -6.774   0.193  -6.690  0.00  0.00    +0.139 C 
BRANCH  12  13
ATOM     13  C   UNL     1      -8.165   0.772  -6.747  0.00  0.00    -0.030 A 
ATOM     14  C   UNL     1      -9.260  -0.067  -6.826  0.00  0.00    +0.005 A 
ATOM     15  C   UNL     1     -10.535   0.464  -6.879  0.00  0.00    +0.001 A 
ATOM     16  C   UNL     1     -10.715   1.835  -6.852  0.00  0.00    +0.012 A 
ATOM     17  C   UNL     1      -9.620   2.674  -6.773  0.00  0.00    +0.055 A 
ATOM     18  C   UNL     1      -8.344   2.142  -6.715  0.00  0.00    +0.017 A 
BRANCH  17  19
ATOM     19  C   UNL     1      -9.815   4.168  -6.744  0.00  0.00    +0.417 C 
ATOM     20  F   UNL     1     -11.182   4.460  -6.809  0.00  0.00    -0.166 F 
ATOM     21  F   UNL     1      -9.283   4.685  -5.559  0.00  0.00    -0.166 F 
ATOM     22  F   UNL     1      -9.162   4.744  -7.839  0.00  0.00    -0.166 F 
ENDBRANCH  17  19
ENDBRANCH  12  13
ENDBRANCH  10  12
ENDBRANCH   4   8
BRANCH   1  23
ATOM     23  C   UNL     1      -2.513  -0.381   0.012  0.00  0.00    -0.019 C 
BRANCH  23  26
ATOM     24  C   UNL     1      -0.018   1.503   0.010  0.00  0.00    +0.088 C 
ATOM     25  C   UNL     1       0.002  -0.004   0.002  0.00  0.00    +0.124 A 
ATOM     26  C   UNL     1      -1.070  -0.816   0.003  0.00  0.00    +0.066 A 
ATOM     27  N   UNL     1      -0.627  -2.083  -0.006  0.00  0.00    -0.216 NA
ATOM     28  C   UNL     1       0.686  -2.068  -0.012  0.00  0.00    +0.228 A 
ATOM     29  O   UNL     1       1.099  -0.788  -0.013  0.00  0.00    -0.440 OA
BRANCH  28  30
ATOM     30  C   UNL     1       1.562  -3.257  -0.022  0.00  0.00    +0.037 A 
ATOM     31  C   UNL     1       1.004  -4.537  -0.032  0.00  0.00    +0.017 A 
ATOM     32  C   UNL     1       1.825  -5.644  -0.041  0.00  0.00    +0.046 A 
ATOM     33  C   UNL     1       3.205  -5.488  -0.041  0.00  0.00    +0.120 A 
ATOM     34  C   UNL     1       3.764  -4.216  -0.031  0.00  0.00    +0.046 A 
ATOM     35  C   UNL     1       2.950  -3.104  -0.028  0.00  0.00    +0.017 A 
BRANCH  33  36
ATOM     36  O   UNL     1       4.011  -6.582  -0.050  0.00  0.00    -0.495 OA
ATOM     37  C   UNL     1       5.421  -6.349  -0.049  0.00  0.00    +0.277 C 
ENDBRANCH  33  36
ENDBRANCH  28  30
ENDBRANCH  23  26
ENDBRANCH   1  23
TORSDOF 8
