REMARK  Name = ZINC10536333
REMARK  5 active torsions:
REMARK  status: ('A' for Active; 'I' for Inactive)
REMARK    1  A    between atoms: C_3  and  C_6
REMARK    2  A    between atoms: C_11  and  C_14
REMARK    3  A    between atoms: C_14  and  O_16
REMARK    4  A    between atoms: O_16  and  C_17
REMARK    5  A    between atoms: C_17  and  C_18
REMARK                            x       y       z     vdW  Elec       q    Type
REMARK                         _______ _______ _______ _____ _____    ______ ____
ROOT
ATOM      1  C   UNL     1       6.474   4.484   0.449  0.00  0.00    +0.308 C 
ENDROOT
BRANCH   1   2
ATOM      2  C   UNL     1       5.953   3.153   0.927  0.00  0.00    +0.170 A 
ATOM      3  N   UNL     1       6.748   2.098   0.892  0.00  0.00    -0.214 NA
ATOM      4  C   UNL     1       6.351   0.903   1.297  0.00  0.00    +0.128 A 
ATOM      5  C   UNL     1       5.024   0.745   1.787  0.00  0.00    +0.051 A 
ATOM      6  C   UNL     1       4.374  -0.472   2.286  0.00  0.00    -0.025 A 
ATOM      7  C   UNL     1       3.094  -0.352   2.692  0.00  0.00    -0.004 A 
ATOM      8  S   UNL     1       2.686   1.357   2.446  0.00  0.00    -0.073 S 
ATOM      9  C   UNL     1       4.237   1.912   1.792  0.00  0.00    +0.114 A 
ATOM     10  N   UNL     1       4.713   3.067   1.369  0.00  0.00    -0.221 NA
ATOM     11  C   UNL     1       2.196  -1.426   3.223  0.00  0.00    +0.043 C 
ATOM     12  C   UNL     1       2.933  -2.211   4.316  0.00  0.00    +0.005 C 
ATOM     13  C   UNL     1       3.676  -3.368   3.656  0.00  0.00    +0.001 C 
ATOM     14  C   UNL     1       4.142  -2.961   2.260  0.00  0.00    +0.005 C 
ATOM     15  C   UNL     1       5.125  -1.800   2.344  0.00  0.00    +0.037 C 
ATOM     16  N   UNL     1       7.213  -0.177   1.246  0.00  0.00    -0.343 N 
ATOM     17  H   UNL     1       7.934  -0.192   0.597  0.00  0.00    +0.144 HD
ATOM     18  H   UNL     1       7.096  -0.921   1.858  0.00  0.00    +0.144 HD
ENDBRANCH   1   2
BRANCH   1  19
ATOM     19  O   UNL     1       6.208   4.627  -0.971  0.00  0.00    -0.457 OA
BRANCH  19  20
ATOM     20  C   UNL     1       6.613   5.766  -1.555  0.00  0.00    +0.311 C 
ATOM     21  O   UNL     1       7.170   6.615  -0.902  0.00  0.00    -0.251 OA
BRANCH  20  27
ATOM     22  C   UNL     1       8.046   6.671  -6.714  0.00  0.00    +0.253 C 
ATOM     23  O   UNL     1       8.461   7.794  -6.935  0.00  0.00    -0.269 OA
ATOM     24  N   UNL     1       7.195   6.457  -5.691  0.00  0.00    -0.297 N 
ATOM     25  C   UNL     1       6.647   7.585  -4.925  0.00  0.00    +0.109 C 
ATOM     26  C   UNL     1       6.925   7.351  -3.436  0.00  0.00    +0.033 C 
ATOM     27  C   UNL     1       6.371   5.985  -3.027  0.00  0.00    +0.101 C 
ATOM     28  C   UNL     1       7.074   4.886  -3.828  0.00  0.00    +0.033 C 
ATOM     29  C   UNL     1       6.798   5.092  -5.320  0.00  0.00    +0.109 C 
BRANCH  22  32
ATOM     30  C   UNL     1       9.750   4.273  -9.066  0.00  0.00    +0.008 A 
ATOM     31  C   UNL     1       9.587   5.449  -8.376  0.00  0.00    +0.021 A 
ATOM     32  C   UNL     1       8.471   5.552  -7.560  0.00  0.00    +0.074 A 
ATOM     33  S   UNL     1       7.684   3.972  -7.813  0.00  0.00    -0.092 S 
ATOM     34  C   UNL     1       8.823   3.289  -8.927  0.00  0.00    +0.046 A 
ENDBRANCH  22  32
ENDBRANCH  20  27
ENDBRANCH  19  20
ENDBRANCH   1  19
TORSDOF 5
