REMARK  Name = ZINC12485518
REMARK  9 active torsions:
REMARK  status: ('A' for Active; 'I' for Inactive)
REMARK    1  A    between atoms: C_1  and  C_2
REMARK    2  A    between atoms: C_3  and  C_36
REMARK    3  A    between atoms: C_5  and  N_28
REMARK    4  A    between atoms: C_6  and  C_7
REMARK    5  A    between atoms: C_7  and  C_9
REMARK    6  A    between atoms: C_7  and  N_66
REMARK    7  A    between atoms: C_20  and  C_27
REMARK    8  A    between atoms: C_23  and  C_26
REMARK    9  A    between atoms: C_29  and  C_31
REMARK                            x       y       z     vdW  Elec       q    Type
REMARK                         _______ _______ _______ _____ _____    ______ ____
ROOT
ATOM      1  C   UNL     1      -0.093   1.041   2.453  0.00  0.00    -0.004 C 
ENDROOT
BRANCH   1   2
ATOM      2  C   UNL     1       1.343   1.472   2.605  0.00  0.00    -0.053 A 
ATOM      3  C   UNL     1       1.682   2.805   2.469  0.00  0.00    +0.006 A 
ATOM      4  C   UNL     1       2.997   3.204   2.611  0.00  0.00    +0.049 A 
ATOM      5  C   UNL     1       3.983   2.267   2.881  0.00  0.00    +0.162 A 
ATOM      6  C   UNL     1       3.643   0.926   3.015  0.00  0.00    +0.162 A 
ATOM      7  C   UNL     1       2.321   0.532   2.875  0.00  0.00    +0.051 A 
ATOM      8  O   UNL     1       4.593  -0.010   3.287  0.00  0.00    -0.485 OA
ATOM      9  C   UNL     1       5.954   0.368   3.053  0.00  0.00    +0.270 C 
ATOM     10  C   UNL     1       6.176   1.764   3.651  0.00  0.00    +0.270 C 
ATOM     11  O   UNL     1       5.275   2.674   3.010  0.00  0.00    -0.485 OA
ENDBRANCH   1   2
BRANCH   1  19
ATOM     12  C   UNL     1      -2.095   1.342   1.127  0.00  0.00    -0.074 C 
ATOM     13  C   UNL     1      -2.755   2.234   0.072  0.00  0.00    -0.031 C 
ATOM     14  C   UNL     1      -1.956   2.149  -1.232  0.00  0.00    +0.003 C 
ATOM     15  C   UNL     1      -0.509   2.568  -0.963  0.00  0.00    -0.031 C 
ATOM     16  C   UNL     1       0.086   1.667   0.122  0.00  0.00    -0.074 C 
ATOM     17  C   UNL     1       0.310   2.429  -2.248  0.00  0.00    +0.005 C 
ATOM     18  C   UNL     1      -2.773   3.682   0.567  0.00  0.00    +0.005 C 
ATOM     19  N   UNL     1      -0.713   1.813   1.357  0.00  0.00    +0.387 N 
ATOM     20  H   UNL     1      -0.739   2.805   1.621  0.00  0.00    -0.080 HD
ENDBRANCH   1  19
BRANCH   1  26
ATOM     21  C   UNL     1      -0.709  -1.113   4.317  0.00  0.00    +0.045 C 
ATOM     22  C   UNL     1      -1.133   0.302   4.616  0.00  0.00    -0.037 A 
ATOM     23  C   UNL     1      -1.802   0.592   5.758  0.00  0.00    -0.008 A 
ATOM     24  S   UNL     1      -2.053   2.352   5.606  0.00  0.00    -0.078 S 
ATOM     25  C   UNL     1      -1.244   2.589   4.033  0.00  0.00    +0.074 A 
ATOM     26  C   UNL     1      -0.840   1.323   3.731  0.00  0.00    -0.025 A 
ATOM     27  C   UNL     1      -2.229  -0.335   6.867  0.00  0.00    +0.052 C 
BRANCH  25  28
ATOM     28  N   UNL     1      -1.070   3.766   3.302  0.00  0.00    -0.273 N 
ATOM     29  C   UNL     1      -1.438   4.949   3.832  0.00  0.00    +0.284 C 
ATOM     30  O   UNL     1      -1.837   5.004   4.980  0.00  0.00    -0.266 OA
ATOM     31  H   UNL     1      -0.684   3.732   2.412  0.00  0.00    +0.156 HD
BRANCH  29  32
ATOM     32  C   UNL     1      -1.357   6.171   3.024  0.00  0.00    +0.189 A 
ATOM     33  C   UNL     1      -1.611   7.440   3.461  0.00  0.00    +0.054 A 
ATOM     34  C   UNL     1      -1.412   8.292   2.364  0.00  0.00    +0.042 A 
ATOM     35  C   UNL     1      -1.051   7.516   1.318  0.00  0.00    +0.196 A 
ATOM     36  O   UNL     1      -1.014   6.239   1.722  0.00  0.00    -0.458 OA
ENDBRANCH  29  32
ENDBRANCH  25  28
ENDBRANCH   1  26
TORSDOF 5
