REMARK  Name = ZINC16080235
REMARK  8 active torsions:
REMARK  status: ('A' for Active; 'I' for Inactive)
REMARK    1  A    between atoms: C_1  and  S_2
REMARK    2  A    between atoms: S_2  and  C_5
REMARK    3  A    between atoms: C_8  and  C_11
REMARK    4  A    between atoms: C_11  and  N_12
REMARK    5  A    between atoms: N_12  and  C_13
REMARK    6  A    between atoms: C_18  and  C_19
REMARK    7  A    between atoms: C_18  and  N_65
REMARK    8  A    between atoms: N_27  and  C_28
REMARK                            x       y       z     vdW  Elec       q    Type
REMARK                         _______ _______ _______ _____ _____    ______ ____
ROOT
ATOM      1  N   UNL     1      -0.080  -0.421   1.263  0.00  0.00    -0.278 N 
ATOM      2  C   UNL     1       1.198  -0.549   1.671  0.00  0.00    +0.307 C 
ATOM      3  O   UNL     1       2.106  -0.172   0.956  0.00  0.00    -0.252 OA
ATOM      4  N   UNL     1       1.470  -1.096   2.873  0.00  0.00    -0.267 N 
ATOM      5  H   UNL     1       0.752  -1.464   3.412  0.00  0.00    +0.156 HD
ENDROOT
BRANCH   4   6
ATOM      6  C   UNL     1       2.790  -1.134   3.343  0.00  0.00    +0.070 A 
ATOM      7  C   UNL     1       3.831  -0.721   2.525  0.00  0.00    +0.029 A 
ATOM      8  C   UNL     1       5.131  -0.758   2.990  0.00  0.00    +0.040 A 
ATOM      9  C   UNL     1       5.397  -1.208   4.272  0.00  0.00    +0.126 A 
ATOM     10  C   UNL     1       4.361  -1.621   5.092  0.00  0.00    +0.078 A 
ATOM     11  C   UNL     1       3.057  -1.580   4.633  0.00  0.00    +0.147 A 
ATOM     12  F   UNL     1       2.044  -1.978   5.434  0.00  0.00    -0.203 F 
ATOM     13  F   UNL     1       6.670  -1.244   4.724  0.00  0.00    -0.205 F 
ENDBRANCH   4   6
BRANCH   1  14
ATOM     14  C   UNL     1      -1.177  -0.782   2.164  0.00  0.00    +0.074 C 
ATOM     15  C   UNL     1      -1.020  -0.030   3.489  0.00  0.00    +0.004 C 
ATOM     16  C   UNL     1      -2.133  -0.457   4.448  0.00  0.00    -0.077 C 
ATOM     17  C   UNL     1      -2.252  -2.650   3.425  0.00  0.00    -0.077 C 
ATOM     18  C   UNL     1      -1.142  -2.289   2.435  0.00  0.00    +0.004 C 
ATOM     19  N   UNL     1      -2.030  -1.912   4.686  0.00  0.00    +0.382 N 
ATOM     20  H   UNL     1      -1.088  -2.126   5.035  0.00  0.00    -0.081 HD
BRANCH  19  21
ATOM     21  C   UNL     1      -3.022  -2.330   5.697  0.00  0.00    -0.043 C 
BRANCH  21  22
ATOM     22  C   UNL     1      -2.642  -1.732   7.027  0.00  0.00    -0.064 A 
ATOM     23  C   UNL     1      -1.797  -2.421   7.878  0.00  0.00    +0.002 A 
ATOM     24  C   UNL     1      -1.444  -1.870   9.095  0.00  0.00    +0.000 A 
ATOM     25  C   UNL     1      -1.943  -0.636   9.467  0.00  0.00    +0.000 A 
ATOM     26  C   UNL     1      -2.792   0.050   8.619  0.00  0.00    +0.000 A 
ATOM     27  C   UNL     1      -3.141  -0.498   7.399  0.00  0.00    +0.002 A 
ENDBRANCH  21  22
ENDBRANCH  19  21
ENDBRANCH   1  14
BRANCH   1  28
ATOM     28  C   UNL     1      -0.372   0.079  -0.083  0.00  0.00    +0.144 C 
BRANCH  28  32
ATOM     29  C   UNL     1      -0.732   4.334   0.026  0.00  0.00    +0.088 A 
ATOM     30  C   UNL     1       0.499   3.750  -0.207  0.00  0.00    +0.027 A 
ATOM     31  C   UNL     1       0.616   2.373  -0.243  0.00  0.00    +0.007 A 
ATOM     32  C   UNL     1      -0.499   1.580  -0.044  0.00  0.00    -0.030 A 
ATOM     33  C   UNL     1      -1.731   2.164   0.183  0.00  0.00    +0.007 A 
ATOM     34  C   UNL     1      -1.847   3.541   0.223  0.00  0.00    +0.027 A 
BRANCH  29  36
ATOM     35  C   UNL     1      -1.236   6.572  -1.640  0.00  0.00    +0.200 C 
ATOM     36  S   UNL     1      -0.880   6.089   0.072  0.00  0.00    -0.006 S 
ATOM     37  O   UNL     1      -2.011   6.336   0.896  0.00  0.00    -0.170 OA
ATOM     38  O   UNL     1       0.409   6.552   0.453  0.00  0.00    -0.170 OA
ENDBRANCH  29  36
ENDBRANCH  28  32
ENDBRANCH   1  28
TORSDOF 7
