REMARK  Name = ZINC10121229
REMARK  14 active torsions:
REMARK  status: ('A' for Active; 'I' for Inactive)
REMARK    1  A    between atoms: C_1  and  C_2
REMARK    2  A    between atoms: C_2  and  C_3
REMARK    3  A    between atoms: C_3  and  C_5
REMARK    4  A    between atoms: C_3  and  O_6
REMARK    5  A    between atoms: O_6  and  C_7
REMARK    6  A    between atoms: C_11  and  C_13
REMARK    7  A    between atoms: N_15  and  C_16
REMARK    8  A    between atoms: C_16  and  N_18
REMARK    9  A    between atoms: N_18  and  C_19
REMARK   10  A    between atoms: C_22  and  S_25
REMARK   11  A    between atoms: S_25  and  N_28
REMARK   12  A    between atoms: N_28  and  C_29
REMARK   13  A    between atoms: C_30  and  C_36
REMARK   14  A    between atoms: C_34  and  C_35
REMARK                            x       y       z     vdW  Elec       q    Type
REMARK                         _______ _______ _______ _____ _____    ______ ____
ROOT
ATOM      1  N   UNL     1       7.109   3.436   0.840  0.00  0.00    -0.297 N 
ATOM      2  H   UNL     1       6.467   3.312   1.557  0.00  0.00    +0.154 HD
ENDROOT
BRANCH   1   3
ATOM      3  C   UNL     1       7.986   2.401   0.500  0.00  0.00    +0.033 A 
ATOM      4  C   UNL     1       7.518   1.098   0.394  0.00  0.00    +0.025 A 
ATOM      5  C   UNL     1       8.386   0.079   0.053  0.00  0.00    +0.030 A 
ATOM      6  C   UNL     1       9.722   0.354  -0.171  0.00  0.00    +0.109 A 
ATOM      7  C   UNL     1      10.193   1.649  -0.061  0.00  0.00    +0.030 A 
ATOM      8  C   UNL     1       9.329   2.673   0.274  0.00  0.00    +0.025 A 
BRANCH   6   9
ATOM      9  S   UNL     1      10.828  -0.950  -0.599  0.00  0.00    +0.072 S 
ATOM     10  O   UNL     1      10.053  -1.938  -1.265  0.00  0.00    -0.150 OA
ATOM     11  O   UNL     1      11.962  -0.340  -1.198  0.00  0.00    -0.150 OA
BRANCH   9  12
ATOM     12  N   UNL     1      11.350  -1.634   0.816  0.00  0.00    -0.216 N 
ATOM     13  H   UNL     1      12.244  -1.448   1.143  0.00  0.00    +0.174 HD
BRANCH  12  14
ATOM     14  C   UNL     1      10.502  -2.477   1.539  0.00  0.00    +0.054 A 
ATOM     15  C   UNL     1       9.917  -2.032   2.717  0.00  0.00    -0.028 A 
ATOM     16  C   UNL     1       9.076  -2.866   3.426  0.00  0.00    +0.005 A 
ATOM     17  C   UNL     1       8.825  -4.148   2.970  0.00  0.00    +0.001 A 
ATOM     18  C   UNL     1       9.410  -4.596   1.801  0.00  0.00    +0.005 A 
ATOM     19  C   UNL     1      10.248  -3.764   1.083  0.00  0.00    -0.028 A 
ATOM     20  C   UNL     1      10.885  -4.253  -0.192  0.00  0.00    +0.046 C 
ATOM     21  C   UNL     1      10.194  -0.638   3.218  0.00  0.00    +0.046 C 
ENDBRANCH  12  14
ENDBRANCH   9  12
ENDBRANCH   6   9
ENDBRANCH   1   3
BRANCH   1  22
ATOM     22  C   UNL     1       7.155   4.605   0.172  0.00  0.00    +0.141 C 
ATOM     23  S   UNL     1       8.354   4.862  -1.023  0.00  0.00    -0.018 S 
BRANCH  22  26
ATOM     24  C   UNL     1       6.304   6.743  -0.223  0.00  0.00    +0.250 C 
ATOM     25  O   UNL     1       7.155   6.925  -1.071  0.00  0.00    -0.270 OA
ATOM     26  N   UNL     1       6.258   5.574   0.445  0.00  0.00    -0.264 N 
ATOM     27  H   UNL     1       5.579   5.428   1.123  0.00  0.00    +0.157 HD
BRANCH  24  32
ATOM     28  C   UNL     1       4.445  10.009  -0.324  0.00  0.00    +0.122 A 
ATOM     29  C   UNL     1       3.472   9.792   0.643  0.00  0.00    +0.046 A 
ATOM     30  C   UNL     1       3.426   8.592   1.328  0.00  0.00    +0.004 A 
ATOM     31  C   UNL     1       4.343   7.599   1.051  0.00  0.00    +0.013 A 
ATOM     32  C   UNL     1       5.321   7.804   0.076  0.00  0.00    +0.041 A 
ATOM     33  C   UNL     1       5.366   9.017  -0.614  0.00  0.00    +0.058 A 
BRANCH  28  34
ATOM     34  O   UNL     1       4.490  11.193  -0.989  0.00  0.00    -0.489 OA
BRANCH  34  35
ATOM     35  C   UNL     1       3.584  12.212  -0.562  0.00  0.00    +0.170 C 
ATOM     36  C   UNL     1       2.231  12.011  -1.246  0.00  0.00    +0.052 C 
BRANCH  35  38
ATOM     37  C   UNL     1       5.438  13.837  -0.155  0.00  0.00    +0.007 C 
ATOM     38  C   UNL     1       4.146  13.584  -0.936  0.00  0.00    +0.041 C 
ENDBRANCH  35  38
ENDBRANCH  34  35
ENDBRANCH  28  34
ENDBRANCH  24  32
ENDBRANCH  22  26
ENDBRANCH   1  22
TORSDOF 10
