REMARK  Name = ZINC00192786
REMARK  6 active torsions:
REMARK  status: ('A' for Active; 'I' for Inactive)
REMARK    1  A    between atoms: C_1  and  C_2
REMARK    2  A    between atoms: C_5  and  C_8
REMARK    3  A    between atoms: N_10  and  C_18
REMARK    4  A    between atoms: C_11  and  C_13
REMARK    5  A    between atoms: C_11  and  O_17
REMARK    6  A    between atoms: C_18  and  N_20
REMARK                            x       y       z     vdW  Elec       q    Type
REMARK                         _______ _______ _______ _____ _____    ______ ____
ROOT
ATOM      1  C   UNL     1       0.843   3.416   0.042  0.00  0.00    +0.071 C 
ATOM      2  N   UNL     1       1.103   2.155   0.027  0.00  0.00    -0.179 NA
ATOM      3  N   UNL     1      -0.027   1.341   0.003  0.00  0.00    -0.164 N 
ATOM      4  C   UNL     1      -1.227   2.192  -0.006  0.00  0.00    +0.256 C 
ATOM      5  C   UNL     1      -0.655   3.623   0.028  0.00  0.00    +0.124 C 
ENDROOT
BRANCH   1  10
ATOM      6  C   UNL     1       4.773   7.614   0.148  0.00  0.00    +0.044 C 
ATOM      7  C   UNL     1       3.743   6.514   0.120  0.00  0.00    -0.050 A 
ATOM      8  C   UNL     1       4.149   5.192   0.105  0.00  0.00    +0.004 A 
ATOM      9  C   UNL     1       3.212   4.180   0.081  0.00  0.00    +0.010 A 
ATOM     10  C   UNL     1       1.851   4.493   0.070  0.00  0.00    -0.002 A 
ATOM     11  C   UNL     1       1.448   5.830   0.079  0.00  0.00    +0.010 A 
ATOM     12  C   UNL     1       2.396   6.832   0.109  0.00  0.00    +0.004 A 
ENDBRANCH   1  10
BRANCH   4  13
ATOM     13  C   UNL     1      -2.040   1.965  -1.282  0.00  0.00    +0.438 C 
ATOM     14  F   UNL     1      -2.556   0.664  -1.280  0.00  0.00    -0.166 F 
ATOM     15  F   UNL     1      -3.094   2.884  -1.334  0.00  0.00    -0.166 F 
ATOM     16  F   UNL     1      -1.215   2.138  -2.398  0.00  0.00    -0.166 F 
ENDBRANCH   4  13
BRANCH   4  17
ATOM     17  O   UNL     1      -2.027   1.946   1.153  0.00  0.00    -0.363 OA
ATOM     18  H   UNL     1      -2.356   1.039   1.217  0.00  0.00    +0.212 HD
ENDBRANCH   4  17
BRANCH   3  19
ATOM     19  C   UNL     1      -0.022  -0.007  -0.017  0.00  0.00    +0.153 C 
ATOM     20  S   UNL     1      -1.495  -0.870   0.114  0.00  0.00    -0.017 S 
BRANCH  19  21
ATOM     21  N   UNL     1       1.142  -0.675  -0.139  0.00  0.00    -0.339 N 
ATOM     22  H   UNL     1       1.976  -0.186  -0.213  0.00  0.00    +0.144 HD
ATOM     23  H   UNL     1       1.145  -1.645  -0.153  0.00  0.00    +0.144 HD
ENDBRANCH  19  21
ENDBRANCH   3  19
TORSDOF 5
