REMARK  Name = ZINC40378799
REMARK  4 active torsions:
REMARK  status: ('A' for Active; 'I' for Inactive)
REMARK    1  A    between atoms: C_4  and  N_11
REMARK    2  A    between atoms: C_6  and  S_7
REMARK    3  A    between atoms: S_7  and  N_10
REMARK    4  A    between atoms: C_12  and  C_14
REMARK                            x       y       z     vdW  Elec       q    Type
REMARK                         _______ _______ _______ _____ _____    ______ ____
ROOT
ATOM      1  C   UNL     1      -0.018   1.377  -0.023  0.00  0.00    +0.030 A 
ATOM      2  C   UNL     1       1.092   1.947   0.573  0.00  0.00    +0.024 A 
ATOM      3  C   UNL     1       2.301   1.277   0.570  0.00  0.00    +0.062 A 
ATOM      4  C   UNL     1       2.399   0.028  -0.032  0.00  0.00    +0.054 A 
ATOM      5  C   UNL     1       1.283  -0.541  -0.628  0.00  0.00    +0.053 A 
ATOM      6  C   UNL     1       0.077   0.135  -0.623  0.00  0.00    +0.107 A 
ATOM      7 CL   UNL     1       3.694   1.994   1.317  0.00  0.00    -0.082 Cl
ENDROOT
BRANCH   4   8
ATOM      8  N   UNL     1       3.622  -0.653  -0.037  0.00  0.00    -0.284 N 
ATOM      9  C   UNL     1       3.644  -1.998   0.057  0.00  0.00    +0.221 C 
ATOM     10  O   UNL     1       2.605  -2.622   0.065  0.00  0.00    -0.275 OA
ATOM     11  H   UNL     1       4.453  -0.158  -0.109  0.00  0.00    +0.155 HD
BRANCH   9  12
ATOM     12  C   UNL     1       4.961  -2.724   0.153  0.00  0.00    +0.083 C 
ATOM     13  C   UNL     1       5.706  -2.332   1.453  0.00  0.00    +0.021 C 
ATOM     14  C   UNL     1       5.830  -3.681   2.229  0.00  0.00    +0.013 C 
ATOM     15  C   UNL     1       4.457  -4.351   1.856  0.00  0.00    +0.016 C 
ATOM     16  C   UNL     1       4.730  -4.261   0.306  0.00  0.00    +0.024 C 
ATOM     17  C   UNL     1       6.142  -4.858   0.255  0.00  0.00    -0.027 C 
ATOM     18  C   UNL     1       6.793  -4.515   1.376  0.00  0.00    -0.027 C 
ENDBRANCH   9  12
ENDBRANCH   4   8
BRANCH   6  19
ATOM     19  S   UNL     1      -1.340  -0.588  -1.380  0.00  0.00    +0.056 S 
ATOM     20  O   UNL     1      -1.123  -1.992  -1.392  0.00  0.00    -0.153 OA
ATOM     21  O   UNL     1      -2.476   0.002  -0.762  0.00  0.00    -0.153 OA
BRANCH  19  22
ATOM     22  N   UNL     1      -1.354  -0.098  -2.961  0.00  0.00    -0.204 NA
ATOM     23  H   UNL     1      -0.653   0.484  -3.295  0.00  0.00    +0.144 HD
ATOM     24  H   UNL     1      -2.063  -0.392  -3.554  0.00  0.00    +0.144 HD
ENDBRANCH  19  22
ENDBRANCH   6  19
TORSDOF 4
