REMARK  Name = ZINC36311896
REMARK  6 active torsions:
REMARK  status: ('A' for Active; 'I' for Inactive)
REMARK    1  A    between atoms: C_4  and  C_32
REMARK    2  A    between atoms: C_5  and  C_7
REMARK    3  A    between atoms: N_12  and  C_15
REMARK    4  A    between atoms: C_15  and  C_17
REMARK    5  A    between atoms: C_15  and  C_22
REMARK    6  A    between atoms: N_24  and  C_25
REMARK                            x       y       z     vdW  Elec       q    Type
REMARK                         _______ _______ _______ _____ _____    ______ ____
ROOT
ATOM      1  C   UNL     1      -1.294  -2.819   2.877  0.00  0.00    +0.247 C 
ATOM      2  O   UNL     1      -1.094  -1.625   2.760  0.00  0.00    -0.270 OA
ATOM      3  N   UNL     1      -1.240  -3.620   1.795  0.00  0.00    -0.301 N 
ATOM      4  C   UNL     1      -1.617  -5.039   1.885  0.00  0.00    +0.089 C 
ATOM      5  C   UNL     1      -2.614  -5.349   0.764  0.00  0.00    -0.058 C 
ATOM      6  N   UNL     1      -2.036  -4.956  -0.528  0.00  0.00    +0.390 N 
ATOM      7  C   UNL     1      -1.838  -3.501  -0.565  0.00  0.00    -0.058 C 
ATOM      8  C   UNL     1      -0.807  -3.099   0.489  0.00  0.00    +0.089 C 
ATOM      9  H   UNL     1      -1.148  -5.418  -0.651  0.00  0.00    -0.081 HD
ENDROOT
BRANCH   1  14
ATOM     10  C   UNL     1      -1.162  -5.017   5.919  0.00  0.00    +0.001 A 
ATOM     11  C   UNL     1      -2.166  -4.464   6.695  0.00  0.00    +0.001 A 
ATOM     12  C   UNL     1      -2.886  -3.377   6.233  0.00  0.00    +0.013 A 
ATOM     13  C   UNL     1      -2.608  -2.838   4.993  0.00  0.00    +0.067 A 
ATOM     14  C   UNL     1      -1.597  -3.391   4.206  0.00  0.00    +0.049 A 
ATOM     15  C   UNL     1      -0.874  -4.487   4.678  0.00  0.00    +0.013 A 
BRANCH  13  16
ATOM     16  C   UNL     1      -3.394  -1.654   4.491  0.00  0.00    +0.418 C 
ATOM     17  F   UNL     1      -4.343  -1.284   5.450  0.00  0.00    -0.166 F 
ATOM     18  F   UNL     1      -2.526  -0.583   4.256  0.00  0.00    -0.166 F 
ATOM     19  F   UNL     1      -4.044  -1.997   3.300  0.00  0.00    -0.166 F 
ENDBRANCH  13  16
ENDBRANCH   1  14
BRANCH   6  20
ATOM     20  C   UNL     1      -2.946  -5.353  -1.611  0.00  0.00    +0.023 C 
BRANCH  20  21
ATOM     21  C   UNL     1      -3.178  -6.864  -1.554  0.00  0.00    -0.016 C 
ATOM     22  C   UNL     1      -1.833  -7.610  -1.672  0.00  0.00    +0.002 C 
ATOM     23  C   UNL     1      -2.166  -8.862  -2.521  0.00  0.00    +0.000 C 
ATOM     24  C   UNL     1      -3.181  -8.313  -3.554  0.00  0.00    +0.000 C 
ATOM     25  C   UNL     1      -4.035  -7.311  -2.750  0.00  0.00    +0.002 C 
ENDBRANCH  20  21
BRANCH  20  26
ATOM     26  C   UNL     1      -4.261  -4.636  -1.450  0.00  0.00    +0.204 C 
ATOM     27  O   UNL     1      -4.577  -4.183  -0.370  0.00  0.00    -0.277 OA
ATOM     28  N   UNL     1      -5.087  -4.498  -2.506  0.00  0.00    -0.287 N 
ATOM     29  H   UNL     1      -4.861  -4.907  -3.355  0.00  0.00    +0.155 HD
BRANCH  28  30
ATOM     30  C   UNL     1      -6.272  -3.765  -2.376  0.00  0.00    +0.036 A 
ATOM     31  C   UNL     1      -6.283  -2.584  -1.645  0.00  0.00    +0.023 A 
ATOM     32  C   UNL     1      -7.454  -1.862  -1.518  0.00  0.00    +0.005 A 
ATOM     33  C   UNL     1      -8.615  -2.313  -2.119  0.00  0.00    +0.038 A 
ATOM     34  C   UNL     1      -8.608  -3.490  -2.849  0.00  0.00    +0.125 A 
ATOM     35  C   UNL     1      -7.437  -4.214  -2.983  0.00  0.00    +0.061 A 
ATOM     36  F   UNL     1      -9.744  -3.928  -3.433  0.00  0.00    -0.205 F 
ENDBRANCH  28  30
ENDBRANCH  20  26
ENDBRANCH   6  20
TORSDOF 6
