REMARK  Name = ZINC03251520
REMARK  8 active torsions:
REMARK  status: ('A' for Active; 'I' for Inactive)
REMARK    1  A    between atoms: C_1  and  C_2
REMARK    2  A    between atoms: C_2  and  C_3
REMARK    3  A    between atoms: C_2  and  C_4
REMARK    4  A    between atoms: C_2  and  C_5
REMARK    5  A    between atoms: C_8  and  C_11
REMARK    6  A    between atoms: C_13  and  C_21
REMARK    7  A    between atoms: N_23  and  C_24
REMARK    8  A    between atoms: C_28  and  C_30
REMARK                            x       y       z     vdW  Elec       q    Type
REMARK                         _______ _______ _______ _____ _____    ______ ____
ROOT
ATOM      1  C   UNL     1       2.735   1.308  -0.103  0.00  0.00    +0.122 C 
ATOM      2  C   UNL     1       3.179   1.121   1.354  0.00  0.00    +0.143 C 
ATOM      3  C   UNL     1       3.565   2.484   1.893  0.00  0.00    +0.019 C 
ATOM      4  C   UNL     1       3.115   2.917   3.055  0.00  0.00    +0.029 C 
ATOM      5  N   UNL     1       4.419   3.263   1.105  0.00  0.00    -0.273 N 
ATOM      6  C   UNL     1       4.484   3.030  -0.219  0.00  0.00    +0.304 C 
ATOM      7  O   UNL     1       5.249   3.692  -0.894  0.00  0.00    -0.253 OA
ATOM      8  N   UNL     1       3.738   2.093  -0.821  0.00  0.00    -0.291 N 
ATOM      9  H   UNL     1       4.957   3.963   1.507  0.00  0.00    +0.156 HD
ATOM     10  H   UNL     1       3.868   1.930  -1.768  0.00  0.00    +0.151 HD
ENDROOT
BRANCH   1  14
ATOM     11  C   UNL     1      -1.013   3.355  -0.199  0.00  0.00    -0.042 A 
ATOM     12  C   UNL     1      -0.971   1.983  -0.356  0.00  0.00    +0.004 A 
ATOM     13  C   UNL     1       0.242   1.319  -0.320  0.00  0.00    +0.006 A 
ATOM     14  C   UNL     1       1.413   2.030  -0.136  0.00  0.00    -0.026 A 
ATOM     15  C   UNL     1       1.371   3.404   0.016  0.00  0.00    +0.006 A 
ATOM     16  C   UNL     1       0.159   4.066  -0.016  0.00  0.00    +0.004 A 
BRANCH  11  18
ATOM     17  C   UNL     1      -2.334   5.090  -1.379  0.00  0.00    +0.015 C 
ATOM     18  C   UNL     1      -2.335   4.077  -0.232  0.00  0.00    -0.013 C 
ATOM     19  C   UNL     1      -3.463   3.066  -0.446  0.00  0.00    +0.015 C 
ATOM     20  C   UNL     1      -2.550   4.809   1.094  0.00  0.00    +0.015 C 
ENDBRANCH  11  18
ENDBRANCH   1  14
BRANCH   2  21
ATOM     21  C   UNL     1       4.365   0.194   1.412  0.00  0.00    +0.228 C 
ATOM     22  O   UNL     1       4.818  -0.277   0.390  0.00  0.00    -0.275 OA
ATOM     23  N   UNL     1       4.923  -0.113   2.600  0.00  0.00    -0.285 N 
ATOM     24  H   UNL     1       4.611   0.322   3.409  0.00  0.00    +0.155 HD
BRANCH  23  25
ATOM     25  C   UNL     1       5.953  -1.058   2.666  0.00  0.00    +0.034 A 
ATOM     26  C   UNL     1       5.965  -2.137   1.792  0.00  0.00    +0.023 A 
ATOM     27  C   UNL     1       6.985  -3.065   1.856  0.00  0.00    +0.002 A 
ATOM     28  C   UNL     1       7.989  -2.927   2.798  0.00  0.00    +0.012 A 
ATOM     29  C   UNL     1       7.977  -1.857   3.673  0.00  0.00    +0.057 A 
ATOM     30  C   UNL     1       6.962  -0.922   3.610  0.00  0.00    +0.035 A 
BRANCH  29  31
ATOM     31  C   UNL     1       9.073  -1.711   4.697  0.00  0.00    +0.417 C 
ATOM     32  F   UNL     1       8.705  -2.375   5.872  0.00  0.00    -0.166 F 
ATOM     33  F   UNL     1      10.256  -2.267   4.198  0.00  0.00    -0.166 F 
ATOM     34  F   UNL     1       9.276  -0.354   4.973  0.00  0.00    -0.166 F 
ENDBRANCH  29  31
ENDBRANCH  23  25
ENDBRANCH   2  21
TORSDOF 5
