REMARK  Name = ZINC59434839
REMARK  11 active torsions:
REMARK  status: ('A' for Active; 'I' for Inactive)
REMARK    1  A    between atoms: C_1  and  O_2
REMARK    2  A    between atoms: O_2  and  C_3
REMARK    3  A    between atoms: C_6  and  C_9
REMARK    4  A    between atoms: C_9  and  C_11
REMARK    5  A    between atoms: C_9  and  N_30
REMARK    6  A    between atoms: C_11  and  C_12
REMARK    7  A    between atoms: C_12  and  C_14
REMARK    8  A    between atoms: C_14  and  C_15
REMARK    9  A    between atoms: C_15  and  N_17
REMARK   10  A    between atoms: C_20  and  C_24
REMARK   11  A    between atoms: C_31  and  C_33
REMARK                            x       y       z     vdW  Elec       q    Type
REMARK                         _______ _______ _______ _____ _____    ______ ____
ROOT
ATOM      1  C   UNL     1       2.505  -2.504  -4.382  0.00  0.00    +0.111 C 
ENDROOT
BRANCH   1   5
ATOM      2  C   UNL     1       0.419  -0.435  -1.279  0.00  0.00    +0.120 A 
ATOM      3  C   UNL     1       0.970   0.273  -2.338  0.00  0.00    +0.046 A 
ATOM      4  C   UNL     1       1.644  -0.398  -3.340  0.00  0.00    +0.009 A 
ATOM      5  C   UNL     1       1.770  -1.774  -3.288  0.00  0.00    -0.027 A 
ATOM      6  C   UNL     1       1.222  -2.482  -2.234  0.00  0.00    +0.009 A 
ATOM      7  C   UNL     1       0.552  -1.815  -1.227  0.00  0.00    +0.046 A 
BRANCH   2   9
ATOM      8  C   UNL     1      -0.342   1.644  -0.412  0.00  0.00    +0.277 C 
ATOM      9  O   UNL     1      -0.244   0.223  -0.292  0.00  0.00    -0.495 OA
ENDBRANCH   2   9
ENDBRANCH   1   5
BRANCH   1  10
ATOM     10  N   UNL     1       1.789  -3.738  -4.714  0.00  0.00    -0.304 N 
ATOM     11  C   UNL     1       0.772  -3.710  -5.598  0.00  0.00    +0.245 C 
ATOM     12  O   UNL     1       0.508  -2.681  -6.188  0.00  0.00    -0.270 OA
ATOM     13  H   UNL     1       2.046  -4.575  -4.296  0.00  0.00    +0.150 HD
BRANCH  11  14
ATOM     14  C   UNL     1      -0.021  -4.932  -5.851  0.00  0.00    +0.037 A 
ATOM     15  C   UNL     1       0.276  -6.114  -5.171  0.00  0.00    +0.013 A 
ATOM     16  C   UNL     1      -0.468  -7.250  -5.411  0.00  0.00    +0.001 A 
ATOM     17  C   UNL     1      -1.507  -7.220  -6.324  0.00  0.00    +0.000 A 
ATOM     18  C   UNL     1      -1.807  -6.052  -7.001  0.00  0.00    +0.001 A 
ATOM     19  C   UNL     1      -1.074  -4.907  -6.766  0.00  0.00    +0.013 A 
ENDBRANCH  11  14
ENDBRANCH   1  10
BRANCH   1  20
ATOM     20  C   UNL     1       3.918  -2.846  -3.906  0.00  0.00    +0.102 C 
BRANCH  20  21
ATOM     21  C   UNL     1       4.694  -3.465  -5.040  0.00  0.00    +0.144 C 
ATOM     22  O   UNL     1       4.171  -3.617  -6.118  0.00  0.00    -0.297 OA
BRANCH  21  23
ATOM     23  C   UNL     1       6.123  -3.895  -4.830  0.00  0.00    +0.172 C 
BRANCH  23  24
ATOM     24  C   UNL     1       6.666  -4.479  -6.109  0.00  0.00    +0.245 C 
ATOM     25  O   UNL     1       5.960  -4.540  -7.097  0.00  0.00    -0.273 OA
BRANCH  24  26
ATOM     26  N   UNL     1       7.918  -4.927  -6.156  0.00  0.00    -0.159 NA
ATOM     27  C   UNL     1       8.397  -5.441  -7.284  0.00  0.00    +0.147 C 
ATOM     28  N   UNL     1       9.643  -5.931  -7.470  0.00  0.00    -0.318 N 
ATOM     29  C   UNL     1      10.027  -6.463  -8.762  0.00  0.00    +0.112 C 
ATOM     30  C   UNL     1       8.863  -6.372  -9.770  0.00  0.00    +0.104 C 
ATOM     31  S   UNL     1       7.561  -5.606  -8.727  0.00  0.00    -0.091 S 
ATOM     32  H   UNL     1      10.281  -5.926  -6.739  0.00  0.00    +0.148 HD
BRANCH  29  33
ATOM     33  C   UNL     1      11.200  -5.678  -9.291  0.00  0.00    -0.026 A 
ATOM     34  C   UNL     1      11.262  -4.311  -9.094  0.00  0.00    +0.005 A 
ATOM     35  C   UNL     1      12.337  -3.591  -9.579  0.00  0.00    +0.000 A 
ATOM     36  C   UNL     1      13.351  -4.238 -10.262  0.00  0.00    +0.000 A 
ATOM     37  C   UNL     1      13.289  -5.605 -10.458  0.00  0.00    +0.000 A 
ATOM     38  C   UNL     1      12.215  -6.326  -9.969  0.00  0.00    +0.005 A 
ENDBRANCH  29  33
ENDBRANCH  24  26
ENDBRANCH  23  24
ENDBRANCH  21  23
ENDBRANCH  20  21
ENDBRANCH   1  20
TORSDOF 10
