REMARK  Name = ZINC20418300
REMARK  8 active torsions:
REMARK  status: ('A' for Active; 'I' for Inactive)
REMARK    1  A    between atoms: C_1  and  C_2
REMARK    2  A    between atoms: C_5  and  S_8
REMARK    3  A    between atoms: S_8  and  C_11
REMARK    4  A    between atoms: C_12  and  N_32
REMARK    5  A    between atoms: C_13  and  C_24
REMARK    6  A    between atoms: C_15  and  N_16
REMARK    7  A    between atoms: N_16  and  C_17
REMARK    8  A    between atoms: C_24  and  C_26
REMARK                            x       y       z     vdW  Elec       q    Type
REMARK                         _______ _______ _______ _____ _____    ______ ____
ROOT
ATOM      1  C   UNL     1      -2.316   0.974   0.221  0.00  0.00    +0.143 A 
ATOM      2  C   UNL     1      -1.237   1.665   0.712  0.00  0.00    +0.070 A 
ATOM      3  C   UNL     1      -1.385   3.037   0.955  0.00  0.00    +0.084 A 
ATOM      4  S   UNL     1      -3.076   3.324   0.462  0.00  0.00    -0.066 S 
ATOM      5  C   UNL     1      -3.494   1.657  -0.017  0.00  0.00    +0.098 A 
ENDROOT
BRANCH   1   6
ATOM      6  S   UNL     1      -2.202  -0.755  -0.100  0.00  0.00    +0.029 S 
ATOM      7  O   UNL     1      -3.341  -1.099  -0.877  0.00  0.00    -0.164 OA
ATOM      8  O   UNL     1      -0.875  -0.998  -0.544  0.00  0.00    -0.164 OA
BRANCH   6  13
ATOM      9  C   UNL     1      -2.799  -3.595   5.190  0.00  0.00    +0.044 C 
ATOM     10  C   UNL     1      -2.650  -2.886   3.869  0.00  0.00    -0.050 A 
ATOM     11  C   UNL     1      -3.767  -2.609   3.103  0.00  0.00    +0.005 A 
ATOM     12  C   UNL     1      -3.630  -1.958   1.891  0.00  0.00    +0.027 A 
ATOM     13  C   UNL     1      -2.377  -1.584   1.445  0.00  0.00    +0.094 A 
ATOM     14  C   UNL     1      -1.259  -1.866   2.208  0.00  0.00    +0.027 A 
ATOM     15  C   UNL     1      -1.396  -2.513   3.422  0.00  0.00    +0.005 A 
ENDBRANCH   6  13
ENDBRANCH   1   6
BRANCH   2  16
ATOM     16  N   UNL     1      -0.033   1.020   0.968  0.00  0.00    -0.355 N 
ATOM     17  H   UNL     1       0.823   1.589   1.361  0.00  0.00    +0.142 HD
ATOM     18  H   UNL     1       0.065  -0.059   0.776  0.00  0.00    +0.142 HD
ENDBRANCH   2  16
BRANCH   5  19
ATOM     19  N   UNL     1      -4.693   1.170  -0.504  0.00  0.00    -0.305 N 
ATOM     20  H   UNL     1      -4.762   0.131  -0.859  0.00  0.00    +0.153 HD
BRANCH  19  21
ATOM     21  C   UNL     1      -5.819   1.999  -0.545  0.00  0.00    +0.067 A 
ATOM     22  C   UNL     1      -5.925   3.072   0.329  0.00  0.00    +0.026 A 
ATOM     23  C   UNL     1      -7.038   3.889   0.285  0.00  0.00    +0.002 A 
ATOM     24  C   UNL     1      -8.047   3.640  -0.627  0.00  0.00    +0.003 A 
ATOM     25  C   UNL     1      -7.946   2.572  -1.500  0.00  0.00    +0.040 A 
ATOM     26  C   UNL     1      -6.833   1.753  -1.466  0.00  0.00    +0.144 A 
ATOM     27  F   UNL     1      -6.732   0.712  -2.322  0.00  0.00    -0.204 F 
ENDBRANCH  19  21
ENDBRANCH   5  19
BRANCH   3  28
ATOM     28  C   UNL     1      -0.442   3.952   1.455  0.00  0.00    +0.202 C 
ATOM     29  O   UNL     1       0.633   3.554   1.870  0.00  0.00    -0.286 OA
BRANCH  28  30
ATOM     30  C   UNL     1      -0.755   5.399   1.478  0.00  0.00    +0.023 A 
ATOM     31  C   UNL     1      -1.650   5.937   0.551  0.00  0.00    +0.012 A 
ATOM     32  C   UNL     1      -1.942   7.285   0.582  0.00  0.00    +0.001 A 
ATOM     33  C   UNL     1      -1.341   8.105   1.520  0.00  0.00    +0.000 A 
ATOM     34  C   UNL     1      -0.449   7.579   2.438  0.00  0.00    +0.001 A 
ATOM     35  C   UNL     1      -0.153   6.231   2.422  0.00  0.00    +0.012 A 
ENDBRANCH  28  30
ENDBRANCH   3  28
TORSDOF 7
