REMARK  Name = ZINC40049562
REMARK  8 active torsions:
REMARK  status: ('A' for Active; 'I' for Inactive)
REMARK    1  A    between atoms: C_1  and  C_2
REMARK    2  A    between atoms: C_4  and  N_17
REMARK    3  A    between atoms: N_8  and  C_11
REMARK    4  A    between atoms: N_9  and  C_10
REMARK    5  A    between atoms: N_17  and  S_18
REMARK    6  A    between atoms: S_18  and  C_21
REMARK    7  A    between atoms: C_28  and  C_31
REMARK    8  A    between atoms: C_31  and  C_32
REMARK                            x       y       z     vdW  Elec       q    Type
REMARK                         _______ _______ _______ _____ _____    ______ ____
ROOT
ATOM      1  S   UNL     1       0.705   0.527  -3.748  0.00  0.00    +0.059 S 
ATOM      2  O   UNL     1       0.556   1.809  -4.342  0.00  0.00    -0.153 OA
ATOM      3  O   UNL     1       1.816  -0.316  -4.022  0.00  0.00    -0.153 OA
ENDROOT
BRANCH   1   4
ATOM      4  C   UNL     1      -0.739  -0.393  -4.165  0.00  0.00    +0.107 A 
ATOM      5  C   UNL     1      -0.693  -1.780  -4.167  0.00  0.00    +0.030 A 
ATOM      6  C   UNL     1      -1.813  -2.515  -4.491  0.00  0.00    +0.030 A 
ATOM      7  C   UNL     1      -2.994  -1.862  -4.816  0.00  0.00    +0.066 A 
ATOM      8  C   UNL     1      -3.040  -0.458  -4.814  0.00  0.00    +0.091 A 
ATOM      9  C   UNL     1      -1.893   0.267  -4.478  0.00  0.00    +0.058 A 
ATOM     10  N   UNL     1      -4.303  -0.102  -5.166  0.00  0.00    -0.232 NA
ATOM     11  C   UNL     1      -5.014  -1.171  -5.378  0.00  0.00    +0.113 A 
ATOM     12  N   UNL     1      -4.258  -2.284  -5.177  0.00  0.00    -0.342 N 
ATOM     13  H   UNL     1      -4.553  -3.203  -5.271  0.00  0.00    +0.167 HD
BRANCH  11  14
ATOM     14  C   UNL     1      -6.465  -1.174  -5.786  0.00  0.00    +0.112 C 
BRANCH  14  15
ATOM     15  C   UNL     1      -7.268  -0.373  -4.795  0.00  0.00    -0.005 A 
ATOM     16  C   UNL     1      -7.899  -1.008  -3.741  0.00  0.00    +0.007 A 
ATOM     17  C   UNL     1      -8.636  -0.273  -2.832  0.00  0.00    +0.000 A 
ATOM     18  C   UNL     1      -8.742   1.098  -2.974  0.00  0.00    +0.003 A 
ATOM     19  C   UNL     1      -8.112   1.735  -4.025  0.00  0.00    +0.038 A 
ATOM     20  C   UNL     1      -7.370   1.001  -4.934  0.00  0.00    +0.127 A 
ATOM     21  F   UNL     1      -6.749   1.623  -5.960  0.00  0.00    -0.205 F 
ENDBRANCH  14  15
ENDBRANCH  11  14
ENDBRANCH   1   4
BRANCH   1  22
ATOM     22  N   UNL     1       0.681   0.759  -2.108  0.00  0.00    -0.176 NA
ATOM     23  H   UNL     1       0.595   1.655  -1.747  0.00  0.00    +0.149 HD
BRANCH  22  26
ATOM     24  C   UNL     1      -0.288   1.320   0.329  0.00  0.00    +0.028 C 
ATOM     25  C   UNL     1      -0.066  -0.171   0.067  0.00  0.00    +0.101 C 
ATOM     26  C   UNL     1       0.789  -0.388  -1.204  0.00  0.00    +0.182 C 
ATOM     27  C   UNL     1       2.192  -0.501  -0.633  0.00  0.00    +0.254 C 
ATOM     28  O   UNL     1       3.226  -0.426  -1.261  0.00  0.00    -0.272 OA
ATOM     29  N   UNL     1       2.083  -0.697   0.694  0.00  0.00    -0.201 N 
ATOM     30  N   UNL     1       0.788  -0.771   1.117  0.00  0.00    -0.218 NA
ATOM     31  C   UNL     1       0.399  -2.163   1.381  0.00  0.00    +0.128 C 
BRANCH  29  32
ATOM     32  C   UNL     1       3.184  -0.814   1.550  0.00  0.00    +0.053 A 
ATOM     33  C   UNL     1       4.245  -1.643   1.211  0.00  0.00    +0.025 A 
ATOM     34  C   UNL     1       5.330  -1.757   2.058  0.00  0.00    +0.002 A 
ATOM     35  C   UNL     1       5.360  -1.045   3.244  0.00  0.00    +0.000 A 
ATOM     36  C   UNL     1       4.305  -0.219   3.585  0.00  0.00    +0.002 A 
ATOM     37  C   UNL     1       3.220  -0.097   2.739  0.00  0.00    +0.025 A 
ENDBRANCH  29  32
ENDBRANCH  22  26
ENDBRANCH   1  22
TORSDOF 6
