REMARK  Name = ZINC38685016
REMARK  11 active torsions:
REMARK  status: ('A' for Active; 'I' for Inactive)
REMARK    1  A    between atoms: C_1  and  C_2
REMARK    2  A    between atoms: C_2  and  O_3
REMARK    3  A    between atoms: O_3  and  C_4
REMARK    4  A    between atoms: C_8  and  C_10
REMARK    5  A    between atoms: C_15  and  O_24
REMARK    6  A    between atoms: C_19  and  N_23
REMARK    7  A    between atoms: C_20  and  C_21
REMARK    8  A    between atoms: O_24  and  C_25
REMARK    9  A    between atoms: C_25  and  C_27
REMARK   10  A    between atoms: C_27  and  C_28
REMARK   11  A    between atoms: C_27  and  C_34
REMARK                            x       y       z     vdW  Elec       q    Type
REMARK                         _______ _______ _______ _____ _____    ______ ____
ROOT
ATOM      1  C   UNL     1      -0.059  -2.915  -3.115  0.00  0.00    +0.098 C 
ATOM      2  C   UNL     1      -0.592  -3.991  -4.024  0.00  0.00    +0.008 A 
ATOM      3  C   UNL     1      -1.643  -3.703  -4.876  0.00  0.00    +0.012 A 
ATOM      4  C   UNL     1      -2.145  -4.677  -5.716  0.00  0.00    +0.047 A 
ATOM      5  C   UNL     1      -1.595  -5.951  -5.707  0.00  0.00    +0.135 A 
ATOM      6  C   UNL     1      -0.542  -6.243  -4.855  0.00  0.00    +0.093 A 
ATOM      7  C   UNL     1      -0.039  -5.262  -4.011  0.00  0.00    +0.138 A 
ATOM      8  O   UNL     1       0.992  -5.563  -3.183  0.00  0.00    -0.441 OA
ATOM      9  C   UNL     1       1.739  -4.578  -2.656  0.00  0.00    +0.199 C 
ATOM     10  C   UNL     1       1.296  -3.303  -2.595  0.00  0.00    +0.098 C 
ENDROOT
BRANCH   1  15
ATOM     11  C   UNL     1      -2.475  -1.327  -0.683  0.00  0.00    +0.121 A 
ATOM     12  C   UNL     1      -2.738  -2.386   0.174  0.00  0.00    +0.045 A 
ATOM     13  C   UNL     1      -2.133  -3.610  -0.037  0.00  0.00    +0.004 A 
ATOM     14  C   UNL     1      -1.267  -3.780  -1.102  0.00  0.00    +0.005 A 
ATOM     15  C   UNL     1      -1.004  -2.726  -1.957  0.00  0.00    -0.031 A 
ATOM     16  C   UNL     1      -1.610  -1.502  -1.753  0.00  0.00    +0.050 A 
BRANCH  11  17
ATOM     17  O   UNL     1      -3.069  -0.122  -0.477  0.00  0.00    -0.492 OA
BRANCH  17  19
ATOM     18  C   UNL     1      -4.517   1.404   0.713  0.00  0.00    +0.048 C 
ATOM     19  C   UNL     1      -3.948  -0.015   0.644  0.00  0.00    +0.225 C 
ENDBRANCH  17  19
ENDBRANCH  11  17
ENDBRANCH   1  15
BRANCH   9  20
ATOM     20  N   UNL     1       2.985  -4.877  -2.166  0.00  0.00    -0.328 N 
ATOM     21  H   UNL     1       3.315  -5.788  -2.203  0.00  0.00    +0.145 HD
ATOM     22  H   UNL     1       3.537  -4.177  -1.783  0.00  0.00    +0.145 HD
ENDBRANCH   9  20
BRANCH  10  23
ATOM     23  C   UNL     1       2.141  -2.300  -2.020  0.00  0.00    +0.101 C 
ATOM     24  N   UNL     1       2.812  -1.504  -1.565  0.00  0.00    -0.191 NA
ENDBRANCH  10  23
BRANCH   5  25
ATOM     25  O   UNL     1      -2.088  -6.912  -6.533  0.00  0.00    -0.425 OA
BRANCH  25  26
ATOM     26  C   UNL     1      -2.755  -7.937  -5.980  0.00  0.00    +0.324 C 
ATOM     27  O   UNL     1      -2.992  -7.935  -4.795  0.00  0.00    -0.249 OA
BRANCH  26  28
ATOM     28  C   UNL     1      -3.209  -9.091  -6.837  0.00  0.00    +0.158 C 
BRANCH  28  29
ATOM     29  C   UNL     1      -3.929 -10.100  -5.980  0.00  0.00    -0.029 A 
ATOM     30  C   UNL     1      -3.518 -11.420  -5.974  0.00  0.00    +0.005 A 
ATOM     31  C   UNL     1      -4.179 -12.346  -5.189  0.00  0.00    +0.000 A 
ATOM     32  C   UNL     1      -5.249 -11.952  -4.408  0.00  0.00    +0.000 A 
ATOM     33  C   UNL     1      -5.659 -10.632  -4.412  0.00  0.00    +0.000 A 
ATOM     34  C   UNL     1      -4.996  -9.705  -5.195  0.00  0.00    +0.005 A 
ENDBRANCH  28  29
BRANCH  28  35
ATOM     35  C   UNL     1      -4.141  -8.585  -7.907  0.00  0.00    -0.029 A 
ATOM     36  C   UNL     1      -5.216  -7.785  -7.567  0.00  0.00    +0.005 A 
ATOM     37  C   UNL     1      -6.071  -7.321  -8.549  0.00  0.00    +0.000 A 
ATOM     38  C   UNL     1      -5.851  -7.656  -9.871  0.00  0.00    +0.000 A 
ATOM     39  C   UNL     1      -4.776  -8.456 -10.212  0.00  0.00    +0.000 A 
ATOM     40  C   UNL     1      -3.919  -8.916  -9.231  0.00  0.00    +0.005 A 
ENDBRANCH  28  35
ENDBRANCH  26  28
ENDBRANCH  25  26
ENDBRANCH   5  25
TORSDOF 10
