REMARK  Name = ZINC12688722
REMARK  7 active torsions:
REMARK  status: ('A' for Active; 'I' for Inactive)
REMARK    1  A    between atoms: C_4  and  S_11
REMARK    2  A    between atoms: C_5  and  C_7
REMARK    3  A    between atoms: S_11  and  N_14
REMARK    4  A    between atoms: C_17  and  C_20
REMARK    5  A    between atoms: N_22  and  C_23
REMARK    6  A    between atoms: C_27  and  C_29
REMARK    7  A    between atoms: N_31  and  C_32
REMARK                            x       y       z     vdW  Elec       q    Type
REMARK                         _______ _______ _______ _____ _____    ______ ____
ROOT
ATOM      1  N   UNL     1      -0.557  -6.907  -0.672  0.00  0.00    -0.177 NA
ATOM      2  C   UNL     1      -1.432  -6.234   0.297  0.00  0.00    +0.110 C 
ATOM      3  C   UNL     1      -1.323  -4.720   0.092  0.00  0.00    +0.030 C 
ATOM      4  C   UNL     1       0.146  -4.302   0.177  0.00  0.00    +0.078 C 
ATOM      5  C   UNL     1       0.941  -4.998  -0.930  0.00  0.00    +0.030 C 
ATOM      6  C   UNL     1       0.858  -6.515  -0.737  0.00  0.00    +0.110 C 
ENDROOT
BRANCH   4   7
ATOM      7  C   UNL     1       0.254  -2.808   0.009  0.00  0.00    +0.220 C 
ATOM      8  O   UNL     1      -0.746  -2.143  -0.162  0.00  0.00    -0.275 OA
ATOM      9  N   UNL     1       1.462  -2.211   0.049  0.00  0.00    -0.285 N 
ATOM     10  H   UNL     1       2.267  -2.748   0.115  0.00  0.00    +0.155 HD
BRANCH   9  11
ATOM     11  C   UNL     1       1.554  -0.815  -0.006  0.00  0.00    +0.034 A 
ATOM     12  C   UNL     1       2.537  -0.155   0.723  0.00  0.00    +0.023 A 
ATOM     13  C   UNL     1       2.632   1.223   0.672  0.00  0.00    +0.003 A 
ATOM     14  C   UNL     1       1.752   1.952  -0.101  0.00  0.00    +0.013 A 
ATOM     15  C   UNL     1       0.762   1.299  -0.836  0.00  0.00    +0.038 A 
ATOM     16  C   UNL     1       0.666  -0.092  -0.785  0.00  0.00    +0.036 A 
BRANCH  15  17
ATOM     17  C   UNL     1      -0.182   2.078  -1.665  0.00  0.00    +0.244 C 
ATOM     18  O   UNL     1      -1.044   1.507  -2.304  0.00  0.00    -0.270 OA
ATOM     19  N   UNL     1      -0.087   3.422  -1.712  0.00  0.00    -0.308 N 
ATOM     20  H   UNL     1       0.601   3.878  -1.202  0.00  0.00    +0.149 HD
BRANCH  19  21
ATOM     21  C   UNL     1      -1.023   4.194  -2.534  0.00  0.00    +0.073 C 
ATOM     22  C   UNL     1      -0.448   5.331  -3.380  0.00  0.00    +0.024 C 
ATOM     23  C   UNL     1      -1.278   5.649  -2.135  0.00  0.00    +0.024 C 
ENDBRANCH  19  21
ENDBRANCH  15  17
ENDBRANCH   9  11
ENDBRANCH   4   7
BRANCH   1  24
ATOM     24  S   UNL     1      -1.153  -8.084  -1.673  0.00  0.00    +0.061 S 
ATOM     25  O   UNL     1      -0.031  -8.798  -2.173  0.00  0.00    -0.153 OA
ATOM     26  O   UNL     1      -2.208  -8.721  -0.966  0.00  0.00    -0.153 OA
BRANCH  24  30
ATOM     27  C   UNL     1      -3.044  -5.996  -5.216  0.00  0.00    +0.001 A 
ATOM     28  C   UNL     1      -2.216  -5.293  -4.361  0.00  0.00    +0.002 A 
ATOM     29  C   UNL     1      -1.642  -5.929  -3.276  0.00  0.00    +0.029 A 
ATOM     30  C   UNL     1      -1.889  -7.271  -3.052  0.00  0.00    +0.117 A 
ATOM     31  C   UNL     1      -2.717  -7.973  -3.907  0.00  0.00    +0.081 A 
ATOM     32  C   UNL     1      -3.295  -7.336  -4.989  0.00  0.00    +0.014 A 
BRANCH  31  33
ATOM     33  C   UNL     1      -2.991  -9.434  -3.659  0.00  0.00    +0.419 C 
ATOM     34  F   UNL     1      -3.730  -9.958  -4.725  0.00  0.00    -0.166 F 
ATOM     35  F   UNL     1      -1.779 -10.124  -3.549  0.00  0.00    -0.166 F 
ATOM     36  F   UNL     1      -3.718  -9.578  -2.472  0.00  0.00    -0.166 F 
ENDBRANCH  31  33
ENDBRANCH  24  30
ENDBRANCH   1  24
TORSDOF 7
