REMARK  Name = ZINC13077350
REMARK  6 active torsions:
REMARK  status: ('A' for Active; 'I' for Inactive)
REMARK    1  A    between atoms: C_1  and  C_2
REMARK    2  A    between atoms: C_2  and  C_4
REMARK    3  A    between atoms: C_2  and  O_6
REMARK    4  A    between atoms: O_6  and  C_7
REMARK    5  A    between atoms: C_10  and  C_13
REMARK    6  A    between atoms: C_15  and  C_23
REMARK                            x       y       z     vdW  Elec       q    Type
REMARK                         _______ _______ _______ _____ _____    ______ ____
ROOT
ATOM      1  C   UNL     1       2.361   0.006  -0.302  0.00  0.00    +0.039 C 
ATOM      2  C   UNL     1       2.327   1.317  -0.502  0.00  0.00    +0.028 C 
ATOM      3  C   UNL     1       1.120   2.168  -0.210  0.00  0.00    +0.167 C 
ATOM      4  N   UNL     1      -0.035   1.313   0.036  0.00  0.00    -0.202 N 
ATOM      5  C   UNL     1       0.045  -0.029   0.232  0.00  0.00    +0.240 A 
ATOM      6  N   UNL     1      -1.167  -0.464   0.429  0.00  0.00    -0.092 NA
ATOM      7  N   UNL     1      -2.007   0.511   0.367  0.00  0.00    -0.021 NA
ATOM      8  N   UNL     1      -1.390   1.624   0.132  0.00  0.00    -0.042 NA
ATOM      9  N   UNL     1       1.258  -0.699   0.197  0.00  0.00    -0.282 N 
ATOM     10  H   UNL     1       1.339  -1.615   0.506  0.00  0.00    +0.155 HD
ENDROOT
BRANCH   3  11
ATOM     11  C   UNL     1       1.386   3.014   1.008  0.00  0.00    -0.018 A 
ATOM     12  C   UNL     1       1.663   2.411   2.222  0.00  0.00    +0.009 A 
ATOM     13  C   UNL     1       1.913   3.186   3.338  0.00  0.00    +0.040 A 
ATOM     14  C   UNL     1       1.875   4.566   3.245  0.00  0.00    +0.137 A 
ATOM     15  C   UNL     1       1.593   5.170   2.031  0.00  0.00    +0.053 A 
ATOM     16  C   UNL     1       1.349   4.392   0.913  0.00  0.00    +0.024 A 
ATOM     17 BR   UNL     1       1.542   7.056   1.901  0.00  0.00    -0.047 Br
ATOM     18  F   UNL     1       2.114   5.325   4.338  0.00  0.00    -0.204 F 
ENDBRANCH   3  11
BRANCH   1  22
ATOM     19  C   UNL     1       5.928  -2.122  -1.205  0.00  0.00    +0.122 A 
ATOM     20  C   UNL     1       4.824  -2.801  -0.709  0.00  0.00    +0.046 A 
ATOM     21  C   UNL     1       3.665  -2.114  -0.415  0.00  0.00    +0.013 A 
ATOM     22  C   UNL     1       3.603  -0.735  -0.617  0.00  0.00    -0.004 A 
ATOM     23  C   UNL     1       4.714  -0.057  -1.120  0.00  0.00    +0.013 A 
ATOM     24  C   UNL     1       5.871  -0.749  -1.407  0.00  0.00    +0.046 A 
BRANCH  19  25
ATOM     25  O   UNL     1       7.068  -2.802  -1.495  0.00  0.00    -0.478 OA
BRANCH  25  27
ATOM     26  C   UNL     1       7.290  -4.628   0.073  0.00  0.00    +0.064 C 
ATOM     27  C   UNL     1       7.021  -4.226  -1.379  0.00  0.00    +0.282 C 
BRANCH  27  28
ATOM     28  C   UNL     1       8.070  -4.838  -2.271  0.00  0.00    +0.395 C 
ATOM     29  O   UNL     1       8.844  -4.127  -2.869  0.00  0.00    -0.242 OA
ATOM     30  O   UNL     1       8.145  -6.171  -2.402  0.00  0.00    -0.242 OA
ENDBRANCH  27  28
ENDBRANCH  25  27
ENDBRANCH  19  25
ENDBRANCH   1  22
TORSDOF 5
