REMARK  Name = ZINC05130866
REMARK  7 active torsions:
REMARK  status: ('A' for Active; 'I' for Inactive)
REMARK    1  A    between atoms: C_1  and  C_2
REMARK    2  A    between atoms: C_2  and  C_3
REMARK    3  A    between atoms: C_3  and  C_4
REMARK    4  A    between atoms: C_7  and  C_9
REMARK    5  A    between atoms: C_12  and  C_23
REMARK    6  A    between atoms: C_18  and  N_22
REMARK    7  A    between atoms: C_19  and  C_20
REMARK                            x       y       z     vdW  Elec       q    Type
REMARK                         _______ _______ _______ _____ _____    ______ ____
ROOT
ATOM      1  C   UNL     1       1.651  -6.066  -0.800  0.00  0.00    +0.108 C 
ATOM      2  C   UNL     1       3.001  -6.274  -1.438  0.00  0.00    +0.049 A 
ATOM      3  C   UNL     1       3.326  -6.385  -2.735  0.00  0.00    +0.041 A 
ATOM      4  N   UNL     1       4.667  -6.560  -2.808  0.00  0.00    -0.278 N 
ATOM      5  H   UNL     1       5.183  -6.668  -3.621  0.00  0.00    +0.189 HD
ATOM      6  N   UNL     1       5.178  -6.555  -1.500  0.00  0.00    -0.135 NA
ATOM      7  C   UNL     1       4.185  -6.385  -0.677  0.00  0.00    +0.245 A 
ATOM      8  O   UNL     1       4.178  -6.315   0.681  0.00  0.00    -0.421 OA
ATOM      9  C   UNL     1       2.985  -6.406   1.302  0.00  0.00    +0.201 C 
ATOM     10  C   UNL     1       1.790  -6.304   0.682  0.00  0.00    +0.099 C 
ATOM     11  C   UNL     1       2.373  -6.327  -3.900  0.00  0.00    +0.065 C 
ENDROOT
BRANCH   1  15
ATOM     12  C   UNL     1       0.739  -2.004  -1.265  0.00  0.00    -0.010 A 
ATOM     13  C   UNL     1      -0.164  -2.867  -1.792  0.00  0.00    +0.011 A 
ATOM     14  C   UNL     1       0.064  -4.226  -1.681  0.00  0.00    +0.012 A 
ATOM     15  C   UNL     1       1.183  -4.656  -1.048  0.00  0.00    +0.003 A 
ATOM     16  S   UNL     1       1.962  -3.116  -0.590  0.00  0.00    -0.097 S 
BRANCH  12  17
ATOM     17  C   UNL     1       0.718  -0.497  -1.257  0.00  0.00    +0.042 C 
BRANCH  17  19
ATOM     18  C   UNL     1      -0.019   1.526   0.010  0.00  0.00    +0.004 C 
ATOM     19  C   UNL     1       0.002  -0.004   0.002  0.00  0.00    +0.002 C 
ENDBRANCH  17  19
ENDBRANCH  12  17
ENDBRANCH   1  15
BRANCH   9  20
ATOM     20  N   UNL     1       2.985  -6.618   2.658  0.00  0.00    -0.328 N 
ATOM     21  H   UNL     1       3.825  -6.696   3.137  0.00  0.00    +0.145 HD
ATOM     22  H   UNL     1       2.145  -6.689   3.138  0.00  0.00    +0.145 HD
ENDBRANCH   9  20
BRANCH  10  23
ATOM     23  C   UNL     1       0.599  -6.426   1.469  0.00  0.00    +0.101 C 
ATOM     24  N   UNL     1      -0.345  -6.522   2.093  0.00  0.00    -0.191 NA
ENDBRANCH  10  23
TORSDOF 5
