REMARK  Name = ZINC40333803
REMARK  5 active torsions:
REMARK  status: ('A' for Active; 'I' for Inactive)
REMARK    1  A    between atoms: C_1  and  C_2
REMARK    2  A    between atoms: C_4  and  N_23
REMARK    3  A    between atoms: C_6  and  S_8
REMARK    4  A    between atoms: S_8  and  N_11
REMARK    5  A    between atoms: C_15  and  C_17
REMARK                            x       y       z     vdW  Elec       q    Type
REMARK                         _______ _______ _______ _____ _____    ______ ____
ROOT
ATOM      1  S   UNL     1       0.056  -2.967   2.717  0.00  0.00    +0.061 S 
ATOM      2  O   UNL     1      -0.502  -2.101   3.696  0.00  0.00    -0.153 OA
ATOM      3  O   UNL     1      -0.479  -4.256   2.447  0.00  0.00    -0.153 OA
ENDROOT
BRANCH   1   9
ATOM      4  C   UNL     1      -0.018   1.503   0.010  0.00  0.00    +0.044 C 
ATOM      5  C   UNL     1       0.002  -0.004   0.002  0.00  0.00    -0.047 A 
ATOM      6  C   UNL     1       0.006  -0.687  -1.198  0.00  0.00    +0.026 A 
ATOM      7  C   UNL     1       0.025  -2.076  -1.205  0.00  0.00    +0.027 A 
ATOM      8  C   UNL     1       0.041  -2.773  -0.004  0.00  0.00    +0.051 A 
ATOM      9  C   UNL     1       0.037  -2.084   1.193  0.00  0.00    +0.107 A 
ATOM     10  C   UNL     1       0.023  -0.701   1.196  0.00  0.00    +0.032 A 
BRANCH   7  11
ATOM     11  N   UNL     1       0.028  -2.770  -2.417  0.00  0.00    -0.358 N 
ATOM     12  H   UNL     1       0.017  -2.282  -3.256  0.00  0.00    +0.142 HD
ATOM     13  H   UNL     1       0.042  -3.740  -2.421  0.00  0.00    +0.142 HD
ENDBRANCH   7  11
ENDBRANCH   1   9
BRANCH   1  14
ATOM     14  N   UNL     1       1.643  -3.191   3.134  0.00  0.00    -0.168 NA
ATOM     15  C   UNL     1       2.480  -4.341   2.744  0.00  0.00    +0.110 C 
ATOM     16  C   UNL     1       3.586  -4.411   3.825  0.00  0.00    +0.019 C 
ATOM     17  C   UNL     1       3.853  -2.907   4.097  0.00  0.00    +0.028 C 
ATOM     18  C   UNL     1       2.453  -2.273   3.948  0.00  0.00    +0.126 C 
BRANCH  18  19
ATOM     19  C   UNL     1       2.562  -0.938   3.259  0.00  0.00    +0.035 A 
ATOM     20  C   UNL     1       2.631  -0.738   1.927  0.00  0.00    +0.024 A 
ATOM     21  C   UNL     1       2.723   0.651   1.713  0.00  0.00    +0.019 A 
ATOM     22  C   UNL     1       2.708   1.248   2.922  0.00  0.00    +0.083 A 
ATOM     23  N   UNL     1       2.604   0.278   3.875  0.00  0.00    -0.363 N 
ATOM     24  H   UNL     1       2.567   0.428   4.832  0.00  0.00    +0.165 HD
ENDBRANCH  18  19
ENDBRANCH   1  14
TORSDOF 4
