REMARK  Name = ZINC24352171
REMARK  8 active torsions:
REMARK  status: ('A' for Active; 'I' for Inactive)
REMARK    1  A    between atoms: C_1  and  C_2
REMARK    2  A    between atoms: C_2  and  C_3
REMARK    3  A    between atoms: C_2  and  C_4
REMARK    4  A    between atoms: C_2  and  C_5
REMARK    5  A    between atoms: C_12  and  C_14
REMARK    6  A    between atoms: N_16  and  N_17
REMARK    7  A    between atoms: C_18  and  C_20
REMARK    8  A    between atoms: C_23  and  N_26
REMARK                            x       y       z     vdW  Elec       q    Type
REMARK                         _______ _______ _______ _____ _____    ______ ____
ROOT
ATOM      1  C   UNL     1      -0.014   1.213   0.009  0.00  0.00    +0.267 C 
ATOM      2  O   UNL     1       0.002  -0.004   0.002  0.00  0.00    -0.268 OA
ATOM      3  N   UNL     1      -1.191   1.871   0.018  0.00  0.00    -0.230 N 
ATOM      4  H   UNL     1      -1.206   2.971   0.024  0.00  0.00    +0.173 HD
ENDROOT
BRANCH   1  11
ATOM      5  C   UNL     1       5.886   3.191  -0.501  0.00  0.00    -0.001 C 
ATOM      6  C   UNL     1       5.558   4.422   0.349  0.00  0.00    +0.009 C 
ATOM      7  C   UNL     1       4.147   4.909  -0.011  0.00  0.00    +0.043 C 
ATOM      8  C   UNL     1       3.225   3.729  -0.009  0.00  0.00    -0.006 A 
ATOM      9  C   UNL     1       3.578   2.409  -0.020  0.00  0.00    -0.036 A 
ATOM     10  C   UNL     1       2.543   1.487  -0.014  0.00  0.00    +0.024 A 
ATOM     11  C   UNL     1       1.245   1.963   0.001  0.00  0.00    +0.076 A 
ATOM     12  S   UNL     1       1.503   3.729  -0.000  0.00  0.00    -0.088 S 
ATOM     13  C   UNL     1       5.048   1.999  -0.037  0.00  0.00    +0.040 C 
BRANCH   5  15
ATOM     14  C   UNL     1       7.703   1.632  -1.214  0.00  0.00    +0.011 C 
ATOM     15  C   UNL     1       7.371   2.854  -0.356  0.00  0.00    -0.035 C 
ATOM     16  C   UNL     1       8.212   4.046  -0.820  0.00  0.00    +0.011 C 
ATOM     17  C   UNL     1       7.685   2.549   1.110  0.00  0.00    +0.011 C 
ENDBRANCH   5  15
ENDBRANCH   1  11
BRANCH   3  18
ATOM     18  N   UNL     1      -2.394   1.154   0.020  0.00  0.00    -0.230 N 
ATOM     19  C   UNL     1      -3.571   1.812   0.029  0.00  0.00    +0.260 C 
ATOM     20  O   UNL     1      -3.587   3.028   0.035  0.00  0.00    -0.269 OA
ATOM     21  H   UNL     1      -2.379   0.054   0.014  0.00  0.00    +0.173 HD
BRANCH  19  22
ATOM     22  C   UNL     1      -4.838   1.057   0.031  0.00  0.00    +0.038 A 
ATOM     23  C   UNL     1      -4.821  -0.341   0.017  0.00  0.00    +0.015 A 
ATOM     24  C   UNL     1      -6.005  -1.042   0.026  0.00  0.00    +0.025 A 
ATOM     25  C   UNL     1      -7.219  -0.361   0.035  0.00  0.00    +0.051 A 
ATOM     26  C   UNL     1      -7.239   1.031   0.042  0.00  0.00    +0.025 A 
ATOM     27  C   UNL     1      -6.059   1.738   0.040  0.00  0.00    +0.015 A 
BRANCH  25  28
ATOM     28  N   UNL     1      -8.413  -1.073   0.037  0.00  0.00    -0.207 N 
ATOM     29  C   UNL     1      -9.718  -0.616   0.549  0.00  0.00    +0.133 C 
ATOM     30  C   UNL     1     -10.872  -1.286  -0.225  0.00  0.00    +0.045 C 
ATOM     31  C   UNL     1     -10.481  -2.793  -0.303  0.00  0.00    +0.190 C 
ATOM     32  S   UNL     1      -8.664  -2.628  -0.535  0.00  0.00    +0.046 S 
ATOM     33  O   UNL     1      -8.334  -2.582  -1.916  0.00  0.00    -0.155 OA
ATOM     34  O   UNL     1      -7.963  -3.480   0.361  0.00  0.00    -0.155 OA
ENDBRANCH  25  28
ENDBRANCH  19  22
ENDBRANCH   3  18
TORSDOF 5
