REMARK  Name = ZINC20018828
REMARK  7 active torsions:
REMARK  status: ('A' for Active; 'I' for Inactive)
REMARK    1  A    between atoms: C_1  and  O_2
REMARK    2  A    between atoms: O_2  and  C_3
REMARK    3  A    between atoms: C_6  and  N_9
REMARK    4  A    between atoms: N_12  and  C_15
REMARK    5  A    between atoms: C_15  and  C_16
REMARK    6  A    between atoms: N_22  and  C_23
REMARK    7  A    between atoms: N_22  and  C_29
REMARK                            x       y       z     vdW  Elec       q    Type
REMARK                         _______ _______ _______ _____ _____    ______ ____
ROOT
ATOM      1  C   UNL     1       5.673  -5.512  -6.625  0.00  0.00    +0.127 A 
ATOM      2  N   UNL     1       5.822  -6.490  -5.749  0.00  0.00    -0.200 NA
ATOM      3  C   UNL     1       5.857  -7.756  -6.160  0.00  0.00    +0.217 A 
ATOM      4  N   UNL     1       5.740  -8.034  -7.454  0.00  0.00    -0.182 NA
ATOM      5  C   UNL     1       5.590  -7.048  -8.332  0.00  0.00    +0.209 A 
ATOM      6  N   UNL     1       5.551  -5.786  -7.912  0.00  0.00    -0.314 N 
ATOM      7  N   UNL     1       5.468  -7.334  -9.680  0.00  0.00    -0.240 N 
ATOM      8  N   UNL     1       6.014  -8.776  -5.245  0.00  0.00    -0.327 N 
ATOM      9  H   UNL     1       6.099  -8.572  -4.301  0.00  0.00    +0.145 HD
ATOM     10  H   UNL     1       6.039  -9.698  -5.546  0.00  0.00    +0.145 HD
ATOM     11  H   UNL     1       5.438  -5.066  -8.551  0.00  0.00    +0.170 HD
ENDROOT
BRANCH   7  12
ATOM     12  C   UNL     1       5.375  -8.662 -10.108  0.00  0.00    +0.041 A 
ATOM     13  C   UNL     1       4.268  -9.428  -9.765  0.00  0.00    +0.024 A 
ATOM     14  C   UNL     1       4.179 -10.739 -10.189  0.00  0.00    +0.002 A 
ATOM     15  C   UNL     1       5.190 -11.290 -10.955  0.00  0.00    +0.000 A 
ATOM     16  C   UNL     1       6.293 -10.531 -11.298  0.00  0.00    +0.002 A 
ATOM     17  C   UNL     1       6.386  -9.217 -10.882  0.00  0.00    +0.024 A 
ENDBRANCH   7  12
BRANCH   7  18
ATOM     18  C   UNL     1       5.439  -6.293 -10.615  0.00  0.00    +0.041 A 
ATOM     19  C   UNL     1       6.490  -5.388 -10.682  0.00  0.00    +0.024 A 
ATOM     20  C   UNL     1       6.458  -4.362 -11.607  0.00  0.00    +0.002 A 
ATOM     21  C   UNL     1       5.381  -4.236 -12.465  0.00  0.00    +0.000 A 
ATOM     22  C   UNL     1       4.332  -5.136 -12.400  0.00  0.00    +0.002 A 
ATOM     23  C   UNL     1       4.361  -6.167 -11.482  0.00  0.00    +0.024 A 
ENDBRANCH   7  18
BRANCH   1  24
ATOM     24  C   UNL     1       5.634  -4.081  -6.154  0.00  0.00    +0.158 C 
BRANCH  24  28
ATOM     25  N   UNL     1       2.162  -2.814  -4.164  0.00  0.00    -0.327 N 
ATOM     26  C   UNL     1       2.662  -1.955  -5.249  0.00  0.00    +0.120 C 
ATOM     27  C   UNL     1       4.135  -2.296  -5.500  0.00  0.00    +0.104 C 
ATOM     28  N   UNL     1       4.266  -3.739  -5.740  0.00  0.00    -0.292 NA
ATOM     29  C   UNL     1       3.865  -4.514  -4.559  0.00  0.00    +0.104 C 
ATOM     30  C   UNL     1       2.386  -4.264  -4.266  0.00  0.00    +0.120 C 
BRANCH  25  34
ATOM     31  C   UNL     1       0.182  -1.179  -0.881  0.00  0.00    +0.120 A 
ATOM     32  C   UNL     1       0.273  -2.556  -1.021  0.00  0.00    +0.047 A 
ATOM     33  C   UNL     1       0.929  -3.099  -2.108  0.00  0.00    +0.027 A 
ATOM     34  C   UNL     1       1.497  -2.265  -3.062  0.00  0.00    +0.030 A 
ATOM     35  C   UNL     1       1.405  -0.886  -2.922  0.00  0.00    +0.027 A 
ATOM     36  C   UNL     1       0.744  -0.346  -1.837  0.00  0.00    +0.047 A 
BRANCH  31  38
ATOM     37  C   UNL     1      -1.020  -1.562   1.135  0.00  0.00    +0.277 C 
ATOM     38  O   UNL     1      -0.465  -0.645   0.190  0.00  0.00    -0.495 OA
ENDBRANCH  31  38
ENDBRANCH  25  34
ENDBRANCH  24  28
ENDBRANCH   1  24
TORSDOF 6
