REMARK  Name = ZINC21520850
REMARK  8 active torsions:
REMARK  status: ('A' for Active; 'I' for Inactive)
REMARK    1  A    between atoms: C_1  and  C_2
REMARK    2  A    between atoms: C_5  and  N_9
REMARK    3  A    between atoms: C_7  and  C_8
REMARK    4  A    between atoms: N_9  and  S_10
REMARK    5  A    between atoms: S_10  and  C_13
REMARK    6  A    between atoms: C_15  and  C_21
REMARK    7  A    between atoms: C_16  and  C_20
REMARK    8  A    between atoms: C_17  and  N_19
REMARK                            x       y       z     vdW  Elec       q    Type
REMARK                         _______ _______ _______ _____ _____    ______ ____
ROOT
ATOM      1  S   UNL     1      -1.501   3.271   1.126  0.00  0.00    +0.072 S 
ATOM      2  O   UNL     1      -2.842   3.719   0.992  0.00  0.00    -0.150 OA
ATOM      3  O   UNL     1      -0.987   2.757   2.347  0.00  0.00    -0.150 OA
ENDROOT
BRANCH   1   4
ATOM      4  C   UNL     1      -0.470   4.628   0.677  0.00  0.00    +0.110 A 
ATOM      5  C   UNL     1       0.843   4.671   1.111  0.00  0.00    +0.032 A 
ATOM      6  C   UNL     1       1.657   5.731   0.757  0.00  0.00    -0.044 A 
ATOM      7  C   UNL     1       1.158   6.757  -0.022  0.00  0.00    -0.027 A 
ATOM      8  C   UNL     1      -0.162   6.720  -0.454  0.00  0.00    +0.030 A 
ATOM      9  C   UNL     1      -0.975   5.650  -0.101  0.00  0.00    +0.051 A 
ATOM     10  C   UNL     1       2.044   7.915  -0.403  0.00  0.00    +0.046 C 
ATOM     11  C   UNL     1       3.088   5.770   1.226  0.00  0.00    +0.044 C 
BRANCH   8  12
ATOM     12  N   UNL     1      -0.670   7.756  -1.241  0.00  0.00    -0.358 N 
ATOM     13  H   UNL     1      -1.715   7.725  -1.583  0.00  0.00    +0.142 HD
ATOM     14  H   UNL     1      -0.025   8.602  -1.520  0.00  0.00    +0.142 HD
ENDBRANCH   8  12
ENDBRANCH   1   4
BRANCH   1  15
ATOM     15  N   UNL     1      -1.280   2.091  -0.015  0.00  0.00    -0.216 N 
ATOM     16  H   UNL     1      -2.119   1.782  -0.656  0.00  0.00    +0.174 HD
BRANCH  15  21
ATOM     17  C   UNL     1       3.791  -0.373  -0.623  0.00  0.00    +0.044 C 
ATOM     18  C   UNL     1       2.444   0.283  -0.461  0.00  0.00    -0.047 A 
ATOM     19  C   UNL     1       2.008   1.204  -1.396  0.00  0.00    +0.005 A 
ATOM     20  C   UNL     1       0.774   1.807  -1.250  0.00  0.00    +0.025 A 
ATOM     21  C   UNL     1      -0.029   1.488  -0.162  0.00  0.00    +0.048 A 
ATOM     22  C   UNL     1       0.412   0.563   0.775  0.00  0.00    +0.028 A 
ATOM     23  C   UNL     1       1.648  -0.037   0.623  0.00  0.00    -0.046 A 
ATOM     24  C   UNL     1       2.127  -1.040   1.640  0.00  0.00    +0.044 C 
ENDBRANCH  15  21
ENDBRANCH   1  15
TORSDOF 4
