REMARK  Name = ZINC00903771
REMARK  9 active torsions:
REMARK  status: ('A' for Active; 'I' for Inactive)
REMARK    1  A    between atoms: C_6  and  C_7
REMARK    2  A    between atoms: N_10  and  C_12
REMARK    3  A    between atoms: C_12  and  C_13
REMARK    4  A    between atoms: N_15  and  C_16
REMARK    5  A    between atoms: N_15  and  C_23
REMARK    6  A    between atoms: C_23  and  C_25
REMARK    7  A    between atoms: C_23  and  C_32
REMARK    8  A    between atoms: N_34  and  C_35
REMARK    9  A    between atoms: C_35  and  C_36
REMARK                            x       y       z     vdW  Elec       q    Type
REMARK                         _______ _______ _______ _____ _____    ______ ____
ROOT
ATOM      1  C   UNL     1      -3.135  -4.372  -1.561  0.00  0.00    +0.244 C 
ATOM      2  O   UNL     1      -3.166  -3.516  -2.419  0.00  0.00    -0.273 OA
ATOM      3  N   UNL     1      -3.643  -5.595  -1.811  0.00  0.00    -0.254 N 
ENDROOT
BRANCH   3   4
ATOM      4  C   UNL     1      -3.703  -6.551  -0.790  0.00  0.00    +0.038 A 
ATOM      5  C   UNL     1      -2.876  -7.665  -0.831  0.00  0.00    +0.025 A 
ATOM      6  C   UNL     1      -2.936  -8.607   0.178  0.00  0.00    +0.022 A 
ATOM      7  C   UNL     1      -3.820  -8.439   1.229  0.00  0.00    +0.041 A 
ATOM      8  C   UNL     1      -4.645  -7.329   1.273  0.00  0.00    +0.022 A 
ATOM      9  C   UNL     1      -4.585  -6.382   0.270  0.00  0.00    +0.025 A 
ATOM     10 CL   UNL     1      -3.894  -9.624   2.496  0.00  0.00    -0.084 Cl
ENDBRANCH   3   4
BRANCH   1  11
ATOM     11  C   UNL     1      -2.530  -4.069  -0.215  0.00  0.00    +0.264 C 
BRANCH  11  15
ATOM     12  C   UNL     1      -0.565  -1.148  -0.463  0.00  0.00    +0.205 A 
ATOM     13  N   UNL     1      -1.740  -0.648  -0.054  0.00  0.00    -0.108 NA
ATOM     14  N   UNL     1      -2.555  -1.639   0.074  0.00  0.00    -0.045 NA
ATOM     15  N   UNL     1      -1.940  -2.728  -0.236  0.00  0.00    -0.154 N 
ATOM     16  N   UNL     1      -0.727  -2.452  -0.571  0.00  0.00    -0.130 NA
BRANCH  12  22
ATOM     17  C   UNL     1       0.693   1.002  -0.583  0.00  0.00    +0.013 A 
ATOM     18  C   UNL     1       1.849   1.710  -0.846  0.00  0.00    +0.021 A 
ATOM     19  C   UNL     1       2.988   1.047  -1.268  0.00  0.00    +0.041 A 
ATOM     20  C   UNL     1       2.974  -0.328  -1.431  0.00  0.00    +0.021 A 
ATOM     21  C   UNL     1       1.824  -1.044  -1.171  0.00  0.00    +0.013 A 
ATOM     22  C   UNL     1       0.675  -0.382  -0.744  0.00  0.00    +0.023 A 
ATOM     23 CL   UNL     1       4.438   1.942  -1.597  0.00  0.00    -0.084 Cl
ENDBRANCH  12  22
ENDBRANCH  11  15
ENDBRANCH   1  11
BRANCH   3  24
ATOM     24  C   UNL     1      -4.133  -5.925  -3.152  0.00  0.00    +0.197 C 
BRANCH  24  25
ATOM     25  C   UNL     1      -4.508  -7.384  -3.205  0.00  0.00    -0.018 A 
ATOM     26  C   UNL     1      -5.458  -7.885  -2.335  0.00  0.00    +0.009 A 
ATOM     27  C   UNL     1      -5.803  -9.223  -2.384  0.00  0.00    +0.038 A 
ATOM     28  C   UNL     1      -5.196 -10.060  -3.304  0.00  0.00    +0.123 A 
ATOM     29  C   UNL     1      -4.244  -9.557  -4.175  0.00  0.00    +0.038 A 
ATOM     30  C   UNL     1      -3.905  -8.218  -4.128  0.00  0.00    +0.009 A 
ATOM     31  F   UNL     1      -5.532 -11.368  -3.352  0.00  0.00    -0.205 F 
ENDBRANCH  24  25
BRANCH  24  32
ATOM     32  C   UNL     1      -5.343  -5.084  -3.465  0.00  0.00    +0.239 C 
ATOM     33  O   UNL     1      -5.756  -4.287  -2.649  0.00  0.00    -0.273 OA
ATOM     34  N   UNL     1      -5.967  -5.216  -4.653  0.00  0.00    -0.311 N 
ATOM     35  H   UNL     1      -5.637  -5.854  -5.305  0.00  0.00    +0.149 HD
BRANCH  34  36
ATOM     36  C   UNL     1      -7.144  -4.399  -4.957  0.00  0.00    +0.135 C 
BRANCH  36  37
ATOM     37  C   UNL     1      -7.655  -4.743  -6.358  0.00  0.00    +0.135 C 
ATOM     38  C   UNL     1      -8.880  -3.863  -6.714  0.00  0.00    +0.035 C 
ATOM     39  C   UNL     1      -8.815  -3.881  -8.266  0.00  0.00    +0.031 C 
ATOM     40  C   UNL     1      -7.294  -3.921  -8.529  0.00  0.00    +0.160 C 
ATOM     41  O   UNL     1      -6.662  -4.423  -7.344  0.00  0.00    -0.375 OA
ENDBRANCH  36  37
ENDBRANCH  34  36
ENDBRANCH  24  32
ENDBRANCH   3  24
TORSDOF 9
