REMARK  Name = ZINC13132295
REMARK  2 active torsions:
REMARK  status: ('A' for Active; 'I' for Inactive)
REMARK    1  A    between atoms: C_5  and  C_7
REMARK    2  A    between atoms: C_10  and  C_19
REMARK                            x       y       z     vdW  Elec       q    Type
REMARK                         _______ _______ _______ _____ _____    ______ ____
ROOT
ATOM      1  C   UNL     1       1.229  -2.186  -0.022  0.00  0.00    +0.144 C 
ATOM      2  C   UNL     1       0.495  -2.703  -1.265  0.00  0.00    +0.059 C 
ATOM      3  C   UNL     1       0.271  -4.214  -1.144  0.00  0.00    +0.106 C 
ATOM      4  N   UNL     1      -0.591  -4.470   0.026  0.00  0.00    -0.307 N 
ATOM      5  C   UNL     1      -0.293  -3.752   1.177  0.00  0.00    +0.216 A 
ATOM      6  N   UNL     1       0.553  -2.692   1.173  0.00  0.00    -0.224 N 
ATOM      7  N   UNL     1       0.620  -2.226   2.486  0.00  0.00    -0.132 NA
ATOM      8  C   UNL     1      -0.164  -3.001   3.204  0.00  0.00    +0.233 A 
ATOM      9  N   UNL     1      -0.720  -3.926   2.400  0.00  0.00    -0.180 NA
ATOM     10  N   UNL     1      -0.386  -2.880   4.576  0.00  0.00    -0.326 N 
ATOM     11  H   UNL     1      -1.325  -5.104  -0.007  0.00  0.00    +0.149 HD
ATOM     12  H   UNL     1       0.057  -2.178   5.079  0.00  0.00    +0.145 HD
ATOM     13  H   UNL     1      -0.982  -3.498   5.027  0.00  0.00    +0.145 HD
ENDROOT
BRANCH   1  18
ATOM     14  C   UNL     1      -0.017   1.378   0.010  0.00  0.00    +0.000 A 
ATOM     15  C   UNL     1       1.171   2.086   0.002  0.00  0.00    +0.001 A 
ATOM     16  C   UNL     1       2.377   1.412  -0.013  0.00  0.00    +0.020 A 
ATOM     17  C   UNL     1       2.397   0.029  -0.021  0.00  0.00    +0.046 A 
ATOM     18  C   UNL     1       1.208  -0.679  -0.013  0.00  0.00    -0.005 A 
ATOM     19  C   UNL     1       0.002  -0.004   0.002  0.00  0.00    +0.007 A 
ATOM     20 CL   UNL     1       3.912  -0.818  -0.041  0.00  0.00    -0.083 Cl
ENDBRANCH   1  18
BRANCH   3  21
ATOM     21  C   UNL     1      -0.398  -4.729  -2.392  0.00  0.00    -0.027 A 
ATOM     22  C   UNL     1      -1.761  -4.572  -2.560  0.00  0.00    +0.008 A 
ATOM     23  C   UNL     1      -2.376  -5.043  -3.704  0.00  0.00    +0.038 A 
ATOM     24  C   UNL     1      -1.626  -5.672  -4.683  0.00  0.00    +0.123 A 
ATOM     25  C   UNL     1      -0.261  -5.829  -4.514  0.00  0.00    +0.038 A 
ATOM     26  C   UNL     1       0.352  -5.353  -3.371  0.00  0.00    +0.008 A 
ATOM     27  F   UNL     1      -2.226  -6.134  -5.802  0.00  0.00    -0.205 F 
ENDBRANCH   3  21
TORSDOF 2
