REMARK  Name = ZINC64774523
REMARK  11 active torsions:
REMARK  status: ('A' for Active; 'I' for Inactive)
REMARK    1  A    between atoms: C_1  and  C_2
REMARK    2  A    between atoms: C_4  and  C_34
REMARK    3  A    between atoms: C_5  and  N_30
REMARK    4  A    between atoms: C_6  and  C_8
REMARK    5  A    between atoms: C_12  and  S_15
REMARK    6  A    between atoms: S_15  and  C_16
REMARK    7  A    between atoms: C_16  and  C_18
REMARK    8  A    between atoms: C_16  and  C_19
REMARK    9  A    between atoms: N_21  and  C_22
REMARK   10  A    between atoms: C_27  and  C_28
REMARK   11  A    between atoms: C_31  and  C_33
REMARK                            x       y       z     vdW  Elec       q    Type
REMARK                         _______ _______ _______ _____ _____    ______ ____
ROOT
ATOM      1  C   UNL     1       0.721  -3.369   1.846  0.00  0.00    +0.161 A 
ATOM      2  C   UNL     1       1.043  -3.014   3.169  0.00  0.00    +0.300 A 
ATOM      3  O   UNL     1       1.063  -1.715   3.552  0.00  0.00    -0.263 OA
ATOM      4  N   UNL     1       1.327  -3.980   4.034  0.00  0.00    -0.180 NA
ATOM      5  C   UNL     1       1.300  -5.246   3.631  0.00  0.00    +0.213 A 
ATOM      6  N   UNL     1       0.994  -5.559   2.378  0.00  0.00    -0.122 NA
ATOM      7  N   UNL     1       0.707  -4.654   1.509  0.00  0.00    -0.141 NA
ENDROOT
BRANCH   1  13
ATOM      8  C   UNL     1       1.734   1.024  -0.294  0.00  0.00    +0.044 C 
ATOM      9  C   UNL     1       0.878  -0.212  -0.187  0.00  0.00    -0.049 A 
ATOM     10  C   UNL     1      -0.212  -0.371  -1.025  0.00  0.00    +0.008 A 
ATOM     11  C   UNL     1      -1.002  -1.500  -0.936  0.00  0.00    -0.028 A 
ATOM     12  C   UNL     1      -0.706  -2.483  -0.003  0.00  0.00    +0.046 A 
ATOM     13  C   UNL     1       0.396  -2.326   0.846  0.00  0.00    +0.029 A 
ATOM     14  C   UNL     1       1.189  -1.184   0.742  0.00  0.00    +0.015 A 
ATOM     15  C   UNL     1      -2.187  -1.665  -1.852  0.00  0.00    +0.046 C 
BRANCH  12  16
ATOM     16  N   UNL     1      -1.505  -3.626   0.090  0.00  0.00    -0.285 N 
ATOM     17  C   UNL     1      -1.867  -4.099   1.299  0.00  0.00    +0.214 C 
ATOM     18  O   UNL     1      -1.548  -3.501   2.305  0.00  0.00    -0.276 OA
ATOM     19  C   UNL     1      -2.669  -5.371   1.401  0.00  0.00    +0.109 C 
ATOM     20  H   UNL     1      -1.799  -4.079  -0.716  0.00  0.00    +0.155 HD
ENDBRANCH  12  16
ENDBRANCH   1  13
BRANCH   5  21
ATOM     21  S   UNL     1       1.678  -6.529   4.778  0.00  0.00    -0.072 S 
BRANCH  21  22
ATOM     22  C   UNL     1       1.517  -8.051   3.803  0.00  0.00    +0.137 C 
ATOM     23  C   UNL     1       0.061  -8.226   3.367  0.00  0.00    +0.029 C 
BRANCH  22  24
ATOM     24  C   UNL     1       1.936  -9.231   4.641  0.00  0.00    +0.230 C 
ATOM     25  O   UNL     1       1.870  -9.170   5.850  0.00  0.00    -0.274 OA
ATOM     26  N   UNL     1       2.385 -10.354   4.046  0.00  0.00    -0.284 N 
ATOM     27  H   UNL     1       2.363 -10.433   3.080  0.00  0.00    +0.155 HD
BRANCH  26  28
ATOM     28  C   UNL     1       2.882 -11.408   4.824  0.00  0.00    +0.037 A 
ATOM     29  C   UNL     1       3.362 -11.161   6.103  0.00  0.00    +0.026 A 
ATOM     30  C   UNL     1       3.852 -12.201   6.868  0.00  0.00    +0.040 A 
ATOM     31  C   UNL     1       3.865 -13.489   6.360  0.00  0.00    +0.124 A 
ATOM     32  C   UNL     1       3.387 -13.737   5.085  0.00  0.00    +0.043 A 
ATOM     33  C   UNL     1       2.890 -12.701   4.318  0.00  0.00    -0.027 A 
ATOM     34  C   UNL     1       2.364 -12.972   2.933  0.00  0.00    +0.046 C 
ATOM     35  F   UNL     1       4.346 -14.505   7.110  0.00  0.00    -0.205 F 
ENDBRANCH  26  28
ENDBRANCH  22  24
ENDBRANCH  21  22
ENDBRANCH   5  21
TORSDOF 6
