REMARK  Name = ZINC38994919
REMARK  6 active torsions:
REMARK  status: ('A' for Active; 'I' for Inactive)
REMARK    1  A    between atoms: C_4  and  C_7
REMARK    2  A    between atoms: C_9  and  C_13
REMARK    3  A    between atoms: C_17  and  S_21
REMARK    4  A    between atoms: N_19  and  N_20
REMARK    5  A    between atoms: S_21  and  C_22
REMARK    6  A    between atoms: C_22  and  C_23
REMARK                            x       y       z     vdW  Elec       q    Type
REMARK                         _______ _______ _______ _____ _____    ______ ____
ROOT
ATOM      1  C   UNL     1       5.782  -3.012   1.181  0.00  0.00    +0.185 C 
ATOM      2  N   UNL     1       5.180  -4.371   1.200  0.00  0.00    -0.234 NA
ATOM      3  N   UNL     1       6.106  -5.133   2.051  0.00  0.00    -0.228 NA
ATOM      4  C   UNL     1       7.447  -4.615   1.695  0.00  0.00    +0.214 C 
ATOM      5  N   UNL     1       7.242  -3.258   1.143  0.00  0.00    -0.197 NA
ATOM      6  H   UNL     1       5.139  -4.761   0.270  0.00  0.00    +0.143 HD
ATOM      7  H   UNL     1       6.039  -6.122   1.863  0.00  0.00    +0.143 HD
ENDROOT
BRANCH   1  10
ATOM      8  C   UNL     1       3.699  -0.689  -0.037  0.00  0.00    +0.091 C 
ATOM      9  C   UNL     1       3.832  -2.029  -0.051  0.00  0.00    +0.034 C 
ATOM     10  C   UNL     1       5.335  -2.245  -0.065  0.00  0.00    +0.187 C 
ATOM     11  N   UNL     1       5.871  -0.874  -0.056  0.00  0.00    -0.176 NA
ATOM     12  N   UNL     1       4.919  -0.090  -0.047  0.00  0.00    -0.154 NA
BRANCH   8  16
ATOM     13  C   UNL     1      -0.017   1.379   0.010  0.00  0.00    +0.000 A 
ATOM     14  C   UNL     1       1.169   2.092   0.002  0.00  0.00    +0.001 A 
ATOM     15  C   UNL     1       2.377   1.426  -0.013  0.00  0.00    +0.010 A 
ATOM     16  C   UNL     1       2.402   0.033  -0.021  0.00  0.00    +0.002 A 
ATOM     17  C   UNL     1       1.205  -0.680  -0.013  0.00  0.00    +0.010 A 
ATOM     18  C   UNL     1       0.002  -0.004   0.002  0.00  0.00    +0.001 A 
ENDBRANCH   8  16
ENDBRANCH   1  10
BRANCH   5  19
ATOM     19  N   UNL     1       7.750  -3.167  -0.217  0.00  0.00    -0.264 NA
ATOM     20  H   UNL     1       8.744  -3.335  -0.243  0.00  0.00    +0.137 HD
ATOM     21  H   UNL     1       7.260  -3.802  -0.829  0.00  0.00    +0.137 HD
ENDBRANCH   5  19
BRANCH   4  22
ATOM     22  S   UNL     1       8.494  -4.531   3.174  0.00  0.00    -0.119 S 
BRANCH  22  23
ATOM     23  C   UNL     1       7.582  -3.435   4.295  0.00  0.00    +0.107 C 
BRANCH  23  24
ATOM     24  C   UNL     1       8.353  -3.278   5.581  0.00  0.00    -0.030 A 
ATOM     25  C   UNL     1       8.144  -4.140   6.614  0.00  0.00    +0.005 A 
ATOM     26  C   UNL     1       8.847  -4.010   7.809  0.00  0.00    +0.001 A 
ATOM     27  C   UNL     1       9.763  -3.017   7.980  0.00  0.00    +0.008 A 
ATOM     28  C   UNL     1      10.006  -2.109   6.936  0.00  0.00    -0.018 A 
ATOM     29  C   UNL     1       9.295  -2.244   5.717  0.00  0.00    -0.014 A 
ATOM     30  C   UNL     1       9.542  -1.339   4.671  0.00  0.00    +0.009 A 
ATOM     31  C   UNL     1      10.462  -0.350   4.840  0.00  0.00    +0.001 A 
ATOM     32  C   UNL     1      11.165  -0.221   6.036  0.00  0.00    +0.001 A 
ATOM     33  C   UNL     1      10.943  -1.071   7.075  0.00  0.00    +0.008 A 
ENDBRANCH  23  24
ENDBRANCH  22  23
ENDBRANCH   4  22
TORSDOF 6
