REMARK  Name = ZINC27550433
REMARK  8 active torsions:
REMARK  status: ('A' for Active; 'I' for Inactive)
REMARK    1  A    between atoms: C_1  and  C_2
REMARK    2  A    between atoms: C_4  and  C_9
REMARK    3  A    between atoms: C_5  and  S_7
REMARK    4  A    between atoms: S_7  and  C_8
REMARK    5  A    between atoms: C_11  and  C_32
REMARK    6  A    between atoms: C_12  and  N_31
REMARK    7  A    between atoms: N_13  and  C_21
REMARK    8  A    between atoms: C_24  and  N_28
REMARK                            x       y       z     vdW  Elec       q    Type
REMARK                         _______ _______ _______ _____ _____    ______ ____
ROOT
ATOM      1  C   UNL     1      -5.187   1.043   0.035  0.00  0.00    +0.099 C 
ATOM      2  C   UNL     1      -4.349   1.030  -1.210  0.00  0.00    +0.077 C 
ATOM      3  C   UNL     1      -3.031   1.356  -1.172  0.00  0.00    +0.107 C 
ATOM      4  N   UNL     1      -2.438   1.697   0.023  0.00  0.00    -0.259 N 
ATOM      5  C   UNL     1      -3.014   1.339   1.213  0.00  0.00    +0.025 C 
ATOM      6  C   UNL     1      -4.325   1.015   1.272  0.00  0.00    +0.025 C 
ATOM      7  C   UNL     1      -4.923   0.636   2.486  0.00  0.00    +0.162 C 
ATOM      8  O   UNL     1      -6.105   0.353   2.506  0.00  0.00    -0.292 OA
ATOM      9  C   UNL     1      -4.120   0.559   3.761  0.00  0.00    +0.080 C 
ATOM     10  C   UNL     1      -2.658   0.254   3.419  0.00  0.00    +0.014 C 
ATOM     11  C   UNL     1      -2.152   1.327   2.452  0.00  0.00    +0.052 C 
ENDROOT
BRANCH   4  12
ATOM     12  C   UNL     1      -1.234   2.411   0.021  0.00  0.00    +0.058 A 
ATOM     13  C   UNL     1      -1.248   3.800   0.033  0.00  0.00    +0.027 A 
ATOM     14  C   UNL     1      -0.058   4.501   0.025  0.00  0.00    +0.034 A 
ATOM     15  C   UNL     1       1.147   3.823   0.011  0.00  0.00    +0.128 A 
ATOM     16  C   UNL     1       1.165   2.440   0.004  0.00  0.00    +0.054 A 
ATOM     17  C   UNL     1      -0.021   1.732   0.012  0.00  0.00    +0.065 A 
ATOM     18 CL   UNL     1       0.002  -0.004   0.002  0.00  0.00    -0.082 Cl
BRANCH  15  19
ATOM     19  N   UNL     1       2.420   4.578   0.003  0.00  0.00    +0.056 N 
ATOM     20  O   UNL     1       3.482   3.982  -0.010  0.00  0.00    -0.126 OA
ATOM     21  O   UNL     1       2.405   5.796   0.009  0.00  0.00    -0.126 OA
ENDBRANCH  15  19
ENDBRANCH   4  12
BRANCH   1  25
ATOM     22  C   UNL     1      -5.825   6.096   0.041  0.00  0.00    +0.051 C 
ATOM     23  C   UNL     1      -6.227   4.643   0.050  0.00  0.00    -0.012 A 
ATOM     24  C   UNL     1      -5.439   3.542   0.042  0.00  0.00    +0.016 A 
ATOM     25  C   UNL     1      -6.031   2.291   0.050  0.00  0.00    -0.014 A 
ATOM     26  C   UNL     1      -7.391   2.209   0.078  0.00  0.00    +0.049 A 
ATOM     27  S   UNL     1      -7.864   3.931   0.085  0.00  0.00    -0.087 S 
BRANCH  26  28
ATOM     28  S   UNL     1      -8.417   0.777   0.101  0.00  0.00    -0.121 S 
ATOM     29  C   UNL     1     -10.103   1.445   0.134  0.00  0.00    +0.090 C 
ENDBRANCH  26  28
ENDBRANCH   1  25
BRANCH   3  30
ATOM     30  N   UNL     1      -2.288   1.343  -2.328  0.00  0.00    -0.345 N 
ATOM     31  H   UNL     1      -1.220   1.607  -2.298  0.00  0.00    +0.144 HD
ATOM     32  H   UNL     1      -2.761   1.070  -3.283  0.00  0.00    +0.144 HD
ENDBRANCH   3  30
BRANCH   2  33
ATOM     33  C   UNL     1      -4.950   0.670  -2.459  0.00  0.00    +0.099 C 
ATOM     34  N   UNL     1      -5.426   0.384  -3.450  0.00  0.00    -0.191 NA
ENDBRANCH   2  33
TORSDOF 6
