REMARK  Name = ZINC13632786
REMARK  15 active torsions:
REMARK  status: ('A' for Active; 'I' for Inactive)
REMARK    1  A    between atoms: C_1  and  C_2
REMARK    2  A    between atoms: C_2  and  C_3
REMARK    3  A    between atoms: C_2  and  C_4
REMARK    4  A    between atoms: C_2  and  C_5
REMARK    5  A    between atoms: C_8  and  C_11
REMARK    6  A    between atoms: N_13  and  C_14
REMARK    7  A    between atoms: C_17  and  N_20
REMARK    8  A    between atoms: N_20  and  C_21
REMARK    9  A    between atoms: C_21  and  N_23
REMARK   10  A    between atoms: C_24  and  C_26
REMARK   11  A    between atoms: C_27  and  C_28
REMARK   12  A    between atoms: C_31  and  O_36
REMARK   13  A    between atoms: C_32  and  O_34
REMARK   14  A    between atoms: O_34  and  C_35
REMARK   15  A    between atoms: O_36  and  C_37
REMARK                            x       y       z     vdW  Elec       q    Type
REMARK                         _______ _______ _______ _____ _____    ______ ____
ROOT
ATOM      1  C   UNL     1       1.133   2.095  -0.059  0.00  0.00    +0.034 A 
ATOM      2  C   UNL     1       2.304   1.519  -0.535  0.00  0.00    +0.025 A 
ATOM      3  C   UNL     1       3.492   2.219  -0.472  0.00  0.00    +0.025 A 
ATOM      4  C   UNL     1       3.519   3.494   0.078  0.00  0.00    +0.033 A 
ATOM      5  C   UNL     1       2.350   4.067   0.559  0.00  0.00    +0.025 A 
ATOM      6  C   UNL     1       1.160   3.370   0.491  0.00  0.00    +0.025 A 
ENDROOT
BRANCH   1   9
ATOM      7  C   UNL     1      -1.225   2.041  -0.377  0.00  0.00    +0.248 C 
ATOM      8  O   UNL     1      -1.224   3.252  -0.488  0.00  0.00    -0.270 OA
ATOM      9  N   UNL     1      -0.073   1.387  -0.128  0.00  0.00    -0.282 N 
ATOM     10  H   UNL     1      -0.080   0.427   0.008  0.00  0.00    +0.155 HD
BRANCH   7  14
ATOM     11  C   UNL     1      -4.855  -0.127  -0.778  0.00  0.00    -0.042 A 
ATOM     12  C   UNL     1      -4.858   1.251  -0.904  0.00  0.00    +0.005 A 
ATOM     13  C   UNL     1      -3.683   1.962  -0.775  0.00  0.00    +0.013 A 
ATOM     14  C   UNL     1      -2.488   1.287  -0.517  0.00  0.00    +0.037 A 
ATOM     15  C   UNL     1      -2.491  -0.104  -0.396  0.00  0.00    +0.013 A 
ATOM     16  C   UNL     1      -3.675  -0.801  -0.522  0.00  0.00    +0.005 A 
BRANCH  11  18
ATOM     17  C   UNL     1      -6.732  -0.651  -2.311  0.00  0.00    +0.015 C 
ATOM     18  C   UNL     1      -6.143  -0.896  -0.921  0.00  0.00    -0.013 C 
ATOM     19  C   UNL     1      -5.867  -2.390  -0.739  0.00  0.00    +0.015 C 
ATOM     20  C   UNL     1      -7.137  -0.427   0.144  0.00  0.00    +0.015 C 
ENDBRANCH  11  18
ENDBRANCH   7  14
ENDBRANCH   1   9
BRANCH   4  21
ATOM     21  N   UNL     1       4.726   4.201   0.146  0.00  0.00    -0.297 N 
ATOM     22  H   UNL     1       5.328   4.208  -0.615  0.00  0.00    +0.154 HD
BRANCH  21  23
ATOM     23  C   UNL     1       5.051   4.872   1.269  0.00  0.00    +0.141 C 
ATOM     24  S   UNL     1       3.947   4.940   2.576  0.00  0.00    -0.018 S 
BRANCH  23  25
ATOM     25  N   UNL     1       6.245   5.490   1.363  0.00  0.00    -0.264 N 
ATOM     26  C   UNL     1       6.569   6.162   2.486  0.00  0.00    +0.242 C 
ATOM     27  O   UNL     1       5.785   6.209   3.415  0.00  0.00    -0.270 OA
ATOM     28  H   UNL     1       6.870   5.452   0.622  0.00  0.00    +0.157 HD
BRANCH  26  29
ATOM     29  C   UNL     1       7.864   6.832   2.588  0.00  0.00    +0.068 C 
ATOM     30  C   UNL     1       8.190   7.504   3.713  0.00  0.00    +0.013 C 
BRANCH  30  31
ATOM     31  C   UNL     1       9.492   8.178   3.815  0.00  0.00    -0.021 A 
ATOM     32  C   UNL     1      10.396   8.125   2.748  0.00  0.00    +0.012 A 
ATOM     33  C   UNL     1      11.615   8.757   2.847  0.00  0.00    +0.050 A 
ATOM     34  C   UNL     1      11.951   9.449   4.003  0.00  0.00    +0.162 A 
ATOM     35  C   UNL     1      11.055   9.508   5.070  0.00  0.00    +0.162 A 
ATOM     36  C   UNL     1       9.829   8.881   4.978  0.00  0.00    +0.057 A 
BRANCH  35  37
ATOM     37  O   UNL     1      11.388  10.187   6.200  0.00  0.00    -0.491 OA
ATOM     38  C   UNL     1      10.423  10.206   7.254  0.00  0.00    +0.277 C 
ENDBRANCH  35  37
BRANCH  34  39
ATOM     39  O   UNL     1      13.155  10.072   4.094  0.00  0.00    -0.491 OA
ATOM     40  C   UNL     1      14.024   9.972   2.964  0.00  0.00    +0.277 C 
ENDBRANCH  34  39
ENDBRANCH  30  31
ENDBRANCH  26  29
ENDBRANCH  23  25
ENDBRANCH  21  23
ENDBRANCH   4  21
TORSDOF 10
