REMARK  Name = ZINC39354725
REMARK  7 active torsions:
REMARK  status: ('A' for Active; 'I' for Inactive)
REMARK    1  A    between atoms: C_4  and  C_34
REMARK    2  A    between atoms: C_5  and  C_7
REMARK    3  A    between atoms: C_7  and  N_8
REMARK    4  A    between atoms: C_9  and  C_11
REMARK    5  A    between atoms: N_17  and  C_20
REMARK    6  A    between atoms: C_20  and  C_21
REMARK    7  A    between atoms: C_26  and  C_27
REMARK                            x       y       z     vdW  Elec       q    Type
REMARK                         _______ _______ _______ _____ _____    ______ ____
ROOT
ATOM      1  C   UNL     1       1.627  -4.492   3.495  0.00  0.00    +0.082 C 
ATOM      2  C   UNL     1       0.528  -5.311   4.177  0.00  0.00    +0.020 C 
ATOM      3  C   UNL     1       1.736  -6.013   3.557  0.00  0.00    -0.021 C 
ATOM      4  C   UNL     1       2.776  -6.619   4.506  0.00  0.00    -0.011 C 
ATOM      5  C   UNL     1       2.443  -8.101   4.713  0.00  0.00    -0.078 C 
ATOM      6  N   UNL     1       2.393  -8.779   3.412  0.00  0.00    +0.380 N 
ATOM      7  C   UNL     1       1.269  -8.270   2.618  0.00  0.00    -0.078 C 
ATOM      8  C   UNL     1       1.518  -6.801   2.260  0.00  0.00    -0.011 C 
ATOM      9  H   UNL     1       3.256  -8.613   2.915  0.00  0.00    -0.082 HD
ENDROOT
BRANCH   1  11
ATOM     10  N   UNL     1       1.194  -2.532   2.050  0.00  0.00    -0.311 N 
ATOM     11  C   UNL     1       1.304  -3.870   2.161  0.00  0.00    +0.217 C 
ATOM     12  O   UNL     1       1.145  -4.575   1.187  0.00  0.00    -0.275 OA
ATOM     13  H   UNL     1       1.321  -1.968   2.829  0.00  0.00    +0.149 HD
BRANCH  10  14
ATOM     14  C   UNL     1       0.880  -1.928   0.752  0.00  0.00    +0.140 C 
BRANCH  14  19
ATOM     15  C   UNL     1      -0.474   1.575   1.138  0.00  0.00    +0.000 A 
ATOM     16  C   UNL     1       0.691   2.320   1.165  0.00  0.00    +0.001 A 
ATOM     17  C   UNL     1       1.916   1.690   1.059  0.00  0.00    +0.013 A 
ATOM     18  C   UNL     1       1.978   0.315   0.925  0.00  0.00    +0.059 A 
ATOM     19  C   UNL     1       0.814  -0.429   0.899  0.00  0.00    -0.019 A 
ATOM     20  C   UNL     1      -0.412   0.201   1.004  0.00  0.00    +0.006 A 
BRANCH  18  21
ATOM     21  C   UNL     1       3.314  -0.372   0.808  0.00  0.00    +0.418 C 
ATOM     22  F   UNL     1       4.335   0.583   0.860  0.00  0.00    -0.166 F 
ATOM     23  F   UNL     1       3.467  -1.276   1.865  0.00  0.00    -0.166 F 
ATOM     24  F   UNL     1       3.380  -1.060  -0.408  0.00  0.00    -0.166 F 
ENDBRANCH  18  21
ENDBRANCH  14  19
ENDBRANCH  10  14
ENDBRANCH   1  11
BRANCH   6  25
ATOM     25  C   UNL     1       2.226 -10.223   3.622  0.00  0.00    -0.063 C 
BRANCH  25  26
ATOM     26  C   UNL     1       3.478 -10.788   4.296  0.00  0.00    +0.066 C 
ATOM     27  C   UNL     1       4.655 -10.765   3.342  0.00  0.00    +0.115 C 
ATOM     28  N   UNL     1       5.015 -11.998   3.186  0.00  0.00    -0.161 NA
ATOM     29  N   UNL     1       4.228 -12.879   3.919  0.00  0.00    -0.153 NA
ATOM     30  C   UNL     1       3.300 -12.262   4.604  0.00  0.00    +0.077 C 
BRANCH  30  31
ATOM     31  C   UNL     1       2.293 -12.868   5.488  0.00  0.00    -0.001 A 
ATOM     32  C   UNL     1       1.360 -12.061   6.148  0.00  0.00    +0.012 A 
ATOM     33  C   UNL     1       0.419 -12.636   6.974  0.00  0.00    +0.039 A 
ATOM     34  C   UNL     1       0.395 -14.011   7.153  0.00  0.00    +0.123 A 
ATOM     35  C   UNL     1       1.317 -14.816   6.502  0.00  0.00    +0.039 A 
ATOM     36  C   UNL     1       2.260 -14.255   5.668  0.00  0.00    +0.012 A 
ATOM     37  F   UNL     1      -0.529 -14.567   7.965  0.00  0.00    -0.205 F 
ENDBRANCH  30  31
ENDBRANCH  25  26
ENDBRANCH   6  25
TORSDOF 7
