REMARK  Name = ZINC36963124
REMARK  3 active torsions:
REMARK  status: ('A' for Active; 'I' for Inactive)
REMARK    1  A    between atoms: C_1  and  C_2
REMARK    2  A    between atoms: C_2  and  C_4
REMARK    3  A    between atoms: N_9  and  C_10
REMARK                            x       y       z     vdW  Elec       q    Type
REMARK                         _______ _______ _______ _____ _____    ______ ____
ROOT
ATOM      1  C   UNL     1       0.731  -0.503   1.223  0.00  0.00    +0.238 C 
ATOM      2  O   UNL     1       1.780   0.007   1.554  0.00  0.00    -0.274 OA
ATOM      3  N   UNL     1       0.217  -1.517   1.947  0.00  0.00    -0.239 N 
ATOM      4  C   UNL     1       0.869  -1.964   3.039  0.00  0.00    +0.306 C 
ATOM      5  O   UNL     1       1.920  -1.452   3.371  0.00  0.00    -0.252 OA
ATOM      6  N   UNL     1       0.355  -2.977   3.763  0.00  0.00    -0.296 N 
ATOM      7  H   UNL     1      -0.622  -1.925   1.682  0.00  0.00    +0.159 HD
ATOM      8  H   UNL     1      -0.484  -3.386   3.498  0.00  0.00    +0.151 HD
ENDROOT
BRANCH   6   9
ATOM      9  C   UNL     1       1.063  -3.463   4.950  0.00  0.00    +0.074 C 
ATOM     10  C   UNL     1       0.675  -2.634   6.144  0.00  0.00    +0.022 C 
ATOM     11  C   UNL     1       1.836  -2.458   7.142  0.00  0.00    +0.002 C 
ATOM     12  C   UNL     1       2.641  -3.754   7.357  0.00  0.00    +0.000 C 
ATOM     13  C   UNL     1       1.759  -4.968   7.465  0.00  0.00    +0.000 C 
ATOM     14  C   UNL     1       1.639  -5.613   6.069  0.00  0.00    +0.002 C 
ATOM     15  C   UNL     1       0.672  -4.929   5.223  0.00  0.00    +0.022 C 
ENDBRANCH   6   9
BRANCH   1  17
ATOM     16  C   UNL     1      -0.019   1.526   0.010  0.00  0.00    +0.034 C 
ATOM     17  C   UNL     1       0.002  -0.004   0.002  0.00  0.00    +0.163 C 
ATOM     18 CL   UNL     1       0.846  -0.586  -1.481  0.00  0.00    -0.112 Cl
ENDBRANCH   1  17
TORSDOF 2
