REMARK  Name = ZINC09891529
REMARK  8 active torsions:
REMARK  status: ('A' for Active; 'I' for Inactive)
REMARK    1  A    between atoms: C_1  and  N_2
REMARK    2  A    between atoms: C_8  and  C_14
REMARK    3  A    between atoms: N_16  and  C_17
REMARK    4  A    between atoms: C_17  and  C_18
REMARK    5  A    between atoms: C_18  and  N_19
REMARK    6  A    between atoms: N_19  and  C_20
REMARK    7  A    between atoms: C_23  and  C_29
REMARK    8  A    between atoms: C_25  and  N_26
REMARK                            x       y       z     vdW  Elec       q    Type
REMARK                         _______ _______ _______ _____ _____    ______ ____
ROOT
ATOM      1  C   UNL     1       0.163   1.097  -1.517  0.00  0.00    +0.244 C 
ATOM      2  O   UNL     1       0.204  -0.117  -1.538  0.00  0.00    -0.270 OA
ATOM      3  N   UNL     1       1.284   1.805  -1.275  0.00  0.00    -0.310 N 
ATOM      4  H   UNL     1       1.248   2.904  -1.257  0.00  0.00    +0.149 HD
ENDROOT
BRANCH   1  12
ATOM      5  C   UNL     1      -7.163   3.671  -2.961  0.00  0.00    +0.154 C 
ATOM      6  N   UNL     1      -5.861   3.047  -2.710  0.00  0.00    -0.290 N 
ATOM      7  C   UNL     1      -4.780   3.824  -2.469  0.00  0.00    +0.262 A 
ATOM      8  O   UNL     1      -4.865   5.038  -2.458  0.00  0.00    -0.267 OA
ATOM      9  C   UNL     1      -3.497   3.147  -2.222  0.00  0.00    +0.065 A 
ATOM     10  C   UNL     1      -2.328   3.864  -1.966  0.00  0.00    +0.016 A 
ATOM     11  C   UNL     1      -1.159   3.199  -1.734  0.00  0.00    +0.014 A 
ATOM     12  C   UNL     1      -1.117   1.799  -1.765  0.00  0.00    +0.039 A 
ATOM     13  C   UNL     1      -2.268   1.065  -2.019  0.00  0.00    +0.041 A 
ATOM     14  C   UNL     1      -3.472   1.735  -2.251  0.00  0.00    +0.080 A 
ATOM     15  N   UNL     1      -4.619   1.060  -2.502  0.00  0.00    -0.222 NA
ATOM     16  C   UNL     1      -5.750   1.686  -2.719  0.00  0.00    +0.183 A 
ATOM     17  S   UNL     1      -7.193   0.727  -3.038  0.00  0.00    -0.011 S 
ENDBRANCH   1  12
BRANCH   3  18
ATOM     18  C   UNL     1       2.552   1.110  -1.037  0.00  0.00    +0.123 C 
BRANCH  18  19
ATOM     19  C   UNL     1       3.658   2.138  -0.790  0.00  0.00    +0.120 C 
BRANCH  19  20
ATOM     20  N   UNL     1       4.926   1.443  -0.551  0.00  0.00    -0.341 N 
ATOM     21  H   UNL     1       4.962   0.344  -0.570  0.00  0.00    +0.146 HD
BRANCH  20  22
ATOM     22  C   UNL     1       6.088   2.177  -0.301  0.00  0.00    +0.058 A 
ATOM     23  C   UNL     1       6.070   3.562  -0.397  0.00  0.00    +0.026 A 
ATOM     24  C   UNL     1       7.221   4.285  -0.148  0.00  0.00    +0.014 A 
ATOM     25  C   UNL     1       8.389   3.630   0.196  0.00  0.00    +0.057 A 
ATOM     26  C   UNL     1       8.410   2.251   0.293  0.00  0.00    +0.047 A 
ATOM     27  C   UNL     1       7.261   1.522   0.051  0.00  0.00    +0.147 A 
BRANCH  25  28
ATOM     28  C   UNL     1       9.643   4.421   0.467  0.00  0.00    +0.417 C 
ATOM     29  F   UNL     1       9.377   5.785   0.309  0.00  0.00    -0.166 F 
ATOM     30  F   UNL     1      10.073   4.179   1.776  0.00  0.00    -0.166 F 
ATOM     31  F   UNL     1      10.643   4.033  -0.431  0.00  0.00    -0.166 F 
ENDBRANCH  25  28
BRANCH  27  32
ATOM     32  N   UNL     1       7.282   0.047   0.161  0.00  0.00    +0.058 N 
ATOM     33  O   UNL     1       6.321  -0.544   0.621  0.00  0.00    -0.126 OA
ATOM     34  O   UNL     1       8.261  -0.577  -0.208  0.00  0.00    -0.126 OA
ENDBRANCH  27  32
ENDBRANCH  20  22
ENDBRANCH  19  20
ENDBRANCH  18  19
ENDBRANCH   3  18
TORSDOF 7
