REMARK  Name = ZINC12782472
REMARK  10 active torsions:
REMARK  status: ('A' for Active; 'I' for Inactive)
REMARK    1  A    between atoms: C_1  and  C_2
REMARK    2  A    between atoms: C_8  and  C_33
REMARK    3  A    between atoms: C_12  and  C_13
REMARK    4  A    between atoms: C_13  and  O_15
REMARK    5  A    between atoms: O_15  and  C_16
REMARK    6  A    between atoms: C_16  and  C_18
REMARK    7  A    between atoms: C_16  and  C_19
REMARK    8  A    between atoms: N_21  and  C_22
REMARK    9  A    between atoms: C_27  and  C_32
REMARK   10  A    between atoms: C_29  and  C_31
REMARK                            x       y       z     vdW  Elec       q    Type
REMARK                         _______ _______ _______ _____ _____    ______ ____
ROOT
ATOM      1  C   UNL     1      -3.535   1.411   0.765  0.00  0.00    +0.347 C 
ATOM      2  O   UNL     1      -3.599   2.545   1.199  0.00  0.00    -0.244 OA
ENDROOT
BRANCH   1  14
ATOM      3  C   UNL     1      -6.162   2.084   2.137  0.00  0.00    +0.046 C 
ATOM      4  C   UNL     1      -5.875   0.737   1.524  0.00  0.00    -0.015 A 
ATOM      5  C   UNL     1      -6.840  -0.271   1.566  0.00  0.00    +0.076 A 
ATOM      6  C   UNL     1      -8.199  -0.241   2.155  0.00  0.00    +0.260 A 
ATOM      7  O   UNL     1      -8.623   0.764   2.697  0.00  0.00    -0.267 OA
ATOM      8  N   UNL     1      -8.953  -1.355   2.076  0.00  0.00    -0.311 N 
ATOM      9  H   UNL     1      -9.845  -1.353   2.456  0.00  0.00    +0.170 HD
ATOM     10  C   UNL     1      -8.490  -2.479   1.476  0.00  0.00    +0.108 A 
ATOM     11  N   UNL     1      -7.298  -2.539   0.947  0.00  0.00    -0.227 NA
ATOM     12  C   UNL     1      -6.474  -1.499   0.970  0.00  0.00    +0.116 A 
ATOM     13  S   UNL     1      -4.829  -1.192   0.380  0.00  0.00    -0.062 S 
ATOM     14  C   UNL     1      -4.673   0.502   0.921  0.00  0.00    +0.102 A 
ATOM     15  C   UNL     1      -9.378  -3.696   1.417  0.00  0.00    +0.086 C 
ENDBRANCH   1  14
BRANCH   1  16
ATOM     16  O   UNL     1      -2.417   0.990   0.138  0.00  0.00    -0.448 OA
BRANCH  16  17
ATOM     17  C   UNL     1      -1.330   1.944   0.019  0.00  0.00    +0.259 C 
ATOM     18  C   UNL     1      -1.483   2.732  -1.283  0.00  0.00    +0.062 C 
BRANCH  17  19
ATOM     19  C   UNL     1      -0.014   1.209   0.009  0.00  0.00    +0.254 C 
ATOM     20  O   UNL     1       0.002  -0.004   0.002  0.00  0.00    -0.272 OA
ATOM     21  N   UNL     1       1.143   1.898   0.001  0.00  0.00    -0.309 N 
ATOM     22  H   UNL     1       1.130   2.868   0.007  0.00  0.00    +0.149 HD
BRANCH  21  23
ATOM     23  C   UNL     1       2.422   1.183  -0.015  0.00  0.00    +0.076 C 
ATOM     24  C   UNL     1       2.792   0.832  -1.457  0.00  0.00    +0.022 C 
ATOM     25  C   UNL     1       2.916   2.117  -2.279  0.00  0.00    +0.002 C 
ATOM     26  C   UNL     1       4.005   3.006  -1.675  0.00  0.00    +0.003 C 
ATOM     27  C   UNL     1       3.635   3.357  -0.232  0.00  0.00    -0.009 C 
ATOM     28  C   UNL     1       3.511   2.072   0.589  0.00  0.00    +0.009 C 
ATOM     29  C   UNL     1       3.141   2.423   2.032  0.00  0.00    +0.009 C 
ATOM     30  C   UNL     1       4.724   4.245   0.372  0.00  0.00    +0.008 C 
ENDBRANCH  21  23
ENDBRANCH  17  19
ENDBRANCH  16  17
ENDBRANCH   1  16
TORSDOF 5
