REMARK  Name = ZINC47757657
REMARK  5 active torsions:
REMARK  status: ('A' for Active; 'I' for Inactive)
REMARK    1  A    between atoms: C_8  and  C_11
REMARK    2  A    between atoms: C_11  and  N_12
REMARK    3  A    between atoms: N_15  and  C_16
REMARK    4  A    between atoms: C_19  and  C_22
REMARK    5  A    between atoms: N_24  and  C_25
REMARK                            x       y       z     vdW  Elec       q    Type
REMARK                         _______ _______ _______ _____ _____    ______ ____
ROOT
ATOM      1  N   UNL     1       5.446  -2.766   0.197  0.00  0.00    -0.296 N 
ATOM      2  C   UNL     1       6.330  -3.649   0.702  0.00  0.00    +0.304 C 
ATOM      3  O   UNL     1       6.170  -4.096   1.822  0.00  0.00    -0.253 OA
ATOM      4  N   UNL     1       7.390  -4.037  -0.033  0.00  0.00    -0.269 N 
ATOM      5  H   UNL     1       5.573  -2.410  -0.696  0.00  0.00    +0.150 HD
ATOM      6  H   UNL     1       7.482  -3.733  -0.950  0.00  0.00    +0.156 HD
ENDROOT
BRANCH   4   7
ATOM      7  C   UNL     1       8.356  -4.875   0.523  0.00  0.00    +0.035 A 
ATOM      8  C   UNL     1       7.979  -5.865   1.426  0.00  0.00    +0.024 A 
ATOM      9  C   UNL     1       8.929  -6.694   1.977  0.00  0.00    +0.015 A 
ATOM     10  C   UNL     1      10.274  -6.541   1.629  0.00  0.00    +0.037 A 
ATOM     11  C   UNL     1      10.649  -5.547   0.722  0.00  0.00    +0.015 A 
ATOM     12  C   UNL     1       9.693  -4.724   0.171  0.00  0.00    +0.024 A 
BRANCH  10  13
ATOM     13  C   UNL     1      11.296  -7.428   2.219  0.00  0.00    +0.244 C 
ATOM     14  O   UNL     1      10.968  -8.293   3.008  0.00  0.00    -0.270 OA
ATOM     15  N   UNL     1      12.592  -7.279   1.882  0.00  0.00    -0.308 N 
ATOM     16  H   UNL     1      12.854  -6.590   1.252  0.00  0.00    +0.149 HD
BRANCH  15  17
ATOM     17  C   UNL     1      13.607  -8.160   2.467  0.00  0.00    +0.073 C 
ATOM     18  C   UNL     1      14.111  -7.572   3.801  0.00  0.00    +0.022 C 
ATOM     19  C   UNL     1      15.623  -7.908   3.817  0.00  0.00    +0.002 C 
ATOM     20  C   UNL     1      16.033  -7.710   2.337  0.00  0.00    +0.002 C 
ATOM     21  C   UNL     1      14.829  -8.248   1.536  0.00  0.00    +0.022 C 
ENDBRANCH  15  17
ENDBRANCH  10  13
ENDBRANCH   4   7
BRANCH   1  22
ATOM     22  C   UNL     1       4.293  -2.345   0.997  0.00  0.00    +0.150 C 
BRANCH  22  30
ATOM     23  C   UNL     1       1.246   2.773   0.233  0.00  0.00    +0.000 A 
ATOM     24  C   UNL     1       2.430   3.129  -0.387  0.00  0.00    +0.004 A 
ATOM     25  C   UNL     1       3.454   2.214  -0.511  0.00  0.00    +0.046 A 
ATOM     26  C   UNL     1       3.305   0.922  -0.013  0.00  0.00    +0.124 A 
ATOM     27  C   UNL     1       2.108   0.574   0.601  0.00  0.00    -0.002 A 
ATOM     28  C   UNL     1       1.088   1.491   0.727  0.00  0.00    +0.007 A 
ATOM     29  C   UNL     1       2.227  -0.880   1.014  0.00  0.00    +0.085 C 
ATOM     30  C   UNL     1       3.455  -1.346   0.196  0.00  0.00    +0.195 C 
ATOM     31  O   UNL     1       4.178  -0.122  -0.017  0.00  0.00    -0.487 OA
ENDBRANCH  22  30
ENDBRANCH   1  22
TORSDOF 5
