REMARK  Name = ZINC20916715
REMARK  10 active torsions:
REMARK  status: ('A' for Active; 'I' for Inactive)
REMARK    1  A    between atoms: C_9  and  O_35
REMARK    2  A    between atoms: C_10  and  C_11
REMARK    3  A    between atoms: N_12  and  N_13
REMARK    4  A    between atoms: C_17  and  S_20
REMARK    5  A    between atoms: N_18  and  N_19
REMARK    6  A    between atoms: S_20  and  C_21
REMARK    7  A    between atoms: C_21  and  C_22
REMARK    8  A    between atoms: C_22  and  C_23
REMARK    9  A    between atoms: N_25  and  C_26
REMARK   10  A    between atoms: C_30  and  N_32
REMARK                            x       y       z     vdW  Elec       q    Type
REMARK                         _______ _______ _______ _____ _____    ______ ____
ROOT
ATOM      1  N   UNL     1       6.885  12.488   0.855  0.00  0.00    -0.204 N 
ATOM      2  C   UNL     1       6.013  11.416   0.738  0.00  0.00    +0.254 A 
ATOM      3  N   UNL     1       6.353  10.153   0.646  0.00  0.00    -0.109 NA
ATOM      4  N   UNL     1       5.178   9.395   0.550  0.00  0.00    -0.119 NA
ATOM      5  C   UNL     1       4.160  10.221   0.578  0.00  0.00    +0.210 A 
ATOM      6  N   UNL     1       4.648  11.491   0.698  0.00  0.00    -0.211 N 
ATOM      7  H   UNL     1       6.491  13.513   0.926  0.00  0.00    +0.177 HD
ENDROOT
BRANCH   6   8
ATOM      8  N   UNL     1       3.904  12.634   0.766  0.00  0.00    -0.294 N 
ATOM      9  H   UNL     1       2.807  12.579   0.725  0.00  0.00    +0.163 HD
ATOM     10  H   UNL     1       4.403  13.610   0.862  0.00  0.00    +0.163 HD
ENDBRANCH   6   8
BRANCH   1  12
ATOM     11  C   UNL     1       9.086  13.272   0.993  0.00  0.00    +0.142 C 
ATOM     12  N   UNL     1       8.268  12.267   0.883  0.00  0.00    -0.187 NA
BRANCH  11  22
ATOM     13  C   UNL     1      13.290  16.235   1.358  0.00  0.00    +0.001 A 
ATOM     14  C   UNL     1      11.922  16.495   1.334  0.00  0.00    +0.001 A 
ATOM     15  C   UNL     1      11.018  15.480   1.226  0.00  0.00    +0.009 A 
ATOM     16  C   UNL     1      11.470  14.158   1.139  0.00  0.00    -0.006 A 
ATOM     17  C   UNL     1      12.860  13.890   1.168  0.00  0.00    -0.017 A 
ATOM     18  C   UNL     1      13.763  14.961   1.285  0.00  0.00    +0.008 A 
ATOM     19  C   UNL     1      13.312  12.562   1.074  0.00  0.00    +0.012 A 
ATOM     20  C   UNL     1      12.430  11.533   0.961  0.00  0.00    +0.046 A 
ATOM     21  C   UNL     1      11.053  11.747   0.933  0.00  0.00    +0.126 A 
ATOM     22  C   UNL     1      10.537  13.040   1.022  0.00  0.00    +0.044 A 
BRANCH  21  23
ATOM     23  O   UNL     1      10.209  10.689   0.819  0.00  0.00    -0.506 OA
ATOM     24  H   UNL     1       9.121  10.854   0.796  0.00  0.00    +0.292 HD
ENDBRANCH  21  23
ENDBRANCH  11  22
ENDBRANCH   1  12
BRANCH   5  25
ATOM     25  S   UNL     1       2.459   9.770   0.484  0.00  0.00    -0.084 S 
BRANCH  25  26
ATOM     26  C   UNL     1       2.491   7.962   0.338  0.00  0.00    +0.086 C 
BRANCH  26  27
ATOM     27  C   UNL     1       1.059   7.432   0.247  0.00  0.00    +0.107 C 
BRANCH  27  28
ATOM     28  C   UNL     1       1.085   5.931   0.125  0.00  0.00    +0.218 C 
ATOM     29  O   UNL     1       2.146   5.342   0.112  0.00  0.00    -0.275 OA
ATOM     30  N   UNL     1      -0.069   5.242   0.030  0.00  0.00    -0.285 N 
ATOM     31  H   UNL     1      -1.026   5.779  -0.046  0.00  0.00    +0.155 HD
BRANCH  30  32
ATOM     32  C   UNL     1      -0.051   3.842   0.028  0.00  0.00    +0.036 A 
ATOM     33  C   UNL     1       0.907   3.158   0.766  0.00  0.00    +0.023 A 
ATOM     34  C   UNL     1       0.922   1.777   0.762  0.00  0.00    +0.004 A 
ATOM     35  C   UNL     1      -0.015   1.076   0.025  0.00  0.00    +0.033 A 
ATOM     36  C   UNL     1      -0.966   1.754  -0.715  0.00  0.00    +0.128 A 
ATOM     37  C   UNL     1      -0.990   3.135  -0.711  0.00  0.00    +0.056 A 
BRANCH  36  38
ATOM     38  N   UNL     1      -1.963   0.999  -1.506  0.00  0.00    +0.056 N 
ATOM     39  O   UNL     1      -1.945  -0.218  -1.506  0.00  0.00    -0.126 OA
ATOM     40  O   UNL     1      -2.801   1.596  -2.158  0.00  0.00    -0.126 OA
ENDBRANCH  36  38
ENDBRANCH  30  32
ENDBRANCH  27  28
ENDBRANCH  26  27
ENDBRANCH  25  26
ENDBRANCH   5  25
TORSDOF 10
