REMARK  Name = ZINC36309460
REMARK  14 active torsions:
REMARK  status: ('A' for Active; 'I' for Inactive)
REMARK    1  A    between atoms: C_1  and  C_2
REMARK    2  A    between atoms: C_6  and  O_8
REMARK    3  A    between atoms: O_8  and  C_9
REMARK    4  A    between atoms: C_9  and  C_10
REMARK    5  A    between atoms: C_20  and  C_22
REMARK    6  A    between atoms: C_22  and  N_23
REMARK    7  A    between atoms: N_23  and  C_24
REMARK    8  A    between atoms: N_23  and  C_35
REMARK    9  A    between atoms: C_24  and  C_25
REMARK   10  A    between atoms: C_25  and  C_27
REMARK   11  A    between atoms: C_25  and  O_34
REMARK   12  A    between atoms: C_27  and  C_28
REMARK   13  A    between atoms: C_35  and  C_36
REMARK   14  A    between atoms: C_35  and  C_37
REMARK                            x       y       z     vdW  Elec       q    Type
REMARK                         _______ _______ _______ _____ _____    ______ ____
ROOT
ATOM      1  C   UNL     1       0.663  -5.422   6.317  0.00  0.00    +0.144 C 
ATOM      2  C   UNL     1       1.345  -4.552   7.371  0.00  0.00    -0.014 A 
ATOM      3  C   UNL     1       2.549  -4.896   7.983  0.00  0.00    +0.013 A 
ATOM      4  C   UNL     1       3.098  -4.074   8.907  0.00  0.00    +0.046 A 
ATOM      5  S   UNL     1       1.912  -2.739   8.962  0.00  0.00    -0.101 S 
ATOM      6  C   UNL     1       0.778  -3.376   7.756  0.00  0.00    -0.004 A 
ATOM      7  C   UNL     1      -0.501  -2.773   7.276  0.00  0.00    +0.061 C 
ATOM      8  C   UNL     1      -0.916  -3.470   5.971  0.00  0.00    +0.113 C 
ATOM      9  N   UNL     1      -0.705  -4.918   6.133  0.00  0.00    -0.292 N 
ATOM     10  C   UNL     1      -1.750  -5.768   6.113  0.00  0.00    +0.200 C 
ATOM     11  O   UNL     1      -1.565  -6.959   6.248  0.00  0.00    -0.278 OA
ENDROOT
BRANCH   1  12
ATOM     12  C   UNL     1       1.430  -5.332   4.996  0.00  0.00    +0.256 C 
BRANCH  12  13
ATOM     13  O   UNL     1       1.567  -3.961   4.617  0.00  0.00    -0.490 OA
BRANCH  13  19
ATOM     14  C   UNL     1       3.257  -0.717   1.386  0.00  0.00    +0.044 C 
ATOM     15  C   UNL     1       3.073  -2.138   1.852  0.00  0.00    -0.047 A 
ATOM     16  C   UNL     1       3.578  -3.183   1.099  0.00  0.00    +0.003 A 
ATOM     17  C   UNL     1       3.410  -4.488   1.524  0.00  0.00    +0.004 A 
ATOM     18  C   UNL     1       2.737  -4.751   2.702  0.00  0.00    +0.045 A 
ATOM     19  C   UNL     1       2.230  -3.705   3.458  0.00  0.00    +0.121 A 
ATOM     20  C   UNL     1       2.405  -2.396   3.033  0.00  0.00    +0.049 A 
ENDBRANCH  13  19
ENDBRANCH  12  13
ENDBRANCH   1  12
BRANCH  10  21
ATOM     21  C   UNL     1      -3.148  -5.239   5.924  0.00  0.00    +0.019 C 
BRANCH  21  22
ATOM     22  N   UNL     1      -4.080  -6.364   5.764  0.00  0.00    +0.389 N 
ATOM     23  H   UNL     1      -3.775  -7.138   6.335  0.00  0.00    -0.081 HD
BRANCH  22  24
ATOM     24  C   UNL     1      -4.109  -6.779   4.355  0.00  0.00    -0.074 C 
ATOM     25  C   UNL     1      -4.542  -5.597   3.484  0.00  0.00    -0.014 C 
ATOM     26  C   UNL     1      -2.714  -7.241   3.930  0.00  0.00    -0.014 C 
ENDBRANCH  22  24
BRANCH  22  27
ATOM     27  C   UNL     1      -5.426  -5.949   6.180  0.00  0.00    -0.046 C 
BRANCH  27  28
ATOM     28  C   UNL     1      -6.361  -7.159   6.165  0.00  0.00    +0.102 C 
BRANCH  28  29
ATOM     29  O   UNL     1      -6.585  -7.571   4.815  0.00  0.00    -0.393 OA
ATOM     30  H   UNL     1      -6.932  -6.872   4.243  0.00  0.00    +0.210 HD
ENDBRANCH  28  29
BRANCH  28  31
ATOM     31  C   UNL     1      -7.695  -6.781   6.811  0.00  0.00    +0.064 C 
BRANCH  31  32
ATOM     32  C   UNL     1      -8.571  -8.004   6.908  0.00  0.00    -0.045 A 
ATOM     33  C   UNL     1      -9.424  -8.327   5.869  0.00  0.00    +0.004 A 
ATOM     34  C   UNL     1     -10.227  -9.448   5.957  0.00  0.00    +0.000 A 
ATOM     35  C   UNL     1     -10.177 -10.247   7.084  0.00  0.00    +0.000 A 
ATOM     36  C   UNL     1      -9.323  -9.925   8.123  0.00  0.00    +0.000 A 
ATOM     37  C   UNL     1      -8.517  -8.806   8.032  0.00  0.00    +0.004 A 
ENDBRANCH  31  32
ENDBRANCH  28  31
ENDBRANCH  27  28
ENDBRANCH  22  27
ENDBRANCH  21  22
ENDBRANCH  10  21
TORSDOF 11
