REMARK  Name = ZINC05690585
REMARK  11 active torsions:
REMARK  status: ('A' for Active; 'I' for Inactive)
REMARK    1  A    between atoms: C_1  and  C_2
REMARK    2  A    between atoms: C_2  and  O_3
REMARK    3  A    between atoms: O_3  and  C_4
REMARK    4  A    between atoms: C_7  and  C_10
REMARK    5  A    between atoms: C_13  and  C_24
REMARK    6  A    between atoms: N_20  and  C_21
REMARK    7  A    between atoms: C_21  and  C_22
REMARK    8  A    between atoms: C_22  and  O_23
REMARK    9  A    between atoms: C_26  and  C_32
REMARK   10  A    between atoms: C_28  and  C_31
REMARK   11  A    between atoms: C_29  and  O_30
REMARK                            x       y       z     vdW  Elec       q    Type
REMARK                         _______ _______ _______ _____ _____    ______ ____
ROOT
ATOM      1  C   UNL     1       1.061  -5.609  -2.116  0.00  0.00    +0.141 C 
ATOM      2  C   UNL     1      -0.019  -6.358  -2.847  0.00  0.00    +0.035 A 
ATOM      3  C   UNL     1      -1.376  -6.690  -2.929  0.00  0.00    +0.102 A 
ATOM      4  N   UNL     1      -1.526  -7.481  -3.972  0.00  0.00    -0.173 NA
ATOM      5  N   UNL     1      -0.400  -7.682  -4.558  0.00  0.00    -0.272 N 
ATOM      6  H   UNL     1      -0.272  -8.231  -5.347  0.00  0.00    +0.189 HD
ATOM      7  C   UNL     1       0.591  -7.006  -3.904  0.00  0.00    +0.126 A 
ATOM      8  C   UNL     1       2.025  -6.697  -3.874  0.00  0.00    +0.266 C 
ATOM      9  O   UNL     1       2.842  -7.116  -4.673  0.00  0.00    -0.268 OA
ATOM     10  N   UNL     1       2.310  -5.886  -2.838  0.00  0.00    -0.283 N 
ENDROOT
BRANCH   3  11
ATOM     11  C   UNL     1      -2.449  -6.235  -2.009  0.00  0.00    +0.044 A 
ATOM     12  C   UNL     1      -2.129  -5.497  -0.872  0.00  0.00    +0.017 A 
ATOM     13  C   UNL     1      -3.130  -5.077  -0.020  0.00  0.00    -0.049 A 
ATOM     14  C   UNL     1      -4.451  -5.386  -0.291  0.00  0.00    +0.010 A 
ATOM     15  C   UNL     1      -4.779  -6.118  -1.416  0.00  0.00    -0.008 A 
ATOM     16  C   UNL     1      -3.784  -6.541  -2.283  0.00  0.00    +0.129 A 
ATOM     17  C   UNL     1      -6.221  -6.451  -1.704  0.00  0.00    +0.047 C 
ATOM     18  C   UNL     1      -2.783  -4.278   1.210  0.00  0.00    +0.044 C 
BRANCH  16  19
ATOM     19  O   UNL     1      -4.106  -7.256  -3.393  0.00  0.00    -0.506 OA
ATOM     20  H   UNL     1      -4.122  -8.212  -3.254  0.00  0.00    +0.292 HD
ENDBRANCH  16  19
ENDBRANCH   3  11
BRANCH   1  24
ATOM     21  C   UNL     1       0.233  -1.417  -2.164  0.00  0.00    +0.121 A 
ATOM     22  C   UNL     1       0.578  -2.070  -3.339  0.00  0.00    +0.046 A 
ATOM     23  C   UNL     1       0.846  -3.425  -3.320  0.00  0.00    +0.009 A 
ATOM     24  C   UNL     1       0.769  -4.130  -2.133  0.00  0.00    -0.022 A 
ATOM     25  C   UNL     1       0.425  -3.482  -0.962  0.00  0.00    +0.009 A 
ATOM     26  C   UNL     1       0.162  -2.125  -0.974  0.00  0.00    +0.046 A 
BRANCH  21  27
ATOM     27  O   UNL     1      -0.030  -0.084  -2.180  0.00  0.00    -0.492 OA
BRANCH  27  29
ATOM     28  C   UNL     1      -0.267   2.065  -3.261  0.00  0.00    +0.048 C 
ATOM     29  C   UNL     1       0.061   0.581  -3.441  0.00  0.00    +0.225 C 
ENDBRANCH  27  29
ENDBRANCH  21  27
ENDBRANCH   1  24
BRANCH  10  30
ATOM     30  C   UNL     1       3.635  -5.367  -2.491  0.00  0.00    +0.137 C 
BRANCH  30  31
ATOM     31  C   UNL     1       4.327  -6.337  -1.531  0.00  0.00    +0.175 C 
BRANCH  31  32
ATOM     32  O   UNL     1       4.569  -7.577  -2.199  0.00  0.00    -0.393 OA
ATOM     33  H   UNL     1       5.006  -8.241  -1.649  0.00  0.00    +0.209 HD
ENDBRANCH  31  32
ENDBRANCH  30  31
ENDBRANCH  10  30
TORSDOF 8
