REMARK  Name = ZINC66247697
REMARK  6 active torsions:
REMARK  status: ('A' for Active; 'I' for Inactive)
REMARK    1  A    between atoms: C_1  and  C_2
REMARK    2  A    between atoms: C_9  and  N_11
REMARK    3  A    between atoms: N_11  and  S_12
REMARK    4  A    between atoms: S_12  and  C_15
REMARK    5  A    between atoms: N_17  and  C_21
REMARK    6  A    between atoms: C_18  and  C_20
REMARK                            x       y       z     vdW  Elec       q    Type
REMARK                         _______ _______ _______ _____ _____    ______ ____
ROOT
ATOM      1  N   UNL     1       0.056  -0.599   4.878  0.00  0.00    -0.069 NA
ENDROOT
BRANCH   1  10
ATOM      2  C   UNL     1      -0.018   1.503   0.010  0.00  0.00    +0.046 C 
ATOM      3  C   UNL     1       0.002  -0.004   0.002  0.00  0.00    -0.024 A 
ATOM      4  C   UNL     1       0.006  -0.675  -1.193  0.00  0.00    +0.005 A 
ATOM      5  C   UNL     1       0.025  -2.061  -1.246  0.00  0.00    +0.001 A 
ATOM      6  C   UNL     1       0.040  -2.784  -0.066  0.00  0.00    +0.017 A 
ATOM      7  C   UNL     1       0.037  -2.120   1.134  0.00  0.00    +0.041 A 
ATOM      8  C   UNL     1       0.023  -0.710   1.227  0.00  0.00    +0.083 A 
ATOM      9  N   UNL     1       0.028  -0.205   2.480  0.00  0.00    -0.222 NA
ATOM     10  C   UNL     1       0.049  -0.969   3.548  0.00  0.00    +0.202 A 
ATOM     11  S   UNL     1       0.051  -2.611   2.842  0.00  0.00    -0.049 S 
ENDBRANCH   1  10
BRANCH   1  12
ATOM     12  S   UNL     1       0.083  -1.758   6.060  0.00  0.00    +0.110 S 
ATOM     13  O   UNL     1      -1.153  -2.453   5.976  0.00  0.00    -0.147 OA
ATOM     14  O   UNL     1       1.337  -2.419   5.952  0.00  0.00    -0.147 OA
BRANCH  12  15
ATOM     15  C   UNL     1       0.087  -0.921   7.610  0.00  0.00    +0.195 A 
ATOM     16  C   UNL     1       1.178  -0.525   8.293  0.00  0.00    +0.134 A 
ATOM     17  N   UNL     1       0.732   0.081   9.436  0.00  0.00    -0.337 N 
ATOM     18  C   UNL     1      -0.618   0.035   9.412  0.00  0.00    +0.085 A 
ATOM     19  N   UNL     1      -0.996  -0.561   8.314  0.00  0.00    -0.328 N 
ATOM     20  C   UNL     1      -1.535   0.586  10.473  0.00  0.00    +0.084 C 
ATOM     21  C   UNL     1       1.562   0.671  10.489  0.00  0.00    +0.150 C 
ATOM     22  H   UNL     1      -1.916  -0.721   8.050  0.00  0.00    +0.168 HD
ENDBRANCH  12  15
ENDBRANCH   1  12
TORSDOF 3
