REMARK  Name = ZINC01222647
REMARK  10 active torsions:
REMARK  status: ('A' for Active; 'I' for Inactive)
REMARK    1  A    between atoms: C_1  and  C_2
REMARK    2  A    between atoms: C_12  and  C_14
REMARK    3  A    between atoms: C_14  and  N_15
REMARK    4  A    between atoms: N_15  and  C_16
REMARK    5  A    between atoms: N_15  and  S_25
REMARK    6  A    between atoms: C_16  and  C_17
REMARK    7  A    between atoms: C_20  and  O_23
REMARK    8  A    between atoms: O_23  and  C_24
REMARK    9  A    between atoms: S_25  and  C_28
REMARK   10  A    between atoms: C_29  and  C_37
REMARK                            x       y       z     vdW  Elec       q    Type
REMARK                         _______ _______ _______ _____ _____    ______ ____
ROOT
ATOM      1  N   UNL     1      -2.396   3.559  -1.772  0.00  0.00    -0.168 NA
ENDROOT
BRANCH   1   2
ATOM      2  S   UNL     1      -1.535   4.845  -2.361  0.00  0.00    +0.064 S 
ATOM      3  O   UNL     1      -0.318   4.889  -1.629  0.00  0.00    -0.153 OA
ATOM      4  O   UNL     1      -1.569   4.741  -3.778  0.00  0.00    -0.153 OA
BRANCH   2   5
ATOM      5  C   UNL     1      -2.428   6.305  -1.942  0.00  0.00    +0.136 A 
ATOM      6  C   UNL     1      -2.110   6.994  -0.820  0.00  0.00    -0.022 A 
ATOM      7  C   UNL     1      -2.795   8.154  -0.458  0.00  0.00    +0.007 A 
ATOM      8  C   UNL     1      -3.808   8.644  -1.211  0.00  0.00    +0.031 A 
ATOM      9  C   UNL     1      -4.196   7.974  -2.401  0.00  0.00    +0.102 A 
ATOM     10  C   UNL     1      -3.476   6.762  -2.783  0.00  0.00    +0.126 A 
ATOM     11  N   UNL     1      -3.938   6.243  -3.918  0.00  0.00    -0.189 NA
ATOM     12  S   UNL     1      -5.099   7.184  -4.390  0.00  0.00    +0.117 S 
ATOM     13  N   UNL     1      -5.152   8.283  -3.274  0.00  0.00    -0.191 NA
ATOM     14  C   UNL     1      -0.990   6.497   0.057  0.00  0.00    +0.046 C 
ENDBRANCH   2   5
ENDBRANCH   1   2
BRANCH   1  15
ATOM     15  C   UNL     1      -2.238   3.151  -0.373  0.00  0.00    +0.150 C 
BRANCH  15  27
ATOM     16  C   UNL     1       1.360  -2.347  -0.217  0.00  0.00    +0.046 C 
ATOM     17  C   UNL     1       1.742  -0.902  -0.023  0.00  0.00    -0.026 A 
ATOM     18  C   UNL     1       3.051  -0.562   0.240  0.00  0.00    +0.005 A 
ATOM     19  C   UNL     1       3.416   0.765   0.421  0.00  0.00    +0.001 A 
ATOM     20  C   UNL     1       2.482   1.760   0.342  0.00  0.00    +0.010 A 
ATOM     21  C   UNL     1       1.147   1.438   0.077  0.00  0.00    -0.001 A 
ATOM     22  C   UNL     1       0.774   0.093  -0.107  0.00  0.00    +0.052 A 
ATOM     23  N   UNL     1      -0.544  -0.219  -0.369  0.00  0.00    -0.322 N 
ATOM     24  H   UNL     1      -0.799  -1.147  -0.496  0.00  0.00    +0.169 HD
ATOM     25  C   UNL     1      -1.478   0.743  -0.456  0.00  0.00    +0.254 A 
ATOM     26  O   UNL     1      -2.632   0.431  -0.694  0.00  0.00    -0.268 OA
ATOM     27  C   UNL     1      -1.157   2.106  -0.274  0.00  0.00    +0.033 A 
ATOM     28  C   UNL     1       0.120   2.478  -0.014  0.00  0.00    +0.020 A 
ENDBRANCH  15  27
ENDBRANCH   1  15
BRANCH   1  29
ATOM     29  C   UNL     1      -3.315   2.829  -2.648  0.00  0.00    +0.145 C 
BRANCH  29  30
ATOM     30  C   UNL     1      -4.728   3.007  -2.156  0.00  0.00    -0.031 A 
ATOM     31  C   UNL     1      -5.260   2.112  -1.246  0.00  0.00    +0.008 A 
ATOM     32  C   UNL     1      -6.553   2.277  -0.789  0.00  0.00    +0.046 A 
ATOM     33  C   UNL     1      -7.321   3.336  -1.252  0.00  0.00    +0.120 A 
ATOM     34  C   UNL     1      -6.787   4.229  -2.169  0.00  0.00    +0.046 A 
ATOM     35  C   UNL     1      -5.491   4.063  -2.619  0.00  0.00    +0.008 A 
BRANCH  33  36
ATOM     36  O   UNL     1      -8.595   3.497  -0.807  0.00  0.00    -0.495 OA
ATOM     37  C   UNL     1      -9.079   2.539   0.137  0.00  0.00    +0.277 C 
ENDBRANCH  33  36
ENDBRANCH  29  30
ENDBRANCH   1  29
TORSDOF 7
