REMARK  Name = ZINC66952623
REMARK  8 active torsions:
REMARK  status: ('A' for Active; 'I' for Inactive)
REMARK    1  A    between atoms: C_1  and  N_2
REMARK    2  A    between atoms: N_2  and  C_3
REMARK    3  A    between atoms: C_6  and  N_9
REMARK    4  A    between atoms: N_12  and  C_13
REMARK    5  A    between atoms: C_13  and  C_14
REMARK    6  A    between atoms: C_14  and  O_24
REMARK    7  A    between atoms: C_25  and  O_27
REMARK    8  A    between atoms: O_27  and  C_28
REMARK                            x       y       z     vdW  Elec       q    Type
REMARK                         _______ _______ _______ _____ _____    ______ ____
ROOT
ATOM      1  N   UNL     1      -0.344  -2.874   4.805  0.00  0.00    -0.269 N 
ATOM      2  C   UNL     1      -0.129  -4.205   4.802  0.00  0.00    +0.304 C 
ATOM      3  O   UNL     1      -0.075  -4.810   3.748  0.00  0.00    -0.253 OA
ATOM      4  N   UNL     1       0.025  -4.865   5.966  0.00  0.00    -0.296 N 
ATOM      5  H   UNL     1      -0.456  -2.403   5.645  0.00  0.00    +0.156 HD
ATOM      6  H   UNL     1      -0.018  -4.383   6.807  0.00  0.00    +0.150 HD
ENDROOT
BRANCH   1  10
ATOM      7  C   UNL     1      -0.524  -0.783   1.201  0.00  0.00    +0.039 A 
ATOM      8  C   UNL     1       0.035  -0.186   2.323  0.00  0.00    +0.025 A 
ATOM      9  C   UNL     1       0.094  -0.878   3.516  0.00  0.00    +0.025 A 
ATOM     10  C   UNL     1      -0.404  -2.172   3.594  0.00  0.00    +0.035 A 
ATOM     11  C   UNL     1      -0.963  -2.769   2.472  0.00  0.00    +0.025 A 
ATOM     12  C   UNL     1      -1.027  -2.075   1.280  0.00  0.00    +0.025 A 
BRANCH   7  14
ATOM     13  C   UNL     1      -1.418   1.119  -0.120  0.00  0.00    +0.142 C 
ATOM     14  N   UNL     1      -0.585  -0.081  -0.010  0.00  0.00    -0.240 N 
ATOM     15  C   UNL     1       0.124  -0.508  -1.073  0.00  0.00    +0.407 C 
ATOM     16  O   UNL     1       0.744  -1.552  -1.011  0.00  0.00    -0.226 OA
BRANCH  15  17
ATOM     17  O   UNL     1       0.146   0.221  -2.205  0.00  0.00    -0.453 OA
ATOM     18  C   UNL     1       0.918  -0.292  -3.293  0.00  0.00    +0.282 C 
ENDBRANCH  15  17
ENDBRANCH   7  14
ENDBRANCH   1  10
BRANCH   4  19
ATOM     19  C   UNL     1       0.258  -6.312   5.963  0.00  0.00    +0.145 C 
BRANCH  19  20
ATOM     20  C   UNL     1       0.278  -6.829   7.403  0.00  0.00    +0.107 C 
ATOM     21  C   UNL     1       1.359  -6.088   8.189  0.00  0.00    +0.041 C 
ATOM     22  C   UNL     1       1.512  -6.765   9.556  0.00  0.00    +0.008 C 
ATOM     23  C   UNL     1       2.152  -8.136   9.345  0.00  0.00    +0.035 C 
ATOM     24  C   UNL     1       1.408  -8.911   8.290  0.00  0.00    -0.041 A 
ATOM     25  C   UNL     1       0.550  -8.310   7.395  0.00  0.00    -0.011 A 
ATOM     26  C   UNL     1      -0.100  -9.082   6.442  0.00  0.00    +0.007 A 
ATOM     27  C   UNL     1       0.103 -10.446   6.386  0.00  0.00    +0.000 A 
ATOM     28  C   UNL     1       0.961 -11.049   7.286  0.00  0.00    +0.000 A 
ATOM     29  C   UNL     1       1.610 -10.284   8.233  0.00  0.00    +0.004 A 
BRANCH  20  30
ATOM     30  O   UNL     1      -0.993  -6.586   8.008  0.00  0.00    -0.382 OA
ATOM     31  H   UNL     1      -1.732  -7.019   7.558  0.00  0.00    +0.211 HD
ENDBRANCH  20  30
ENDBRANCH  19  20
ENDBRANCH   4  19
TORSDOF 6
