REMARK  Name = ZINC39232556
REMARK  6 active torsions:
REMARK  status: ('A' for Active; 'I' for Inactive)
REMARK    1  A    between atoms: C_5  and  C_7
REMARK    2  A    between atoms: C_7  and  S_8
REMARK    3  A    between atoms: S_8  and  C_9
REMARK    4  A    between atoms: C_14  and  C_15
REMARK    5  A    between atoms: N_20  and  C_21
REMARK    6  A    between atoms: N_23  and  C_24
REMARK                            x       y       z     vdW  Elec       q    Type
REMARK                         _______ _______ _______ _____ _____    ______ ____
ROOT
ATOM      1  C   UNL     1       1.304  -4.755   4.006  0.00  0.00    +0.194 C 
ATOM      2  N   UNL     1       1.778  -5.710   5.035  0.00  0.00    -0.289 N 
ATOM      3  N   UNL     1       2.788  -5.445   5.646  0.00  0.00    -0.153 NA
ATOM      4  C   UNL     1       3.541  -4.307   5.456  0.00  0.00    +0.203 C 
ATOM      5  N   UNL     1       4.650  -3.929   6.067  0.00  0.00    -0.136 NA
ATOM      6  S   UNL     1       2.621  -3.473   4.162  0.00  0.00    -0.056 S 
ATOM      7  H   UNL     1       1.290  -6.529   5.215  0.00  0.00    +0.184 HD
ENDROOT
BRANCH   1  13
ATOM      8  C   UNL     1       1.285  -4.572   1.503  0.00  0.00    +0.014 A 
ATOM      9  C   UNL     1       1.289  -5.151   0.240  0.00  0.00    +0.015 A 
ATOM     10  C   UNL     1       1.303  -6.526   0.113  0.00  0.00    +0.001 A 
ATOM     11  C   UNL     1       1.313  -7.326   1.241  0.00  0.00    +0.000 A 
ATOM     12  C   UNL     1       1.309  -6.753   2.500  0.00  0.00    +0.007 A 
ATOM     13  C   UNL     1       1.301  -5.379   2.635  0.00  0.00    -0.000 A 
BRANCH   8  14
ATOM     14  S   UNL     1       1.268  -2.818   1.670  0.00  0.00    -0.120 S 
BRANCH  14  15
ATOM     15  C   UNL     1       1.250  -2.214  -0.040  0.00  0.00    +0.112 C 
BRANCH  15  20
ATOM     16  C   UNL     1       0.015   1.353  -0.036  0.00  0.00    +0.000 A 
ATOM     17  C   UNL     1       1.204   2.059  -0.044  0.00  0.00    +0.003 A 
ATOM     18  C   UNL     1       2.409   1.383  -0.051  0.00  0.00    +0.038 A 
ATOM     19  C   UNL     1       2.425  -0.002  -0.050  0.00  0.00    +0.127 A 
ATOM     20  C   UNL     1       1.234  -0.707  -0.041  0.00  0.00    -0.002 A 
ATOM     21  C   UNL     1       0.030  -0.029  -0.035  0.00  0.00    +0.007 A 
ATOM     22  F   UNL     1       3.603  -0.664  -0.057  0.00  0.00    -0.205 F 
ENDBRANCH  15  20
ENDBRANCH  14  15
ENDBRANCH   8  14
ENDBRANCH   1  13
BRANCH   5  23
ATOM     23  C   UNL     1       5.239  -2.769   5.732  0.00  0.00    +0.330 C 
ATOM     24  O   UNL     1       4.751  -2.066   4.866  0.00  0.00    -0.250 OA
ATOM     25  N   UNL     1       6.370  -2.383   6.355  0.00  0.00    -0.268 N 
ATOM     26  H   UNL     1       6.722  -2.909   7.090  0.00  0.00    +0.156 HD
BRANCH  25  27
ATOM     27  C   UNL     1       7.037  -1.225   5.941  0.00  0.00    +0.036 A 
ATOM     28  C   UNL     1       8.424  -1.170   5.977  0.00  0.00    +0.025 A 
ATOM     29  C   UNL     1       9.080  -0.026   5.569  0.00  0.00    +0.023 A 
ATOM     30  C   UNL     1       8.357   1.067   5.124  0.00  0.00    +0.059 A 
ATOM     31  C   UNL     1       6.974   1.016   5.087  0.00  0.00    +0.061 A 
ATOM     32  C   UNL     1       6.313  -0.130   5.489  0.00  0.00    +0.044 A 
ATOM     33 CL   UNL     1       6.069   2.388   4.529  0.00  0.00    -0.082 Cl
ATOM     34 CL   UNL     1       9.185   2.504   4.611  0.00  0.00    -0.082 Cl
ENDBRANCH  25  27
ENDBRANCH   5  23
TORSDOF 6
