REMARK  Name = ZINC01136385
REMARK  7 active torsions:
REMARK  status: ('A' for Active; 'I' for Inactive)
REMARK    1  A    between atoms: C_1  and  C_2
REMARK    2  A    between atoms: C_3  and  C_19
REMARK    3  A    between atoms: C_4  and  C_11
REMARK    4  A    between atoms: N_9  and  C_10
REMARK    5  A    between atoms: C_13  and  O_18
REMARK    6  A    between atoms: C_19  and  O_21
REMARK    7  A    between atoms: O_21  and  C_22
REMARK                            x       y       z     vdW  Elec       q    Type
REMARK                         _______ _______ _______ _____ _____    ______ ____
ROOT
ATOM      1  C   UNL     1       2.490   4.346  -0.258  0.00  0.00    +0.061 C 
ATOM      2  C   UNL     1       1.227   3.535  -0.123  0.00  0.00    +0.024 C 
ATOM      3  C   UNL     1       0.034   4.166  -0.088  0.00  0.00    +0.078 C 
ATOM      4  C   UNL     1      -1.211   3.314   0.048  0.00  0.00    +0.145 C 
ATOM      5  N   UNL     1      -1.016   1.856   0.126  0.00  0.00    -0.288 N 
ATOM      6  C   UNL     1       0.241   1.374   0.082  0.00  0.00    +0.307 C 
ATOM      7  O   UNL     1       0.413   0.172   0.149  0.00  0.00    -0.252 OA
ATOM      8  N   UNL     1       1.308   2.175  -0.039  0.00  0.00    -0.262 N 
ATOM      9  C   UNL     1       2.635   1.556  -0.084  0.00  0.00    +0.139 C 
ATOM     10  H   UNL     1      -1.775   1.257   0.210  0.00  0.00    +0.151 HD
ENDROOT
BRANCH   4  11
ATOM     11  C   UNL     1      -1.944   3.756   1.289  0.00  0.00    -0.005 A 
ATOM     12  C   UNL     1      -1.282   4.483   2.259  0.00  0.00    +0.052 A 
ATOM     13  C   UNL     1      -1.956   4.889   3.401  0.00  0.00    +0.117 A 
ATOM     14  C   UNL     1      -3.295   4.564   3.566  0.00  0.00    +0.046 A 
ATOM     15  C   UNL     1      -3.954   3.837   2.593  0.00  0.00    +0.019 A 
ATOM     16  C   UNL     1      -3.280   3.438   1.452  0.00  0.00    +0.023 A 
ATOM     17 BR   UNL     1      -4.186   2.449   0.119  0.00  0.00    -0.050 Br
BRANCH  13  18
ATOM     18  O   UNL     1      -1.307   5.604   4.357  0.00  0.00    -0.507 OA
ATOM     19  H   UNL     1      -1.350   6.562   4.230  0.00  0.00    +0.292 HD
ENDBRANCH  13  18
ENDBRANCH   4  11
BRANCH   3  20
ATOM     20  C   UNL     1      -0.051   5.576  -0.174  0.00  0.00    +0.339 C 
ATOM     21  O   UNL     1       0.964   6.247  -0.179  0.00  0.00    -0.245 OA
BRANCH  20  22
ATOM     22  O   UNL     1      -1.257   6.176  -0.252  0.00  0.00    -0.465 OA
ATOM     23  C   UNL     1      -1.268   7.602  -0.337  0.00  0.00    +0.280 C 
ENDBRANCH  20  22
ENDBRANCH   3  20
TORSDOF 4
