REMARK  Name = ZINC12339433
REMARK  6 active torsions:
REMARK  status: ('A' for Active; 'I' for Inactive)
REMARK    1  A    between atoms: C_1  and  N_42
REMARK    2  A    between atoms: C_2  and  N_42
REMARK    3  A    between atoms: C_3  and  N_42
REMARK    4  A    between atoms: C_4  and  C_5
REMARK    5  A    between atoms: C_6  and  C_7
REMARK    6  A    between atoms: C_18  and  N_21
REMARK                            x       y       z     vdW  Elec       q    Type
REMARK                         _______ _______ _______ _____ _____    ______ ____
ROOT
ATOM      1  C   UNL     1       1.813   4.588   0.010  0.00  0.00    +0.009 C 
ATOM      2  C   UNL     1       0.882   3.531   0.035  0.00  0.00    -0.010 C 
ATOM      3  C   UNL     1      -0.564   3.638  -0.218  0.00  0.00    -0.010 A 
ATOM      4  C   UNL     1      -1.386   4.723  -0.532  0.00  0.00    +0.009 A 
ATOM      5  C   UNL     1      -2.744   4.526  -0.720  0.00  0.00    +0.001 A 
ATOM      6  C   UNL     1      -3.289   3.263  -0.598  0.00  0.00    +0.001 A 
ATOM      7  C   UNL     1      -2.482   2.174  -0.286  0.00  0.00    +0.009 A 
ATOM      8  C   UNL     1      -1.123   2.350  -0.089  0.00  0.00    -0.010 A 
ATOM      9  C   UNL     1      -0.033   1.397   0.242  0.00  0.00    -0.009 A 
ATOM     10  C   UNL     1       1.177   2.117   0.319  0.00  0.00    -0.007 A 
ATOM     11  C   UNL     1       2.364   1.447   0.625  0.00  0.00    +0.041 A 
ATOM     12  C   UNL     1       2.345   0.080   0.850  0.00  0.00    +0.127 A 
ATOM     13  C   UNL     1       1.159  -0.622   0.774  0.00  0.00    +0.033 A 
ATOM     14  C   UNL     1      -0.031   0.032   0.470  0.00  0.00    +0.011 A 
ENDROOT
BRANCH  12  15
ATOM     15  N   UNL     1       3.603  -0.631   1.173  0.00  0.00    +0.056 N 
ATOM     16  O   UNL     1       3.588  -1.930   1.388  0.00  0.00    -0.126 OA
ATOM     17  O   UNL     1       4.736   0.036   1.246  0.00  0.00    -0.126 OA
ENDBRANCH  12  15
BRANCH   1  19
ATOM     18  C   UNL     1       4.079   5.389   0.201  0.00  0.00    +0.001 C 
ATOM     19  C   UNL     1       3.151   4.323   0.097  0.00  0.00    +0.001 C 
BRANCH  18  21
ATOM     20  C   UNL     1       4.559   7.737   0.315  0.00  0.00    +0.052 C 
ATOM     21  C   UNL     1       3.638   6.679   0.212  0.00  0.00    +0.013 C 
BRANCH  20  24
ATOM     22  C   UNL     1       2.693   9.284   0.233  0.00  0.00    +0.106 C 
ATOM     23  C   UNL     1       5.087  10.101   0.433  0.00  0.00    +0.106 C 
ATOM     24  N   UNL     1       4.155   9.004  -0.027  0.00  0.00    -0.404 NA
ATOM     25  H   UNL     1       4.239   9.011  -1.050  0.00  0.00    +0.125 HD
ENDBRANCH  20  24
ENDBRANCH  18  21
ENDBRANCH   1  19
TORSDOF 4
