REMARK  Name = ZINC46088503
REMARK  6 active torsions:
REMARK  status: ('A' for Active; 'I' for Inactive)
REMARK    1  A    between atoms: C_1  and  C_2
REMARK    2  A    between atoms: C_5  and  S_8
REMARK    3  A    between atoms: S_8  and  N_11
REMARK    4  A    between atoms: N_11  and  C_12
REMARK    5  A    between atoms: C_21  and  C_23
REMARK    6  A    between atoms: C_21  and  C_24
REMARK                            x       y       z     vdW  Elec       q    Type
REMARK                         _______ _______ _______ _____ _____    ______ ____
ROOT
ATOM      1  C   UNL     1       2.404  -4.609   1.213  0.00  0.00    +0.050 A 
ATOM      2  C   UNL     1       2.174  -3.425   1.902  0.00  0.00    +0.028 A 
ATOM      3  C   UNL     1       2.891  -3.137   3.049  0.00  0.00    +0.049 A 
ATOM      4  C   UNL     1       3.841  -4.030   3.512  0.00  0.00    +0.143 A 
ATOM      5  C   UNL     1       4.076  -5.218   2.822  0.00  0.00    +0.078 A 
ATOM      6  C   UNL     1       3.353  -5.510   1.677  0.00  0.00    +0.051 A 
ATOM      7  N   UNL     1       5.044  -6.111   3.304  0.00  0.00    -0.279 N 
ATOM      8  C   UNL     1       5.497  -5.966   4.568  0.00  0.00    +0.261 C 
ATOM      9  O   UNL     1       6.356  -6.708   4.995  0.00  0.00    -0.271 OA
ATOM     10  C   UNL     1       4.931  -4.879   5.446  0.00  0.00    +0.180 C 
ATOM     11  O   UNL     1       4.554  -3.760   4.640  0.00  0.00    -0.475 OA
ATOM     12  C   UNL     1       5.989  -4.442   6.461  0.00  0.00    +0.065 C 
ATOM     13  C   UNL     1       3.703  -5.410   6.187  0.00  0.00    +0.065 C 
ATOM     14  H   UNL     1       5.383  -6.822   2.738  0.00  0.00    +0.155 HD
ENDROOT
BRANCH   1  15
ATOM     15  N   UNL     1       1.676  -4.896   0.053  0.00  0.00    -0.216 N 
ATOM     16  H   UNL     1       2.097  -4.814  -0.817  0.00  0.00    +0.174 HD
BRANCH  15  17
ATOM     17  S   UNL     1       0.095  -5.376   0.166  0.00  0.00    +0.072 S 
ATOM     18  O   UNL     1      -0.340  -5.653  -1.158  0.00  0.00    -0.150 OA
ATOM     19  O   UNL     1      -0.558  -4.429   1.000  0.00  0.00    -0.150 OA
BRANCH  17  24
ATOM     20  C   UNL     1       0.029 -10.627   3.137  0.00  0.00    +0.044 C 
ATOM     21  C   UNL     1       0.046  -9.316   2.395  0.00  0.00    -0.050 A 
ATOM     22  C   UNL     1      -0.162  -8.132   3.079  0.00  0.00    +0.005 A 
ATOM     23  C   UNL     1      -0.147  -6.929   2.398  0.00  0.00    +0.029 A 
ATOM     24  C   UNL     1       0.077  -6.909   1.034  0.00  0.00    +0.109 A 
ATOM     25  C   UNL     1       0.286  -8.093   0.351  0.00  0.00    +0.029 A 
ATOM     26  C   UNL     1       0.275  -9.295   1.032  0.00  0.00    +0.005 A 
ENDBRANCH  17  24
ENDBRANCH  15  17
ENDBRANCH   1  15
TORSDOF 3
