REMARK  Name = ZINC67232006
REMARK  9 active torsions:
REMARK  status: ('A' for Active; 'I' for Inactive)
REMARK    1  A    between atoms: C_1  and  C_2
REMARK    2  A    between atoms: C_5  and  C_26
REMARK    3  A    between atoms: C_6  and  N_8
REMARK    4  A    between atoms: N_11  and  C_12
REMARK    5  A    between atoms: C_12  and  C_14
REMARK    6  A    between atoms: C_12  and  C_15
REMARK    7  A    between atoms: C_19  and  S_21
REMARK    8  A    between atoms: S_21  and  N_24
REMARK    9  A    between atoms: N_24  and  C_25
REMARK                            x       y       z     vdW  Elec       q    Type
REMARK                         _______ _______ _______ _____ _____    ______ ____
ROOT
ATOM      1  N   UNL     1       0.051  -2.797   2.393  0.00  0.00    -0.269 N 
ATOM      2  C   UNL     1       0.149  -2.135   3.562  0.00  0.00    +0.304 C 
ATOM      3  O   UNL     1       0.133  -0.919   3.575  0.00  0.00    -0.252 OA
ATOM      4  N   UNL     1       0.266  -2.819   4.717  0.00  0.00    -0.293 N 
ATOM      5  H   UNL     1      -0.018  -3.765   2.388  0.00  0.00    +0.156 HD
ATOM      6  H   UNL     1       0.279  -3.789   4.707  0.00  0.00    +0.151 HD
ENDROOT
BRANCH   1  12
ATOM      7  C   UNL     1       1.270   1.226  -0.157  0.00  0.00    +0.044 C 
ATOM      8  C   UNL     1       0.633  -0.138  -0.079  0.00  0.00    -0.049 A 
ATOM      9  C   UNL     1       0.045  -0.691  -1.202  0.00  0.00    +0.004 A 
ATOM     10  C   UNL     1      -0.541  -1.941  -1.134  0.00  0.00    +0.005 A 
ATOM     11  C   UNL     1      -0.540  -2.642   0.056  0.00  0.00    -0.029 A 
ATOM     12  C   UNL     1       0.049  -2.090   1.185  0.00  0.00    +0.038 A 
ATOM     13  C   UNL     1       0.641  -0.836   1.113  0.00  0.00    +0.027 A 
ATOM     14  C   UNL     1      -1.179  -4.005   0.129  0.00  0.00    +0.045 C 
ENDBRANCH   1  12
BRANCH   4  15
ATOM     15  C   UNL     1       0.373  -2.099   5.988  0.00  0.00    +0.102 C 
ATOM     16  C   UNL     1      -1.028  -1.759   6.501  0.00  0.00    +0.033 C 
BRANCH  15  17
ATOM     17  C   UNL     1       1.081  -2.964   6.998  0.00  0.00    -0.026 A 
ATOM     18  C   UNL     1       0.816  -4.320   7.054  0.00  0.00    +0.005 A 
ATOM     19  C   UNL     1       1.466  -5.114   7.980  0.00  0.00    +0.002 A 
ATOM     20  C   UNL     1       2.381  -4.552   8.851  0.00  0.00    +0.028 A 
ATOM     21  C   UNL     1       2.647  -3.197   8.794  0.00  0.00    +0.106 A 
ATOM     22  C   UNL     1       2.000  -2.403   7.865  0.00  0.00    +0.034 A 
BRANCH  21  23
ATOM     23  S   UNL     1       3.813  -2.481   9.904  0.00  0.00    +0.058 S 
ATOM     24  O   UNL     1       3.479  -1.104  10.012  0.00  0.00    -0.153 OA
ATOM     25  O   UNL     1       3.878  -3.339  11.035  0.00  0.00    -0.153 OA
BRANCH  23  26
ATOM     26  N   UNL     1       5.296  -2.552   9.170  0.00  0.00    -0.193 NA
ATOM     27  C   UNL     1       5.544  -1.787   7.946  0.00  0.00    +0.127 C 
ATOM     28  H   UNL     1       6.000  -3.100   9.550  0.00  0.00    +0.148 HD
ENDBRANCH  23  26
ENDBRANCH  21  23
ENDBRANCH  15  17
ENDBRANCH   4  15
TORSDOF 5
