REMARK  Name = ZINC66814010
REMARK  9 active torsions:
REMARK  status: ('A' for Active; 'I' for Inactive)
REMARK    1  A    between atoms: C_1  and  C_2
REMARK    2  A    between atoms: C_2  and  C_4
REMARK    3  A    between atoms: C_2  and  S_7
REMARK    4  A    between atoms: C_4  and  C_5
REMARK    5  A    between atoms: S_7  and  C_8
REMARK    6  A    between atoms: C_13  and  N_14
REMARK    7  A    between atoms: N_14  and  S_15
REMARK    8  A    between atoms: S_15  and  C_18
REMARK    9  A    between atoms: C_22  and  N_24
REMARK                            x       y       z     vdW  Elec       q    Type
REMARK                         _______ _______ _______ _____ _____    ______ ____
ROOT
ATOM      1  N   UNL     1      -4.574  -1.039  -0.552  0.00  0.00    -0.215 N 
ATOM      2  H   UNL     1      -4.422  -0.763   0.365  0.00  0.00    +0.174 HD
ENDROOT
BRANCH   1   8
ATOM      3  C   UNL     1      -2.324  -0.526  -1.287  0.00  0.00    +0.030 A 
ATOM      4  C   UNL     1      -1.450  -0.135  -2.291  0.00  0.00    +0.016 A 
ATOM      5  C   UNL     1      -1.933   0.147  -3.555  0.00  0.00    +0.001 A 
ATOM      6  C   UNL     1      -3.285   0.040  -3.824  0.00  0.00    +0.002 A 
ATOM      7  C   UNL     1      -4.163  -0.349  -2.829  0.00  0.00    +0.025 A 
ATOM      8  C   UNL     1      -3.688  -0.639  -1.559  0.00  0.00    +0.061 A 
BRANCH   3   9
ATOM      9  S   UNL     1      -1.712  -0.886   0.326  0.00  0.00    -0.119 S 
BRANCH   9  11
ATOM     10  C   UNL     1       0.173   1.089   0.152  0.00  0.00    +0.020 C 
ATOM     11  C   UNL     1       0.042  -0.433   0.241  0.00  0.00    +0.062 C 
BRANCH  11  12
ATOM     12  C   UNL     1       0.760  -0.934   1.496  0.00  0.00    +0.132 C 
BRANCH  12  13
ATOM     13  C   UNL     1       0.738  -2.405   1.520  0.00  0.00    +0.064 C 
ATOM     14  N   UNL     1       0.721  -3.541   1.538  0.00  0.00    -0.197 NA
ENDBRANCH  12  13
ENDBRANCH  11  12
ENDBRANCH   9  11
ENDBRANCH   3   9
ENDBRANCH   1   8
BRANCH   1  15
ATOM     15  S   UNL     1      -5.882  -1.984  -0.927  0.00  0.00    +0.072 S 
ATOM     16  O   UNL     1      -6.498  -2.332   0.305  0.00  0.00    -0.150 OA
ATOM     17  O   UNL     1      -6.582  -1.313  -1.966  0.00  0.00    -0.150 OA
BRANCH  15  18
ATOM     18  C   UNL     1      -5.262  -3.480  -1.621  0.00  0.00    +0.111 A 
ATOM     19  C   UNL     1      -5.054  -3.574  -2.985  0.00  0.00    +0.033 A 
ATOM     20  C   UNL     1      -4.568  -4.746  -3.531  0.00  0.00    +0.055 A 
ATOM     21  C   UNL     1      -4.288  -5.829  -2.711  0.00  0.00    +0.209 A 
ATOM     22  C   UNL     1      -4.497  -5.732  -1.343  0.00  0.00    +0.174 A 
ATOM     23  C   UNL     1      -4.979  -4.556  -0.800  0.00  0.00    +0.065 A 
ATOM     24  O   UNL     1      -3.811  -6.983  -3.246  0.00  0.00    -0.285 OA
BRANCH  22  25
ATOM     25  N   UNL     1      -4.200  -6.885  -0.464  0.00  0.00    +0.060 N 
ATOM     26  O   UNL     1      -4.382  -6.800   0.728  0.00  0.00    -0.126 OA
ATOM     27  O   UNL     1      -3.775  -7.913  -0.939  0.00  0.00    -0.126 OA
ENDBRANCH  22  25
ENDBRANCH  15  18
ENDBRANCH   1  15
TORSDOF 8
