REMARK  Name = ZINC63129451
REMARK  9 active torsions:
REMARK  status: ('A' for Active; 'I' for Inactive)
REMARK    1  A    between atoms: C_1  and  O_2
REMARK    2  A    between atoms: O_2  and  C_3
REMARK    3  A    between atoms: C_6  and  C_20
REMARK    4  A    between atoms: C_8  and  C_9
REMARK    5  A    between atoms: C_9  and  S_10
REMARK    6  A    between atoms: S_10  and  C_11
REMARK    7  A    between atoms: C_21  and  C_22
REMARK    8  A    between atoms: C_22  and  C_24
REMARK    9  A    between atoms: C_33  and  O_34
REMARK                            x       y       z     vdW  Elec       q    Type
REMARK                         _______ _______ _______ _____ _____    ______ ____
ROOT
ATOM      1  C   UNL     1       0.605  -0.606  -1.054  0.00  0.00    +0.124 A 
ATOM      2  C   UNL     1       1.172   0.167  -2.062  0.00  0.00    +0.046 A 
ATOM      3  C   UNL     1       1.785  -0.439  -3.135  0.00  0.00    +0.011 A 
ATOM      4  C   UNL     1       1.837  -1.836  -3.211  0.00  0.00    -0.024 A 
ATOM      5  C   UNL     1       1.264  -2.610  -2.195  0.00  0.00    +0.016 A 
ATOM      6  C   UNL     1       0.658  -1.994  -1.123  0.00  0.00    +0.005 A 
ENDROOT
BRANCH   1   8
ATOM      7  C   UNL     1      -0.017   1.425   0.010  0.00  0.00    +0.277 C 
ATOM      8  O   UNL     1       0.002  -0.004   0.002  0.00  0.00    -0.495 OA
ENDBRANCH   1   8
BRANCH   4   9
ATOM      9  C   UNL     1       2.489  -2.488  -4.355  0.00  0.00    +0.012 C 
ATOM     10  C   UNL     1       3.040  -1.739  -5.336  0.00  0.00    +0.052 C 
BRANCH  10  11
ATOM     11  C   UNL     1       3.689  -2.388  -6.474  0.00  0.00    +0.190 C 
ATOM     12  O   UNL     1       3.733  -3.603  -6.538  0.00  0.00    -0.287 OA
BRANCH  11  13
ATOM     13  C   UNL     1       4.291  -1.571  -7.543  0.00  0.00    +0.064 A 
ATOM     14  C   UNL     1       4.243  -0.166  -7.462  0.00  0.00    +0.016 A 
ATOM     15  C   UNL     1       4.789   0.607  -8.433  0.00  0.00    +0.009 A 
ATOM     16  C   UNL     1       5.416   0.011  -9.545  0.00  0.00    -0.014 A 
ATOM     17  C   UNL     1       5.987   0.796 -10.559  0.00  0.00    +0.008 A 
ATOM     18  C   UNL     1       6.587   0.194 -11.623  0.00  0.00    +0.001 A 
ATOM     19  C   UNL     1       6.645  -1.195 -11.722  0.00  0.00    +0.001 A 
ATOM     20  C   UNL     1       6.102  -1.988 -10.757  0.00  0.00    +0.012 A 
ATOM     21  C   UNL     1       5.475  -1.401  -9.646  0.00  0.00    +0.024 A 
ATOM     22  C   UNL     1       4.909  -2.193  -8.626  0.00  0.00    +0.135 A 
BRANCH  22  23
ATOM     23  O   UNL     1       4.959  -3.545  -8.702  0.00  0.00    -0.505 OA
ATOM     24  H   UNL     1       4.206  -3.942  -9.159  0.00  0.00    +0.292 HD
ENDBRANCH  22  23
ENDBRANCH  11  13
ENDBRANCH  10  11
ENDBRANCH   4   9
BRANCH   6  25
ATOM     25  C   UNL     1       0.047  -2.825  -0.025  0.00  0.00    +0.111 C 
BRANCH  25  26
ATOM     26  S   UNL     1      -1.688  -3.174  -0.425  0.00  0.00    -0.110 S 
BRANCH  26  27
ATOM     27  C   UNL     1      -2.270  -4.169   0.976  0.00  0.00    +0.236 C 
ATOM     28  N   UNL     1      -2.072  -3.435   2.232  0.00  0.00    -0.355 N 
ATOM     29  C   UNL     1      -1.270  -4.141   2.975  0.00  0.00    +0.061 A 
ATOM     30  C   UNL     1      -0.711  -3.934   4.318  0.00  0.00    +0.027 A 
ATOM     31  C   UNL     1       0.114  -4.861   4.845  0.00  0.00    +0.002 A 
ATOM     32  C   UNL     1       0.470  -6.036   4.159  0.00  0.00    +0.002 A 
ATOM     33  C   UNL     1       0.014  -6.324   2.924  0.00  0.00    +0.027 A 
ATOM     34  C   UNL     1      -0.892  -5.384   2.249  0.00  0.00    +0.061 A 
ATOM     35  N   UNL     1      -1.476  -5.399   1.085  0.00  0.00    -0.355 N 
ATOM     36  H   UNL     1      -2.466  -2.580   2.465  0.00  0.00    +0.162 HD
ATOM     37  H   UNL     1      -1.399  -6.095   0.414  0.00  0.00    +0.162 HD
ENDBRANCH  26  27
ENDBRANCH  25  26
ENDBRANCH   6  25
TORSDOF 8
