REMARK  Name = ZINC00720027
REMARK  6 active torsions:
REMARK  status: ('A' for Active; 'I' for Inactive)
REMARK    1  A    between atoms: C_1  and  C_2
REMARK    2  A    between atoms: C_7  and  C_17
REMARK    3  A    between atoms: C_21  and  O_23
REMARK    4  A    between atoms: C_26  and  C_28
REMARK    5  A    between atoms: C_28  and  O_30
REMARK    6  A    between atoms: O_30  and  C_31
REMARK                            x       y       z     vdW  Elec       q    Type
REMARK                         _______ _______ _______ _____ _____    ______ ____
ROOT
ATOM      1  C   UNL     1       6.339  -2.349   3.011  0.00  0.00    +0.009 C 
ATOM      2  C   UNL     1       5.625  -1.234   3.779  0.00  0.00    +0.013 C 
ATOM      3  C   UNL     1       5.907   0.114   3.117  0.00  0.00    +0.055 C 
ATOM      4  C   UNL     1       5.412   0.099   1.680  0.00  0.00    +0.017 C 
ATOM      5  C   UNL     1       4.328  -0.618   1.341  0.00  0.00    +0.037 C 
ATOM      6  C   UNL     1       3.716  -0.701  -0.037  0.00  0.00    +0.136 C 
ATOM      7  N   UNL     1       4.537  -0.145  -1.092  0.00  0.00    -0.331 N 
ATOM      8  C   UNL     1       4.842   1.214  -1.127  0.00  0.00    +0.049 A 
ATOM      9  C   UNL     1       4.340   2.042  -2.118  0.00  0.00    +0.025 A 
ATOM     10  C   UNL     1       4.580   3.404  -2.053  0.00  0.00    +0.002 A 
ATOM     11  C   UNL     1       5.316   3.936  -1.009  0.00  0.00    +0.002 A 
ATOM     12  C   UNL     1       5.838   3.108  -0.030  0.00  0.00    +0.025 A 
ATOM     13  C   UNL     1       5.613   1.744  -0.103  0.00  0.00    +0.052 A 
ATOM     14  N   UNL     1       6.145   0.852   0.821  0.00  0.00    -0.316 N 
ATOM     15  C   UNL     1       3.651  -1.390   2.315  0.00  0.00    +0.177 C 
ATOM     16  O   UNL     1       2.664  -2.016   1.983  0.00  0.00    -0.291 OA
ATOM     17  C   UNL     1       4.110  -1.464   3.740  0.00  0.00    +0.171 C 
ATOM     18  H   UNL     1       4.881  -0.729  -1.786  0.00  0.00    +0.147 HD
ATOM     19  H   UNL     1       7.110   0.762   0.855  0.00  0.00    +0.152 HD
ENDROOT
BRANCH   6  20
ATOM     20  C   UNL     1       2.399   0.031  -0.021  0.00  0.00    -0.019 A 
ATOM     21  C   UNL     1       1.222  -0.657  -0.253  0.00  0.00    +0.006 A 
ATOM     22  C   UNL     1       0.013   0.012  -0.239  0.00  0.00    +0.004 A 
ATOM     23  C   UNL     1      -0.024   1.371   0.008  0.00  0.00    +0.045 A 
ATOM     24  C   UNL     1       1.155   2.063   0.242  0.00  0.00    +0.117 A 
ATOM     25  C   UNL     1       2.368   1.390   0.227  0.00  0.00    +0.051 A 
BRANCH  24  26
ATOM     26  O   UNL     1       1.122   3.400   0.486  0.00  0.00    -0.507 OA
ATOM     27  H   UNL     1       1.034   3.627   1.422  0.00  0.00    +0.292 HD
ENDBRANCH  24  26
ENDBRANCH   6  20
BRANCH  17  28
ATOM     28  C   UNL     1       3.790  -2.825   4.304  0.00  0.00    +0.318 C 
ATOM     29  O   UNL     1       4.679  -3.533   4.713  0.00  0.00    -0.250 OA
BRANCH  28  30
ATOM     30  O   UNL     1       2.518  -3.249   4.353  0.00  0.00    -0.467 OA
ATOM     31  C   UNL     1       2.284  -4.570   4.909  0.00  0.00    +0.280 C 
ENDBRANCH  28  30
ENDBRANCH  17  28
TORSDOF 4
