REMARK  Name = ZINC58885572
REMARK  11 active torsions:
REMARK  status: ('A' for Active; 'I' for Inactive)
REMARK    1  A    between atoms: C_1  and  C_2
REMARK    2  A    between atoms: C_2  and  N_3
REMARK    3  A    between atoms: N_3  and  C_4
REMARK    4  A    between atoms: N_3  and  C_6
REMARK    5  A    between atoms: C_4  and  C_5
REMARK    6  A    between atoms: C_6  and  C_8
REMARK    7  A    between atoms: C_6  and  C_27
REMARK    8  A    between atoms: C_8  and  N_9
REMARK    9  A    between atoms: N_12  and  C_13
REMARK   10  A    between atoms: C_17  and  N_19
REMARK   11  A    between atoms: C_20  and  C_22
REMARK                            x       y       z     vdW  Elec       q    Type
REMARK                         _______ _______ _______ _____ _____    ______ ____
ROOT
ATOM      1  N   UNL     1       2.606  -1.228  -2.479  0.00  0.00    -0.300 N 
ATOM      2  C   UNL     1       3.288  -1.026  -3.624  0.00  0.00    +0.304 C 
ATOM      3  O   UNL     1       2.754  -1.242  -4.695  0.00  0.00    -0.253 OA
ATOM      4  N   UNL     1       4.561  -0.585  -3.582  0.00  0.00    -0.269 N 
ATOM      5  H   UNL     1       3.032  -1.056  -1.625  0.00  0.00    +0.150 HD
ATOM      6  H   UNL     1       5.011  -0.483  -2.729  0.00  0.00    +0.156 HD
ENDROOT
BRANCH   4   7
ATOM      7  C   UNL     1       5.233  -0.274  -4.769  0.00  0.00    +0.037 A 
ATOM      8  C   UNL     1       6.597  -0.516  -4.880  0.00  0.00    +0.023 A 
ATOM      9  C   UNL     1       7.262  -0.209  -6.051  0.00  0.00    +0.004 A 
ATOM     10  C   UNL     1       6.573   0.339  -7.117  0.00  0.00    +0.023 A 
ATOM     11  C   UNL     1       5.209   0.582  -7.013  0.00  0.00    +0.035 A 
ATOM     12  C   UNL     1       4.538   0.270  -5.839  0.00  0.00    +0.046 A 
BRANCH  11  13
ATOM     13  N   UNL     1       4.513   1.136  -8.092  0.00  0.00    -0.281 N 
ATOM     14  C   UNL     1       4.868   0.825  -9.354  0.00  0.00    +0.255 C 
ATOM     15  O   UNL     1       5.737  -0.003  -9.556  0.00  0.00    -0.269 OA
ATOM     16  H   UNL     1       3.775   1.745  -7.931  0.00  0.00    +0.155 HD
BRANCH  14  17
ATOM     17  C   UNL     1       4.207   1.484 -10.484  0.00  0.00    +0.074 A 
ATOM     18  C   UNL     1       4.417   1.306 -11.844  0.00  0.00    +0.021 A 
ATOM     19  C   UNL     1       3.636   2.075 -12.673  0.00  0.00    +0.008 A 
ATOM     20  C   UNL     1       2.739   2.932 -12.127  0.00  0.00    +0.046 A 
ATOM     21  S   UNL     1       2.919   2.716 -10.470  0.00  0.00    -0.092 S 
ENDBRANCH  14  17
ENDBRANCH  11  13
ENDBRANCH   4   7
BRANCH   1  22
ATOM     22  C   UNL     1       1.223  -1.708  -2.525  0.00  0.00    +0.095 C 
BRANCH  22  23
ATOM     23  C   UNL     1       0.644  -1.731  -1.109  0.00  0.00    -0.020 C 
BRANCH  23  24
ATOM     24  C   UNL     1      -0.794  -2.178  -1.161  0.00  0.00    -0.052 A 
ATOM     25  C   UNL     1      -1.243  -3.194  -0.338  0.00  0.00    +0.009 A 
ATOM     26  C   UNL     1      -2.543  -3.572  -0.411  0.00  0.00    +0.045 A 
ATOM     27  S   UNL     1      -3.177  -2.477  -1.671  0.00  0.00    -0.105 S 
ATOM     28  C   UNL     1      -1.668  -1.586  -2.012  0.00  0.00    +0.047 A 
ENDBRANCH  23  24
BRANCH  23  29
ATOM     29  N   UNL     1       0.718  -0.384  -0.527  0.00  0.00    +0.385 N 
ATOM     30  H   UNL     1       1.671  -0.055  -0.561  0.00  0.00    -0.081 HD
BRANCH  29  32
ATOM     31  C   UNL     1       0.049   1.958  -0.786  0.00  0.00    -0.017 C 
ATOM     32  C   UNL     1      -0.143   0.528  -1.294  0.00  0.00    -0.081 C 
ENDBRANCH  29  32
BRANCH  29  33
ATOM     33  C   UNL     1       0.263  -0.428   0.869  0.00  0.00    -0.081 C 
ATOM     34  C   UNL     1       1.213  -1.305   1.687  0.00  0.00    -0.017 C 
ENDBRANCH  29  33
ENDBRANCH  23  29
ENDBRANCH  22  23
ENDBRANCH   1  22
TORSDOF 9
