REMARK  Name = ZINC25073663
REMARK  12 active torsions:
REMARK  status: ('A' for Active; 'I' for Inactive)
REMARK    1  A    between atoms: C_1  and  C_2
REMARK    2  A    between atoms: C_2  and  C_3
REMARK    3  A    between atoms: C_3  and  C_5
REMARK    4  A    between atoms: C_3  and  N_6
REMARK    5  A    between atoms: C_15  and  N_31
REMARK    6  A    between atoms: C_21  and  O_29
REMARK    7  A    between atoms: C_22  and  O_27
REMARK    8  A    between atoms: C_23  and  O_25
REMARK    9  A    between atoms: O_25  and  C_26
REMARK   10  A    between atoms: O_27  and  C_28
REMARK   11  A    between atoms: O_29  and  C_30
REMARK   12  A    between atoms: N_31  and  C_32
REMARK                            x       y       z     vdW  Elec       q    Type
REMARK                         _______ _______ _______ _____ _____    ______ ____
ROOT
ATOM      1  N   UNL     1      -0.188  -0.784  -2.944  0.00  0.00    -0.277 NA
ATOM      2  C   UNL     1       0.308   0.134  -3.760  0.00  0.00    +0.105 A 
ATOM      3  C   UNL     1      -0.558   0.718  -4.684  0.00  0.00    +0.032 A 
ATOM      4  C   UNL     1      -0.293   1.623  -5.599  0.00  0.00    +0.011 A 
ATOM      5  C   UNL     1       0.859   2.303  -5.969  0.00  0.00    -0.012 A 
ATOM      6  C   UNL     1       2.096   2.200  -5.371  0.00  0.00    -0.050 A 
ATOM      7  C   UNL     1       2.414   1.351  -4.339  0.00  0.00    +0.055 A 
ATOM      8  C   UNL     1       1.707   0.466  -3.630  0.00  0.00    +0.204 A 
ATOM      9  O   UNL     1       2.390  -0.209  -2.674  0.00  0.00    -0.286 OA
ATOM     10  C   UNL     1       3.209   3.106  -5.859  0.00  0.00    -0.040 C 
ATOM     11  C   UNL     1       3.842   2.585  -7.133  0.00  0.00    -0.007 C 
ATOM     12  C   UNL     1       2.777   2.130  -8.127  0.00  0.00    +0.035 C 
ATOM     13  C   UNL     1       1.668   3.150  -8.179  0.00  0.00    -0.033 A 
ATOM     14  C   UNL     1       0.744   3.221  -7.142  0.00  0.00    +0.031 A 
ATOM     15  C   UNL     1      -0.296   4.154  -7.189  0.00  0.00    +0.173 A 
ATOM     16  C   UNL     1      -0.395   5.013  -8.275  0.00  0.00    +0.204 A 
ATOM     17  C   UNL     1       0.539   4.942  -9.303  0.00  0.00    +0.165 A 
ATOM     18  C   UNL     1       1.568   4.010  -9.253  0.00  0.00    +0.054 A 
ENDROOT
BRANCH  10  19
ATOM     19  N   UNL     1       4.241   3.199  -4.817  0.00  0.00    +0.382 N 
ATOM     20  C   UNL     1       5.244   4.198  -5.210  0.00  0.00    -0.100 C 
ATOM     21  H   UNL     1       3.815   3.475  -3.945  0.00  0.00    -0.085 HD
ATOM     22  H   UNL     1       4.687   2.301  -4.704  0.00  0.00    -0.085 HD
ENDBRANCH  10  19
BRANCH   1  23
ATOM     23  C   UNL     1       0.465  -1.052  -1.660  0.00  0.00    +0.103 C 
ATOM     24  C   UNL     1       1.260  -2.356  -1.754  0.00  0.00    +0.032 C 
BRANCH  23  26
ATOM     25  C   UNL     1      -1.308   0.164  -0.385  0.00  0.00    +0.006 C 
ATOM     26  C   UNL     1      -0.596  -1.179  -0.565  0.00  0.00    +0.023 C 
ENDBRANCH  23  26
ENDBRANCH   1  23
BRANCH  17  27
ATOM     27  O   UNL     1       0.444   5.788 -10.363  0.00  0.00    -0.491 OA
ATOM     28  C   UNL     1       1.434   5.661 -11.385  0.00  0.00    +0.277 C 
ENDBRANCH  17  27
BRANCH  16  29
ATOM     29  O   UNL     1      -1.404   5.925  -8.333  0.00  0.00    -0.488 OA
ATOM     30  C   UNL     1      -2.629   5.499  -8.932  0.00  0.00    +0.277 C 
ENDBRANCH  16  29
BRANCH  15  31
ATOM     31  O   UNL     1      -1.205   4.218  -6.179  0.00  0.00    -0.491 OA
ATOM     32  C   UNL     1      -0.965   5.181  -5.152  0.00  0.00    +0.277 C 
ENDBRANCH  15  31
TORSDOF 6
