REMARK  Name = ZINC15430725
REMARK  10 active torsions:
REMARK  status: ('A' for Active; 'I' for Inactive)
REMARK    1  A    between atoms: C_1  and  C_2
REMARK    2  A    between atoms: C_5  and  C_8
REMARK    3  A    between atoms: C_10  and  C_13
REMARK    4  A    between atoms: C_13  and  C_14
REMARK    5  A    between atoms: C_14  and  C_15
REMARK    6  A    between atoms: N_17  and  N_18
REMARK    7  A    between atoms: N_18  and  C_19
REMARK    8  A    between atoms: C_19  and  N_21
REMARK    9  A    between atoms: N_21  and  C_22
REMARK   10  A    between atoms: C_22  and  C_23
REMARK                            x       y       z     vdW  Elec       q    Type
REMARK                         _______ _______ _______ _____ _____    ______ ____
ROOT
ATOM      1  C   UNL     1      -0.718   1.572   1.248  0.00  0.00    +0.230 C 
ATOM      2  O   UNL     1      -1.714   2.256   1.150  0.00  0.00    -0.274 OA
ATOM      3  N   UNL     1      -0.242   1.246   2.466  0.00  0.00    -0.235 N 
ATOM      4  H   UNL     1       0.555   0.699   2.544  0.00  0.00    +0.173 HD
ENDROOT
BRANCH   3   5
ATOM      5  N   UNL     1      -0.897   1.698   3.618  0.00  0.00    -0.246 N 
ATOM      6  H   UNL     1      -1.694   2.245   3.540  0.00  0.00    +0.172 HD
BRANCH   5   7
ATOM      7  C   UNL     1      -0.421   1.372   4.836  0.00  0.00    +0.147 C 
ATOM      8  S   UNL     1      -1.222   1.924   6.245  0.00  0.00    -0.017 S 
BRANCH   7   9
ATOM      9  N   UNL     1       0.686   0.611   4.945  0.00  0.00    -0.323 N 
ATOM     10  H   UNL     1       1.141   0.299   4.147  0.00  0.00    +0.148 HD
BRANCH   9  11
ATOM     11  C   UNL     1       1.204   0.257   6.269  0.00  0.00    +0.134 C 
BRANCH  11  12
ATOM     12  C   UNL     1       2.459  -0.605   6.112  0.00  0.00    +0.135 C 
ATOM     13  C   UNL     1       3.012  -0.983   7.500  0.00  0.00    +0.035 C 
ATOM     14  C   UNL     1       3.004  -2.531   7.502  0.00  0.00    +0.031 C 
ATOM     15  C   UNL     1       2.978  -2.858   5.987  0.00  0.00    +0.160 C 
ATOM     16  O   UNL     1       2.129  -1.829   5.435  0.00  0.00    -0.375 OA
ENDBRANCH  11  12
ENDBRANCH   9  11
ENDBRANCH   7   9
ENDBRANCH   5   7
ENDBRANCH   3   5
BRANCH   1  17
ATOM     17  C   UNL     1      -0.013   1.086   0.008  0.00  0.00    +0.107 C 
BRANCH  17  18
ATOM     18  C   UNL     1      -0.753   1.593  -1.232  0.00  0.00    +0.108 C 
BRANCH  18  21
ATOM     19  C   UNL     1       0.584  -0.023  -4.151  0.00  0.00    +0.202 A 
ATOM     20  N   UNL     1      -0.280  -0.013  -3.110  0.00  0.00    -0.191 NA
ATOM     21  C   UNL     1      -0.047   1.107  -2.471  0.00  0.00    +0.228 A 
ATOM     22  O   UNL     1       0.929   1.740  -3.129  0.00  0.00    -0.338 OA
ATOM     23  N   UNL     1       1.283   1.080  -4.083  0.00  0.00    -0.056 NA
BRANCH  19  28
ATOM     24  C   UNL     1       1.087  -4.152  -8.135  0.00  0.00    +0.044 C 
ATOM     25  C   UNL     1       0.955  -3.071  -7.093  0.00  0.00    -0.050 A 
ATOM     26  C   UNL     1       1.769  -1.954  -7.151  0.00  0.00    +0.004 A 
ATOM     27  C   UNL     1       1.653  -0.962  -6.199  0.00  0.00    +0.012 A 
ATOM     28  C   UNL     1       0.713  -1.087  -5.178  0.00  0.00    +0.022 A 
ATOM     29  C   UNL     1      -0.101  -2.216  -5.121  0.00  0.00    +0.012 A 
ATOM     30  C   UNL     1       0.021  -3.200  -6.082  0.00  0.00    +0.004 A 
ENDBRANCH  19  28
ENDBRANCH  18  21
ENDBRANCH  17  18
ENDBRANCH   1  17
TORSDOF 9
