REMARK  Name = ZINC38806526
REMARK  8 active torsions:
REMARK  status: ('A' for Active; 'I' for Inactive)
REMARK    1  A    between atoms: C_1  and  C_2
REMARK    2  A    between atoms: C_9  and  C_14
REMARK    3  A    between atoms: C_14  and  N_15
REMARK    4  A    between atoms: N_15  and  C_16
REMARK    5  A    between atoms: C_19  and  C_22
REMARK    6  A    between atoms: C_22  and  C_23
REMARK    7  A    between atoms: C_22  and  C_24
REMARK    8  A    between atoms: N_27  and  C_28
REMARK                            x       y       z     vdW  Elec       q    Type
REMARK                         _______ _______ _______ _____ _____    ______ ____
ROOT
ATOM      1  N   UNL     1       1.171  -6.304   3.215  0.00  0.00    -0.255 N 
ATOM      2  C   UNL     1       0.309  -6.697   4.174  0.00  0.00    +0.307 C 
ATOM      3  O   UNL     1      -0.071  -7.851   4.215  0.00  0.00    -0.252 OA
ATOM      4  N   UNL     1      -0.131  -5.809   5.088  0.00  0.00    -0.296 N 
ATOM      5  H   UNL     1       0.172  -4.888   5.056  0.00  0.00    +0.151 HD
ENDROOT
BRANCH   1   6
ATOM      6  C   UNL     1       1.706  -7.246   2.328  0.00  0.00    +0.038 A 
ATOM      7  C   UNL     1       0.864  -8.095   1.622  0.00  0.00    +0.024 A 
ATOM      8  C   UNL     1       1.396  -9.022   0.748  0.00  0.00    +0.006 A 
ATOM      9  C   UNL     1       2.765  -9.105   0.575  0.00  0.00    -0.045 A 
ATOM     10  C   UNL     1       3.607  -8.262   1.277  0.00  0.00    +0.006 A 
ATOM     11  C   UNL     1       3.081  -7.329   2.148  0.00  0.00    +0.024 A 
BRANCH   9  12
ATOM     12  C   UNL     1       3.342 -10.119  -0.380  0.00  0.00    +0.013 C 
ATOM     13  C   UNL     1       4.136  -9.397  -1.471  0.00  0.00    +0.012 C 
ATOM     14  C   UNL     1       4.268 -11.068   0.382  0.00  0.00    +0.012 C 
ENDBRANCH   9  12
ENDBRANCH   1   6
BRANCH   4  15
ATOM     15  C   UNL     1      -1.067  -6.235   6.131  0.00  0.00    +0.075 C 
ATOM     16  C   UNL     1      -0.807  -5.746   7.558  0.00  0.00    +0.024 C 
ATOM     17  C   UNL     1      -1.970  -5.166   6.750  0.00  0.00    +0.024 C 
ENDBRANCH   4  15
BRANCH   1  18
ATOM     18  C   UNL     1       1.547  -4.893   3.100  0.00  0.00    +0.132 C 
BRANCH  18  27
ATOM     19  C   UNL     1       1.601   1.735   0.442  0.00  0.00    +0.044 C 
ATOM     20  C   UNL     1       1.368   0.249   0.348  0.00  0.00    -0.050 A 
ATOM     21  C   UNL     1       1.379  -0.366  -0.904  0.00  0.00    +0.005 A 
ATOM     22  C   UNL     1       1.177  -1.699  -1.067  0.00  0.00    +0.024 A 
ATOM     23  C   UNL     1       0.945  -2.528   0.046  0.00  0.00    +0.040 A 
ATOM     24  N   UNL     1       0.749  -3.835  -0.126  0.00  0.00    -0.284 N 
ATOM     25  C   UNL     1       0.524  -4.670   0.875  0.00  0.00    +0.226 C 
ATOM     26  O   UNL     1       0.352  -5.854   0.656  0.00  0.00    -0.275 OA
ATOM     27  C   UNL     1       0.483  -4.146   2.293  0.00  0.00    +0.116 C 
ATOM     28  C   UNL     1       0.706  -2.660   2.494  0.00  0.00    -0.003 C 
ATOM     29  C   UNL     1       0.927  -1.905   1.381  0.00  0.00    -0.007 A 
ATOM     30  C   UNL     1       1.157  -0.464   1.485  0.00  0.00    +0.012 A 
ATOM     31  H   UNL     1       0.771  -4.191  -1.028  0.00  0.00    +0.155 HD
ENDBRANCH  18  27
ENDBRANCH   1  18
TORSDOF 5
