REMARK  Name = ZINC14533183
REMARK  9 active torsions:
REMARK  status: ('A' for Active; 'I' for Inactive)
REMARK    1  A    between atoms: C_1  and  C_2
REMARK    2  A    between atoms: C_2  and  C_3
REMARK    3  A    between atoms: C_2  and  C_4
REMARK    4  A    between atoms: C_4  and  N_5
REMARK    5  A    between atoms: C_8  and  C_10
REMARK    6  A    between atoms: C_18  and  N_62
REMARK    7  A    between atoms: C_22  and  C_23
REMARK    8  A    between atoms: C_22  and  N_62
REMARK    9  A    between atoms: C_23  and  C_24
REMARK                            x       y       z     vdW  Elec       q    Type
REMARK                         _______ _______ _______ _____ _____    ______ ____
ROOT
ATOM      1  N   UNL     1      -1.501   2.680   7.557  0.00  0.00    -0.267 N 
ATOM      2  C   UNL     1      -1.127   2.510   6.278  0.00  0.00    +0.043 A 
ATOM      3  C   UNL     1      -0.815   1.200   6.122  0.00  0.00    +0.004 A 
ATOM      4  C   UNL     1      -1.020   0.602   7.376  0.00  0.00    +0.151 A 
ATOM      5  N   UNL     1      -1.434   1.559   8.189  0.00  0.00    -0.166 NA
ATOM      6  C   UNL     1      -0.349   0.581   4.833  0.00  0.00    +0.023 C 
ATOM      7  C   UNL     1      -0.679   1.548   3.687  0.00  0.00    -0.067 C 
ATOM      8  C   UNL     1      -0.182   2.951   4.044  0.00  0.00    -0.009 C 
ATOM      9  C   UNL     1      -1.043   3.532   5.173  0.00  0.00    +0.054 C 
ENDROOT
BRANCH   4  10
ATOM     10  C   UNL     1      -0.814  -0.820   7.720  0.00  0.00    +0.267 C 
ATOM     11  O   UNL     1      -0.428  -1.600   6.872  0.00  0.00    -0.268 OA
ATOM     12  N   UNL     1      -1.054  -1.251   8.974  0.00  0.00    -0.296 N 
ATOM     13  C   UNL     1      -1.516  -0.418  10.094  0.00  0.00    +0.108 C 
ATOM     14  C   UNL     1      -1.627  -1.333  11.331  0.00  0.00    +0.020 C 
ATOM     15  C   UNL     1      -0.673  -2.506  10.980  0.00  0.00    +0.020 C 
ATOM     16  C   UNL     1      -0.890  -2.636   9.452  0.00  0.00    +0.108 C 
ENDBRANCH   4  10
BRANCH   7  17
ATOM     17  N   UNL     1      -0.009   1.087   2.457  0.00  0.00    +0.381 N 
ATOM     18  H   UNL     1       0.004   0.060   2.443  0.00  0.00    -0.086 HD
ATOM     19  H   UNL     1       0.954   1.442   2.442  0.00  0.00    -0.086 HD
BRANCH  17  20
ATOM     20  C   UNL     1      -0.729   1.579   1.267  0.00  0.00    -0.078 C 
BRANCH  20  21
ATOM     21  C   UNL     1      -0.013   1.086   0.008  0.00  0.00    +0.016 C 
BRANCH  21  22
ATOM     22  C   UNL     1      -0.742   1.585  -1.213  0.00  0.00    -0.049 A 
ATOM     23  C   UNL     1      -1.750   0.824  -1.775  0.00  0.00    +0.005 A 
ATOM     24  C   UNL     1      -2.422   1.284  -2.891  0.00  0.00    +0.020 A 
ATOM     25  C   UNL     1      -2.079   2.501  -3.453  0.00  0.00    +0.041 A 
ATOM     26  C   UNL     1      -1.066   3.259  -2.893  0.00  0.00    +0.020 A 
ATOM     27  C   UNL     1      -0.398   2.801  -1.774  0.00  0.00    +0.005 A 
ATOM     28 CL   UNL     1      -2.919   3.076  -4.859  0.00  0.00    -0.084 Cl
ENDBRANCH  21  22
ENDBRANCH  20  21
ENDBRANCH  17  20
ENDBRANCH   7  17
BRANCH   1  29
ATOM     29  C   UNL     1      -1.922   3.953   8.147  0.00  0.00    +0.146 C 
BRANCH  29  31
ATOM     30  C   UNL     1       0.244   5.058   7.572  0.00  0.00    +0.009 C 
ATOM     31  C   UNL     1      -0.702   4.681   8.714  0.00  0.00    +0.004 C 
ATOM     32  C   UNL     1      -1.156   5.949   9.440  0.00  0.00    +0.009 C 
ENDBRANCH  29  31
ENDBRANCH   1  29
TORSDOF 7
