REMARK  Name = ZINC10168943
REMARK  11 active torsions:
REMARK  status: ('A' for Active; 'I' for Inactive)
REMARK    1  A    between atoms: C_1  and  C_2
REMARK    2  A    between atoms: C_4  and  C_31
REMARK    3  A    between atoms: C_5  and  N_9
REMARK    4  A    between atoms: C_6  and  C_8
REMARK    5  A    between atoms: C_10  and  C_12
REMARK    6  A    between atoms: C_12  and  N_57
REMARK    7  A    between atoms: C_13  and  N_57
REMARK    8  A    between atoms: C_14  and  N_57
REMARK    9  A    between atoms: N_19  and  C_22
REMARK   10  A    between atoms: C_27  and  O_28
REMARK   11  A    between atoms: O_28  and  C_29
REMARK                            x       y       z     vdW  Elec       q    Type
REMARK                         _______ _______ _______ _____ _____    ______ ____
ROOT
ATOM      1  C   UNL     1      -2.499   4.151  -1.014  0.00  0.00    -0.094 C 
ATOM      2  N   UNL     1      -1.960   5.156  -0.073  0.00  0.00    +0.392 N 
ATOM      3  H   UNL     1      -2.725   5.769   0.234  0.00  0.00    -0.080 HD
ENDROOT
BRANCH   2   4
ATOM      4  C   UNL     1      -1.381   4.483   1.108  0.00  0.00    +0.029 C 
ATOM      5  C   UNL     1      -2.455   3.619   1.800  0.00  0.00    +0.090 C 
ATOM      6  C   UNL     1      -1.883   2.220   1.732  0.00  0.00    +0.225 C 
ATOM      7  O   UNL     1      -2.415   1.222   2.168  0.00  0.00    -0.275 OA
ATOM      8  N   UNL     1      -0.699   2.258   1.107  0.00  0.00    -0.208 N 
ATOM      9  C   UNL     1      -0.319   3.479   0.714  0.00  0.00    +0.213 C 
ATOM     10  O   UNL     1       0.713   3.740   0.133  0.00  0.00    -0.277 OA
BRANCH   8  11
ATOM     11  C   UNL     1       0.079   1.111   0.884  0.00  0.00    +0.087 A 
ATOM     12  C   UNL     1      -0.086   0.375  -0.279  0.00  0.00    +0.047 A 
ATOM     13  C   UNL     1       0.682  -0.754  -0.497  0.00  0.00    +0.043 A 
ATOM     14  C   UNL     1       1.616  -1.152   0.444  0.00  0.00    +0.024 A 
ATOM     15  C   UNL     1       1.785  -0.422   1.606  0.00  0.00    +0.049 A 
ATOM     16  C   UNL     1       1.022   0.714   1.828  0.00  0.00    +0.142 A 
ATOM     17 CL   UNL     1       0.475  -1.675  -1.954  0.00  0.00    -0.083 Cl
BRANCH  16  18
ATOM     18  O   UNL     1       1.192   1.435   2.968  0.00  0.00    -0.493 OA
ATOM     19  C   UNL     1       2.177   0.968   3.891  0.00  0.00    +0.277 C 
ENDBRANCH  16  18
ENDBRANCH   8  11
ENDBRANCH   2   4
BRANCH   2  20
ATOM     20  C   UNL     1      -0.929   5.974  -0.745  0.00  0.00    +0.020 C 
BRANCH  20  22
ATOM     21  N   UNL     1      -0.855   7.667  -2.548  0.00  0.00    -0.287 N 
ATOM     22  C   UNL     1      -1.591   6.816  -1.805  0.00  0.00    +0.201 C 
ATOM     23  O   UNL     1      -2.787   6.729  -1.990  0.00  0.00    -0.278 OA
ATOM     24  H   UNL     1       0.088   7.788  -2.354  0.00  0.00    +0.155 HD
BRANCH  21  29
ATOM     25  C   UNL     1      -3.269  10.533  -6.807  0.00  0.00    +0.044 C 
ATOM     26  C   UNL     1      -2.627   9.771  -5.676  0.00  0.00    -0.050 A 
ATOM     27  C   UNL     1      -2.770   8.398  -5.600  0.00  0.00    +0.008 A 
ATOM     28  C   UNL     1      -2.183   7.697  -4.565  0.00  0.00    -0.029 A 
ATOM     29  C   UNL     1      -1.450   8.373  -3.599  0.00  0.00    +0.039 A 
ATOM     30  C   UNL     1      -1.313   9.753  -3.674  0.00  0.00    -0.029 A 
ATOM     31  C   UNL     1      -1.898  10.448  -4.715  0.00  0.00    +0.008 A 
ATOM     32  C   UNL     1      -0.523  10.492  -2.625  0.00  0.00    +0.045 C 
ATOM     33  C   UNL     1      -2.339   6.201  -4.483  0.00  0.00    +0.045 C 
ENDBRANCH  21  29
ENDBRANCH  20  22
ENDBRANCH   2  20
TORSDOF 6
