REMARK  Name = ZINC15362354
REMARK  9 active torsions:
REMARK  status: ('A' for Active; 'I' for Inactive)
REMARK    1  A    between atoms: C_1  and  C_2
REMARK    2  A    between atoms: C_10  and  C_12
REMARK    3  A    between atoms: C_12  and  N_13
REMARK    4  A    between atoms: N_13  and  C_14
REMARK    5  A    between atoms: C_14  and  C_16
REMARK    6  A    between atoms: C_14  and  C_25
REMARK    7  A    between atoms: C_19  and  C_22
REMARK    8  A    between atoms: C_22  and  C_23
REMARK    9  A    between atoms: C_22  and  C_24
REMARK                            x       y       z     vdW  Elec       q    Type
REMARK                         _______ _______ _______ _____ _____    ______ ____
ROOT
ATOM      1  N   UNL     1      -1.153  -4.037   4.646  0.00  0.00    -0.300 NA
ATOM      2  H   UNL     1      -1.960  -3.431   4.654  0.00  0.00    +0.123 HD
ENDROOT
BRANCH   1   3
ATOM      3  C   UNL     1       0.091  -3.257   4.601  0.00  0.00    +0.135 C 
BRANCH   3  13
ATOM      4  C   UNL     1      -0.018   1.503   0.010  0.00  0.00    +0.064 C 
ATOM      5  C   UNL     1       0.002  -0.004   0.002  0.00  0.00    +0.033 A 
ATOM      6  C   UNL     1       0.005  -0.653  -1.162  0.00  0.00    +0.070 A 
ATOM      7  S   UNL     1       0.032  -2.358  -0.630  0.00  0.00    -0.059 S 
ATOM      8  C   UNL     1       0.036  -2.054   1.123  0.00  0.00    +0.158 A 
ATOM      9  N   UNL     1       0.023  -0.686   1.195  0.00  0.00    -0.261 N 
ATOM     10  C   UNL     1       0.027  -0.142   2.448  0.00  0.00    +0.259 A 
ATOM     11  O   UNL     1       0.011   1.071   2.587  0.00  0.00    -0.267 OA
ATOM     12  C   UNL     1       0.049  -0.973   3.568  0.00  0.00    +0.093 A 
ATOM     13  C   UNL     1       0.066  -2.342   3.404  0.00  0.00    +0.037 A 
ATOM     14  N   UNL     1       0.052  -2.840   2.171  0.00  0.00    -0.338 N 
ATOM     15  H   UNL     1       0.065  -3.802   2.045  0.00  0.00    +0.168 HD
ENDBRANCH   3  13
ENDBRANCH   1   3
BRANCH   1  16
ATOM     16  C   UNL     1      -1.165  -4.943   5.803  0.00  0.00    +0.122 C 
BRANCH  16  17
ATOM     17  C   UNL     1      -2.077  -6.109   5.519  0.00  0.00    -0.026 A 
ATOM     18  C   UNL     1      -3.272  -5.905   4.856  0.00  0.00    +0.006 A 
ATOM     19  C   UNL     1      -4.109  -6.975   4.595  0.00  0.00    +0.004 A 
ATOM     20  C   UNL     1      -3.749  -8.248   4.997  0.00  0.00    -0.045 A 
ATOM     21  C   UNL     1      -2.552  -8.451   5.659  0.00  0.00    +0.004 A 
ATOM     22  C   UNL     1      -1.714  -7.382   5.916  0.00  0.00    +0.006 A 
BRANCH  20  23
ATOM     23  C   UNL     1      -4.661  -9.413   4.714  0.00  0.00    +0.013 C 
ATOM     24  C   UNL     1      -3.926 -10.436   3.844  0.00  0.00    +0.012 C 
ATOM     25  C   UNL     1      -5.075 -10.069   6.033  0.00  0.00    +0.012 C 
ENDBRANCH  20  23
ENDBRANCH  16  17
BRANCH  16  26
ATOM     26  C   UNL     1      -1.662  -4.201   7.017  0.00  0.00    +0.011 A 
ATOM     27  C   UNL     1      -1.218  -4.263   8.296  0.00  0.00    +0.013 A 
ATOM     28  C   UNL     1      -1.832  -3.482   9.257  0.00  0.00    +0.008 A 
ATOM     29  C   UNL     1      -2.860  -2.677   8.893  0.00  0.00    +0.045 A 
ATOM     30  S   UNL     1      -2.983  -3.007   7.142  0.00  0.00    -0.100 S 
ENDBRANCH  16  26
ENDBRANCH   1  16
TORSDOF 6
