REMARK  Name = ZINC12835706
REMARK  5 active torsions:
REMARK  status: ('A' for Active; 'I' for Inactive)
REMARK    1  A    between atoms: C_4  and  N_7
REMARK    2  A    between atoms: C_9  and  C_21
REMARK    3  A    between atoms: C_10  and  C_12
REMARK    4  A    between atoms: C_21  and  N_53
REMARK    5  A    between atoms: C_22  and  N_53
REMARK                            x       y       z     vdW  Elec       q    Type
REMARK                         _______ _______ _______ _____ _____    ______ ____
ROOT
ATOM      1  N   UNL     1       7.686   1.827  -0.239  0.00  0.00    -0.239 N 
ATOM      2  C   UNL     1       7.537   3.113  -0.651  0.00  0.00    +0.116 A 
ATOM      3  C   UNL     1       6.214   3.385  -0.691  0.00  0.00    -0.019 A 
ATOM      4  C   UNL     1       5.522   2.225  -0.290  0.00  0.00    +0.095 A 
ATOM      5  N   UNL     1       6.410   1.294  -0.014  0.00  0.00    -0.166 NA
ENDROOT
BRANCH   4   6
ATOM      6  C   UNL     1       4.049   2.081  -0.189  0.00  0.00    +0.006 A 
ATOM      7  C   UNL     1       3.268   3.162   0.216  0.00  0.00    +0.014 A 
ATOM      8  C   UNL     1       1.897   3.027   0.309  0.00  0.00    +0.050 A 
ATOM      9  C   UNL     1       1.293   1.818  -0.001  0.00  0.00    +0.166 A 
ATOM     10  C   UNL     1       2.069   0.734  -0.407  0.00  0.00    +0.167 A 
ATOM     11  C   UNL     1       3.443   0.866  -0.501  0.00  0.00    +0.059 A 
ATOM     12  O   UNL     1       1.244  -0.326  -0.650  0.00  0.00    -0.453 OA
ATOM     13  C   UNL     1       0.002  -0.004   0.002  0.00  0.00    +0.466 C 
ATOM     14  O   UNL     1      -0.017   1.435   0.010  0.00  0.00    -0.453 OA
ENDBRANCH   4   6
BRANCH   1  18
ATOM     15  C   UNL     1      11.304  -0.176   0.278  0.00  0.00    +0.000 A 
ATOM     16  C   UNL     1      10.112  -0.828   0.534  0.00  0.00    +0.002 A 
ATOM     17  C   UNL     1       8.911  -0.167   0.363  0.00  0.00    +0.028 A 
ATOM     18  C   UNL     1       8.902   1.154  -0.065  0.00  0.00    +0.065 A 
ATOM     19  C   UNL     1      10.101   1.805  -0.325  0.00  0.00    +0.028 A 
ATOM     20  C   UNL     1      11.299   1.140  -0.148  0.00  0.00    +0.002 A 
ENDBRANCH   1  18
BRANCH   3  21
ATOM     21  C   UNL     1       5.590   4.696  -1.093  0.00  0.00    -0.042 C 
BRANCH  21  22
ATOM     22  N   UNL     1       5.218   5.447   0.121  0.00  0.00    +0.386 N 
ATOM     23  H   UNL     1       6.059   5.619   0.684  0.00  0.00    -0.085 HD
ATOM     24  H   UNL     1       4.547   4.894   0.668  0.00  0.00    -0.085 HD
BRANCH  22  25
ATOM     25  C   UNL     1       4.603   6.737  -0.243  0.00  0.00    -0.040 C 
ATOM     26  C   UNL     1       3.735   7.256   0.923  0.00  0.00    -0.007 C 
ATOM     27  C   UNL     1       3.935   8.784   0.832  0.00  0.00    +0.034 C 
ATOM     28  C   UNL     1       5.288   8.967   0.176  0.00  0.00    -0.046 A 
ATOM     29  C   UNL     1       5.671   7.791  -0.441  0.00  0.00    -0.058 A 
ATOM     30  C   UNL     1       6.882   7.727  -1.109  0.00  0.00    +0.002 A 
ATOM     31  C   UNL     1       7.708   8.833  -1.159  0.00  0.00    +0.000 A 
ATOM     32  C   UNL     1       7.325  10.008  -0.542  0.00  0.00    +0.000 A 
ATOM     33  C   UNL     1       6.117  10.075   0.125  0.00  0.00    +0.004 A 
ENDBRANCH  22  25
ENDBRANCH  21  22
ENDBRANCH   3  21
TORSDOF 5
