REMARK  Name = ZINC67602309
REMARK  11 active torsions:
REMARK  status: ('A' for Active; 'I' for Inactive)
REMARK    1  A    between atoms: C_1  and  O_2
REMARK    2  A    between atoms: O_2  and  C_3
REMARK    3  A    between atoms: C_3  and  C_4
REMARK    4  A    between atoms: C_9  and  C_10
REMARK    5  A    between atoms: C_10  and  N_11
REMARK    6  A    between atoms: N_14  and  C_15
REMARK    7  A    between atoms: C_15  and  C_16
REMARK    8  A    between atoms: C_16  and  C_18
REMARK    9  A    between atoms: C_16  and  O_29
REMARK   10  A    between atoms: C_18  and  O_19
REMARK   11  A    between atoms: O_19  and  C_20
REMARK                            x       y       z     vdW  Elec       q    Type
REMARK                         _______ _______ _______ _____ _____    ______ ____
ROOT
ATOM      1  N   UNL     1      -4.010  -1.844  -1.330  0.00  0.00    -0.295 N 
ATOM      2  C   UNL     1      -5.198  -1.250  -1.558  0.00  0.00    +0.300 C 
ATOM      3  O   UNL     1      -5.974  -1.071  -0.639  0.00  0.00    -0.253 OA
ATOM      4  N   UNL     1      -5.526  -0.855  -2.804  0.00  0.00    -0.297 N 
ATOM      5  H   UNL     1      -3.390  -1.987  -2.063  0.00  0.00    +0.151 HD
ATOM      6  H   UNL     1      -4.907  -0.998  -3.537  0.00  0.00    +0.150 HD
ENDROOT
BRANCH   1   7
ATOM      7  C   UNL     1      -3.653  -2.273   0.025  0.00  0.00    +0.141 C 
BRANCH   7  13
ATOM      8  C   UNL     1      -1.156  -2.103   0.002  0.00  0.00    -0.017 A 
ATOM      9  C   UNL     1       0.100  -2.681  -0.008  0.00  0.00    +0.006 A 
ATOM     10  C   UNL     1       0.228  -4.057  -0.016  0.00  0.00    +0.000 A 
ATOM     11  C   UNL     1      -0.900  -4.856  -0.015  0.00  0.00    +0.000 A 
ATOM     12  C   UNL     1      -2.156  -4.279  -0.005  0.00  0.00    +0.005 A 
ATOM     13  C   UNL     1      -2.284  -2.902   0.008  0.00  0.00    -0.025 A 
BRANCH   8  14
ATOM     14  C   UNL     1      -1.295  -0.603   0.011  0.00  0.00    +0.195 C 
BRANCH  14  16
ATOM     15  C   UNL     1      -0.017   1.425   0.010  0.00  0.00    +0.194 C 
ATOM     16  O   UNL     1       0.002  -0.004   0.002  0.00  0.00    -0.378 OA
ENDBRANCH  14  16
ENDBRANCH   8  14
ENDBRANCH   7  13
ENDBRANCH   1   7
BRANCH   4  17
ATOM     17  C   UNL     1      -6.817  -0.210  -3.052  0.00  0.00    +0.140 C 
BRANCH  17  18
ATOM     18  C   UNL     1      -6.938   0.136  -4.537  0.00  0.00    +0.169 C 
BRANCH  18  19
ATOM     19  O   UNL     1      -6.963  -1.068  -5.306  0.00  0.00    -0.387 OA
ATOM     20  H   UNL     1      -7.699  -1.657  -5.090  0.00  0.00    +0.210 HD
ENDBRANCH  18  19
BRANCH  18  21
ATOM     21  C   UNL     1      -8.230   0.920  -4.775  0.00  0.00    +0.261 C 
BRANCH  21  22
ATOM     22  O   UNL     1      -8.286   1.344  -6.138  0.00  0.00    -0.489 OA
BRANCH  22  23
ATOM     23  C   UNL     1      -9.379   2.058  -6.518  0.00  0.00    +0.124 A 
ATOM     24  C   UNL     1     -10.372   2.350  -5.595  0.00  0.00    +0.049 A 
ATOM     25  C   UNL     1     -11.484   3.076  -5.979  0.00  0.00    +0.053 A 
ATOM     26  C   UNL     1     -11.609   3.515  -7.287  0.00  0.00    +0.166 A 
ATOM     27  C   UNL     1     -10.613   3.224  -8.216  0.00  0.00    +0.170 A 
ATOM     28  C   UNL     1      -9.497   2.500  -7.827  0.00  0.00    +0.095 A 
ATOM     29  O   UNL     1     -10.968   3.761  -9.420  0.00  0.00    -0.452 OA
ATOM     30  C   UNL     1     -12.379   4.031  -9.319  0.00  0.00    +0.466 C 
ATOM     31  O   UNL     1     -12.589   4.235  -7.910  0.00  0.00    -0.453 OA
ENDBRANCH  22  23
ENDBRANCH  21  22
ENDBRANCH  18  21
ENDBRANCH  17  18
ENDBRANCH   4  17
TORSDOF 10
