REMARK  Name = ZINC39666414
REMARK  9 active torsions:
REMARK  status: ('A' for Active; 'I' for Inactive)
REMARK    1  A    between atoms: C_1  and  C_2
REMARK    2  A    between atoms: C_2  and  C_3
REMARK    3  A    between atoms: C_6  and  C_9
REMARK    4  A    between atoms: C_13  and  C_22
REMARK    5  A    between atoms: N_24  and  C_25
REMARK    6  A    between atoms: C_25  and  C_26
REMARK    7  A    between atoms: C_26  and  C_28
REMARK    8  A    between atoms: C_26  and  O_29
REMARK    9  A    between atoms: O_29  and  C_30
REMARK                            x       y       z     vdW  Elec       q    Type
REMARK                         _______ _______ _______ _____ _____    ______ ____
ROOT
ATOM      1  C   UNL     1      -5.299  -3.247   0.864  0.00  0.00    +0.247 C 
ATOM      2  O   UNL     1      -5.800  -3.781   1.835  0.00  0.00    -0.270 OA
ATOM      3  N   UNL     1      -5.991  -3.160  -0.289  0.00  0.00    -0.296 N 
ATOM      4  C   UNL     1      -5.510  -2.668  -1.601  0.00  0.00    +0.121 C 
ATOM      5  C   UNL     1      -6.154  -3.619  -2.635  0.00  0.00    +0.100 C 
ATOM      6  C   UNL     1      -7.398  -4.183  -1.927  0.00  0.00    -0.004 C 
ATOM      7  C   UNL     1      -7.403  -3.540  -0.532  0.00  0.00    +0.115 C 
ATOM      8  C   UNL     1      -8.661  -3.799  -2.692  0.00  0.00    -0.010 C 
ATOM      9  C   UNL     1      -9.879  -4.420  -2.001  0.00  0.00    -0.082 C 
ATOM     10  N   UNL     1      -9.731  -5.880  -1.963  0.00  0.00    +0.379 N 
ATOM     11  C   UNL     1      -8.566  -6.244  -1.148  0.00  0.00    -0.082 C 
ATOM     12  C   UNL     1      -7.292  -5.700  -1.802  0.00  0.00    -0.010 C 
ATOM     13  H   UNL     1     -10.561  -6.290  -1.563  0.00  0.00    -0.086 HD
ATOM     14  H   UNL     1      -9.605  -6.228  -2.902  0.00  0.00    -0.086 HD
ENDROOT
BRANCH   1  18
ATOM     15  C   UNL     1      -1.368  -1.657   1.108  0.00  0.00    -0.048 A 
ATOM     16  C   UNL     1      -1.776  -2.624   2.009  0.00  0.00    +0.004 A 
ATOM     17  C   UNL     1      -3.052  -3.145   1.935  0.00  0.00    +0.013 A 
ATOM     18  C   UNL     1      -3.931  -2.693   0.949  0.00  0.00    +0.037 A 
ATOM     19  C   UNL     1      -3.512  -1.717   0.043  0.00  0.00    +0.013 A 
ATOM     20  C   UNL     1      -2.236  -1.201   0.131  0.00  0.00    +0.004 A 
BRANCH  15  22
ATOM     21  C   UNL     1       0.029   0.124   2.121  0.00  0.00    +0.009 C 
ATOM     22  C   UNL     1       0.027  -1.093   1.194  0.00  0.00    +0.032 C 
ENDBRANCH  15  22
ENDBRANCH   1  18
BRANCH   5  23
ATOM     23  C   UNL     1      -5.201  -4.731  -2.990  0.00  0.00    +0.218 C 
ATOM     24  O   UNL     1      -4.417  -5.145  -2.163  0.00  0.00    -0.275 OA
ATOM     25  N   UNL     1      -5.219  -5.264  -4.228  0.00  0.00    -0.312 N 
ATOM     26  H   UNL     1      -5.846  -4.933  -4.889  0.00  0.00    +0.149 HD
BRANCH  25  27
ATOM     27  C   UNL     1      -4.292  -6.345  -4.573  0.00  0.00    +0.148 C 
BRANCH  27  28
ATOM     28  C   UNL     1      -4.519  -6.766  -6.027  0.00  0.00    +0.187 C 
ATOM     29  C   UNL     1      -3.551  -7.895  -6.388  0.00  0.00    +0.053 C 
BRANCH  28  30
ATOM     30  O   UNL     1      -5.864  -7.223  -6.185  0.00  0.00    -0.486 OA
BRANCH  30  31
ATOM     31  C   UNL     1      -6.399  -7.144  -7.432  0.00  0.00    +0.139 A 
ATOM     32  C   UNL     1      -5.612  -6.747  -8.503  0.00  0.00    +0.047 A 
ATOM     33  C   UNL     1      -6.158  -6.668  -9.769  0.00  0.00    +0.004 A 
ATOM     34  C   UNL     1      -7.489  -6.983  -9.971  0.00  0.00    +0.002 A 
ATOM     35  C   UNL     1      -8.277  -7.379  -8.906  0.00  0.00    +0.023 A 
ATOM     36  C   UNL     1      -7.734  -7.466  -7.638  0.00  0.00    +0.083 A 
ATOM     37 CL   UNL     1      -8.722  -7.970  -6.302  0.00  0.00    -0.080 Cl
ENDBRANCH  30  31
ENDBRANCH  28  30
ENDBRANCH  27  28
ENDBRANCH  25  27
ENDBRANCH   5  23
TORSDOF 7
