REMARK  Name = ZINC19500750
REMARK  9 active torsions:
REMARK  status: ('A' for Active; 'I' for Inactive)
REMARK    1  A    between atoms: C_1  and  C_2
REMARK    2  A    between atoms: C_2  and  C_3
REMARK    3  A    between atoms: C_3  and  C_30
REMARK    4  A    between atoms: C_8  and  C_11
REMARK    5  A    between atoms: C_14  and  O_17
REMARK    6  A    between atoms: N_20  and  C_23
REMARK    7  A    between atoms: C_26  and  C_29
REMARK    8  A    between atoms: C_30  and  O_32
REMARK    9  A    between atoms: O_32  and  C_33
REMARK                            x       y       z     vdW  Elec       q    Type
REMARK                         _______ _______ _______ _____ _____    ______ ____
ROOT
ATOM      1  C   UNL     1      -1.395  -0.565   0.063  0.00  0.00    +0.129 C 
ATOM      2  C   UNL     1      -1.441  -2.102  -0.065  0.00  0.00    +0.120 C 
ATOM      3  C   UNL     1      -2.659  -2.388  -0.984  0.00  0.00    +0.111 C 
ATOM      4  C   UNL     1      -3.244  -0.999  -1.311  0.00  0.00    +0.097 C 
ATOM      5  N   UNL     1      -2.092  -0.064  -1.150  0.00  0.00    -0.293 NA
ATOM      6  C   UNL     1      -2.029  -2.984  -2.223  0.00  0.00    +0.232 C 
ATOM      7  O   UNL     1      -2.633  -3.355  -3.207  0.00  0.00    -0.274 OA
ATOM      8  N   UNL     1      -0.702  -3.037  -2.065  0.00  0.00    -0.210 N 
ATOM      9  C   UNL     1      -0.254  -2.569  -0.877  0.00  0.00    +0.232 C 
ATOM     10  O   UNL     1       0.903  -2.526  -0.516  0.00  0.00    -0.274 OA
ATOM     11  H   UNL     1      -2.416   0.882  -1.016  0.00  0.00    +0.124 HD
ENDROOT
BRANCH   8  12
ATOM     12  C   UNL     1       0.160  -3.543  -3.049  0.00  0.00    +0.044 A 
ATOM     13  C   UNL     1       1.048  -2.697  -3.698  0.00  0.00    +0.024 A 
ATOM     14  C   UNL     1       1.895  -3.199  -4.666  0.00  0.00    +0.005 A 
ATOM     15  C   UNL     1       1.859  -4.543  -4.990  0.00  0.00    -0.050 A 
ATOM     16  C   UNL     1       0.975  -5.388  -4.345  0.00  0.00    +0.005 A 
ATOM     17  C   UNL     1       0.129  -4.893  -3.371  0.00  0.00    +0.024 A 
ATOM     18  C   UNL     1       2.784  -5.087  -6.048  0.00  0.00    +0.044 C 
ENDBRANCH   8  12
BRANCH   4  19
ATOM     19  C   UNL     1      -3.739  -0.960  -2.734  0.00  0.00    -0.029 A 
ATOM     20  C   UNL     1      -2.843  -0.783  -3.772  0.00  0.00    +0.009 A 
ATOM     21  C   UNL     1      -3.294  -0.746  -5.077  0.00  0.00    +0.046 A 
ATOM     22  C   UNL     1      -4.648  -0.887  -5.346  0.00  0.00    +0.117 A 
ATOM     23  C   UNL     1      -5.545  -1.065  -4.303  0.00  0.00    +0.046 A 
ATOM     24  C   UNL     1      -5.088  -1.106  -3.000  0.00  0.00    +0.009 A 
BRANCH  22  25
ATOM     25  O   UNL     1      -5.095  -0.851  -6.629  0.00  0.00    -0.507 OA
ATOM     26  H   UNL     1      -5.121  -1.716  -7.061  0.00  0.00    +0.292 HD
ENDBRANCH  22  25
ENDBRANCH   4  19
BRANCH   1  28
ATOM     27  C   UNL     1       0.075   1.454   0.130  0.00  0.00    +0.006 C 
ATOM     28  C   UNL     1       0.055  -0.075   0.084  0.00  0.00    +0.031 C 
ENDBRANCH   1  28
BRANCH   1  29
ATOM     29  C   UNL     1      -2.118  -0.117   1.307  0.00  0.00    +0.328 C 
ATOM     30  O   UNL     1      -2.206  -0.860   2.255  0.00  0.00    -0.249 OA
BRANCH  29  31
ATOM     31  O   UNL     1      -2.665   1.108   1.361  0.00  0.00    -0.467 OA
ATOM     32  C   UNL     1      -3.335   1.466   2.571  0.00  0.00    +0.280 C 
ENDBRANCH  29  31
ENDBRANCH   1  29
TORSDOF 6
