REMARK  Name = ZINC12099895
REMARK  9 active torsions:
REMARK  status: ('A' for Active; 'I' for Inactive)
REMARK    1  A    between atoms: C_1  and  C_2
REMARK    2  A    between atoms: C_6  and  C_7
REMARK    3  A    between atoms: C_7  and  N_66
REMARK    4  A    between atoms: C_19  and  N_25
REMARK    5  A    between atoms: C_21  and  O_23
REMARK    6  A    between atoms: O_23  and  C_24
REMARK    7  A    between atoms: C_26  and  C_28
REMARK    8  A    between atoms: C_28  and  O_29
REMARK    9  A    between atoms: O_29  and  C_30
REMARK                            x       y       z     vdW  Elec       q    Type
REMARK                         _______ _______ _______ _____ _____    ______ ____
ROOT
ATOM      1  C   UNL     1      -2.517  -0.738  -0.154  0.00  0.00    -0.077 C 
ATOM      2  C   UNL     1      -3.071  -2.153   0.032  0.00  0.00    -0.005 C 
ATOM      3  C   UNL     1      -4.267  -2.353  -0.895  0.00  0.00    +0.021 C 
ATOM      4  C   UNL     1      -5.326  -1.286  -0.632  0.00  0.00    -0.005 C 
ATOM      5  C   UNL     1      -4.698   0.102  -0.799  0.00  0.00    -0.077 C 
ATOM      6  C   UNL     1      -4.853  -3.732  -0.710  0.00  0.00    -0.034 A 
ATOM      7  C   UNL     1      -5.127  -4.449   0.443  0.00  0.00    +0.004 A 
ATOM      8  C   UNL     1      -5.672  -5.715   0.362  0.00  0.00    +0.000 A 
ATOM      9  C   UNL     1      -5.946  -6.271  -0.874  0.00  0.00    +0.000 A 
ATOM     10  C   UNL     1      -5.674  -5.558  -2.025  0.00  0.00    +0.006 A 
ATOM     11  C   UNL     1      -5.127  -4.289  -1.947  0.00  0.00    -0.021 A 
ATOM     12  C   UNL     1      -4.743  -3.317  -3.042  0.00  0.00    +0.133 C 
ATOM     13  C   UNL     1      -3.810  -2.290  -2.364  0.00  0.00    +0.153 C 
ATOM     14  N   UNL     1      -3.581   0.239   0.161  0.00  0.00    +0.383 N 
ATOM     15  H   UNL     1      -3.932   0.055   1.108  0.00  0.00    -0.081 HD
ENDROOT
BRANCH  12  16
ATOM     16  N   UNL     1      -5.935  -2.649  -3.571  0.00  0.00    -0.303 N 
ATOM     17  C   UNL     1      -6.647  -3.224  -4.560  0.00  0.00    +0.251 C 
ATOM     18  O   UNL     1      -6.301  -4.295  -5.013  0.00  0.00    -0.272 OA
ATOM     19  H   UNL     1      -6.212  -1.793  -3.208  0.00  0.00    +0.149 HD
BRANCH  17  20
ATOM     20  C   UNL     1      -7.873  -2.537  -5.103  0.00  0.00    +0.324 C 
BRANCH  20  21
ATOM     21  O   UNL     1      -8.450  -3.339  -6.136  0.00  0.00    -0.483 OA
BRANCH  21  22
ATOM     22  C   UNL     1      -9.571  -2.859  -6.736  0.00  0.00    +0.121 A 
ATOM     23  C   UNL     1     -10.109  -1.645  -6.334  0.00  0.00    +0.045 A 
ATOM     24  C   UNL     1     -11.246  -1.157  -6.949  0.00  0.00    +0.004 A 
ATOM     25  C   UNL     1     -11.854  -1.883  -7.957  0.00  0.00    +0.000 A 
ATOM     26  C   UNL     1     -11.323  -3.096  -8.355  0.00  0.00    +0.004 A 
ATOM     27  C   UNL     1     -10.183  -3.586  -7.747  0.00  0.00    +0.045 A 
ENDBRANCH  21  22
ENDBRANCH  20  21
ENDBRANCH  17  20
ENDBRANCH  12  16
BRANCH  13  28
ATOM     28  O   UNL     1      -2.442  -2.686  -2.488  0.00  0.00    -0.377 OA
ATOM     29  C   UNL     1      -1.752  -2.058  -3.571  0.00  0.00    +0.194 C 
ENDBRANCH  13  28
BRANCH  14  30
ATOM     30  C   UNL     1      -3.038   1.612   0.108  0.00  0.00    -0.035 C 
BRANCH  30  36
ATOM     31  C   UNL     1      -0.013   1.086   0.008  0.00  0.00    +0.044 C 
ATOM     32  C   UNL     1      -0.718   1.572   1.248  0.00  0.00    -0.042 A 
ATOM     33  C   UNL     1      -0.009   1.809   2.411  0.00  0.00    +0.011 A 
ATOM     34  C   UNL     1      -0.674   2.246   3.508  0.00  0.00    +0.045 A 
ATOM     35  S   UNL     1      -2.354   2.334   2.911  0.00  0.00    -0.103 S 
ATOM     36  C   UNL     1      -2.056   1.788   1.238  0.00  0.00    -0.024 A 
ENDBRANCH  30  36
ENDBRANCH  14  30
TORSDOF 7
