REMARK  Name = ZINC07499531
REMARK  7 active torsions:
REMARK  status: ('A' for Active; 'I' for Inactive)
REMARK    1  A    between atoms: C_1  and  C_2
REMARK    2  A    between atoms: C_2  and  C_4
REMARK    3  A    between atoms: C_2  and  N_49
REMARK    4  A    between atoms: C_11  and  C_12
REMARK    5  A    between atoms: C_11  and  N_49
REMARK    6  A    between atoms: N_14  and  C_15
REMARK    7  A    between atoms: N_14  and  C_21
REMARK                            x       y       z     vdW  Elec       q    Type
REMARK                         _______ _______ _______ _____ _____    ______ ____
ROOT
ATOM      1  C   UNL     1      -4.530   1.308   0.637  0.00  0.00    +0.203 C 
ATOM      2  O   UNL     1      -4.904   0.278   1.157  0.00  0.00    -0.277 OA
ATOM      3  N   UNL     1      -5.410   2.088  -0.022  0.00  0.00    -0.268 N 
ENDROOT
BRANCH   3   4
ATOM      4  C   UNL     1      -4.940   3.269  -0.750  0.00  0.00    +0.104 C 
ATOM      5  C   UNL     1      -5.489   4.537  -0.075  0.00  0.00    +0.047 C 
ATOM      6  C   UNL     1      -5.245   5.739  -1.031  0.00  0.00    +0.168 C 
ATOM      7  S   UNL     1      -5.657   4.969  -2.654  0.00  0.00    -0.029 S 
ATOM      8  O   UNL     1      -7.029   5.202  -2.941  0.00  0.00    -0.174 OA
ATOM      9  O   UNL     1      -4.669   5.341  -3.606  0.00  0.00    -0.174 OA
ATOM     10  C   UNL     1      -5.430   3.197  -2.217  0.00  0.00    +0.188 C 
ENDBRANCH   3   4
BRANCH   3  11
ATOM     11  C   UNL     1      -6.772   1.768  -0.012  0.00  0.00    +0.037 A 
ATOM     12  C   UNL     1      -7.695   2.638  -0.578  0.00  0.00    +0.023 A 
ATOM     13  C   UNL     1      -9.039   2.318  -0.571  0.00  0.00    +0.002 A 
ATOM     14  C   UNL     1      -9.466   1.138   0.009  0.00  0.00    +0.000 A 
ATOM     15  C   UNL     1      -8.550   0.272   0.578  0.00  0.00    +0.002 A 
ATOM     16  C   UNL     1      -7.205   0.584   0.569  0.00  0.00    +0.023 A 
ENDBRANCH   3  11
BRANCH   1  17
ATOM     17  C   UNL     1      -3.083   1.718   0.730  0.00  0.00    +0.016 C 
BRANCH  17  18
ATOM     18  N   UNL     1      -2.366   0.765   1.598  0.00  0.00    +0.389 N 
ATOM     19  H   UNL     1      -2.791   0.772   2.533  0.00  0.00    -0.084 HD
ATOM     20  H   UNL     1      -2.437  -0.178   1.198  0.00  0.00    -0.084 HD
BRANCH  18  22
ATOM     21  C   UNL     1      -0.168   0.553   0.527  0.00  0.00    -0.009 C 
ATOM     22  C   UNL     1      -0.944   1.141   1.707  0.00  0.00    -0.042 C 
BRANCH  22  23
ATOM     23  C   UNL     1      -0.385   0.597   2.997  0.00  0.00    -0.043 A 
ATOM     24  C   UNL     1      -0.967  -0.508   3.590  0.00  0.00    +0.003 A 
ATOM     25  C   UNL     1      -0.455  -1.007   4.773  0.00  0.00    +0.000 A 
ATOM     26  C   UNL     1       0.639  -0.402   5.363  0.00  0.00    +0.001 A 
ATOM     27  C   UNL     1       1.222   0.701   4.770  0.00  0.00    +0.020 A 
ATOM     28  C   UNL     1       0.713   1.199   3.583  0.00  0.00    +0.043 A 
ATOM     29 CL   UNL     1       1.450   2.581   2.834  0.00  0.00    -0.083 Cl
ENDBRANCH  22  23
ENDBRANCH  18  22
ENDBRANCH  17  18
ENDBRANCH   1  17
TORSDOF 6
