REMARK  Name = ZINC12438108
REMARK  8 active torsions:
REMARK  status: ('A' for Active; 'I' for Inactive)
REMARK    1  A    between atoms: C_1  and  C_2
REMARK    2  A    between atoms: C_5  and  C_36
REMARK    3  A    between atoms: N_14  and  C_15
REMARK    4  A    between atoms: C_15  and  C_16
REMARK    5  A    between atoms: C_16  and  C_17
REMARK    6  A    between atoms: C_17  and  S_18
REMARK    7  A    between atoms: S_18  and  C_19
REMARK    8  A    between atoms: N_34  and  C_35
REMARK                            x       y       z     vdW  Elec       q    Type
REMARK                         _______ _______ _______ _____ _____    ______ ____
ROOT
ATOM      1  C   UNL     1      -5.146  -1.086  -5.335  0.00  0.00    +0.009 C 
ATOM      2  C   UNL     1      -3.941  -1.582  -4.534  0.00  0.00    +0.004 C 
ATOM      3  C   UNL     1      -3.316  -2.787  -5.242  0.00  0.00    +0.009 C 
ATOM      4  C   UNL     1      -2.148  -3.313  -4.403  0.00  0.00    +0.004 C 
ATOM      5  C   UNL     1      -2.655  -3.680  -3.006  0.00  0.00    +0.111 C 
ATOM      6  N   UNL     1      -3.243  -2.494  -2.370  0.00  0.00    -0.300 N 
ATOM      7  C   UNL     1      -4.396  -1.999  -3.133  0.00  0.00    +0.111 C 
ATOM      8  C   UNL     1      -3.591  -2.756  -1.065  0.00  0.00    +0.201 A 
ATOM      9  N   UNL     1      -4.748  -3.247  -0.670  0.00  0.00    -0.196 NA
ATOM     10  C   UNL     1      -4.758  -3.378   0.658  0.00  0.00    +0.170 A 
ATOM     11  C   UNL     1      -3.523  -2.947   1.131  0.00  0.00    +0.153 A 
ATOM     12  N   UNL     1      -2.795  -2.549   0.017  0.00  0.00    -0.306 N 
ATOM     13  C   UNL     1      -3.270  -2.974   2.514  0.00  0.00    +0.280 A 
ATOM     14  O   UNL     1      -2.197  -2.596   2.950  0.00  0.00    -0.265 OA
ATOM     15  N   UNL     1      -4.225  -3.429   3.351  0.00  0.00    -0.273 N 
ATOM     16  H   UNL     1      -4.037  -3.460   4.434  0.00  0.00    +0.173 HD
ATOM     17  C   UNL     1      -5.413  -3.849   2.883  0.00  0.00    +0.331 A 
ATOM     18  O   UNL     1      -6.250  -4.252   3.667  0.00  0.00    -0.246 OA
ATOM     19  N   UNL     1      -5.699  -3.834   1.567  0.00  0.00    -0.280 N 
ATOM     20  C   UNL     1      -7.005  -4.300   1.097  0.00  0.00    +0.155 C 
ATOM     21  C   UNL     1      -1.555  -4.553  -5.074  0.00  0.00    +0.009 C 
ENDROOT
BRANCH  12  22
ATOM     22  C   UNL     1      -1.431  -2.014   0.009  0.00  0.00    +0.126 C 
BRANCH  22  23
ATOM     23  C   UNL     1      -1.483  -0.485   0.018  0.00  0.00    +0.033 C 
BRANCH  23  24
ATOM     24  C   UNL     1      -0.058   0.073   0.010  0.00  0.00    +0.081 C 
BRANCH  24  25
ATOM     25  S   UNL     1      -0.119   1.882   0.021  0.00  0.00    -0.067 S 
BRANCH  25  26
ATOM     26  C   UNL     1       1.605   2.246   0.009  0.00  0.00    +0.258 A 
ATOM     27  N   UNL     1       2.561   1.352   0.003  0.00  0.00    -0.203 NA
ATOM     28  C   UNL     1       3.760   1.995  -0.008  0.00  0.00    +0.110 A 
ATOM     29  C   UNL     1       5.087   1.561  -0.020  0.00  0.00    +0.031 A 
ATOM     30  C   UNL     1       6.108   2.485  -0.022  0.00  0.00    +0.002 A 
ATOM     31  C   UNL     1       5.826   3.842  -0.013  0.00  0.00    +0.004 A 
ATOM     32  C   UNL     1       4.519   4.285  -0.001  0.00  0.00    +0.048 A 
ATOM     33  C   UNL     1       3.479   3.370   0.001  0.00  0.00    +0.156 A 
ATOM     34  O   UNL     1       2.131   3.484   0.012  0.00  0.00    -0.431 OA
ENDBRANCH  25  26
ENDBRANCH  24  25
ENDBRANCH  23  24
ENDBRANCH  22  23
ENDBRANCH  12  22
TORSDOF 5
