REMARK  Name = ZINC38780492
REMARK  9 active torsions:
REMARK  status: ('A' for Active; 'I' for Inactive)
REMARK    1  A    between atoms: C_1  and  C_2
REMARK    2  A    between atoms: C_2  and  C_23
REMARK    3  A    between atoms: N_5  and  C_9
REMARK    4  A    between atoms: C_9  and  C_10
REMARK    5  A    between atoms: N_12  and  C_13
REMARK    6  A    between atoms: C_15  and  C_21
REMARK    7  A    between atoms: C_15  and  C_22
REMARK    8  A    between atoms: C_17  and  C_19
REMARK    9  A    between atoms: C_17  and  C_20
REMARK                            x       y       z     vdW  Elec       q    Type
REMARK                         _______ _______ _______ _____ _____    ______ ____
ROOT
ATOM      1  C   UNL     1       2.719  -1.636  -1.572  0.00  0.00    +0.213 C 
ENDROOT
BRANCH   1   6
ATOM      2  C   UNL     1      -0.302   1.776  -0.432  0.00  0.00    +0.047 C 
ATOM      3  C   UNL     1      -0.238   0.250  -0.347  0.00  0.00    +0.135 C 
ATOM      4  C   UNL     1       0.618  -0.310  -1.466  0.00  0.00    +0.251 C 
ATOM      5  O   UNL     1       0.422  -0.210  -2.658  0.00  0.00    -0.272 OA
ATOM      6  N   UNL     1       1.642  -0.943  -0.860  0.00  0.00    -0.215 N 
ATOM      7  C   UNL     1       1.553  -0.861   0.473  0.00  0.00    +0.310 C 
ATOM      8  O   UNL     1       2.361  -1.355   1.235  0.00  0.00    -0.252 OA
ATOM      9  N   UNL     1       0.470  -0.171   0.874  0.00  0.00    -0.281 N 
ATOM     10  H   UNL     1       0.207   0.013   1.789  0.00  0.00    +0.152 HD
BRANCH   3  11
ATOM     11  C   UNL     1      -1.623  -0.341  -0.388  0.00  0.00    -0.016 A 
ATOM     12  C   UNL     1      -2.188  -0.695  -1.599  0.00  0.00    +0.006 A 
ATOM     13  C   UNL     1      -3.459  -1.237  -1.636  0.00  0.00    +0.000 A 
ATOM     14  C   UNL     1      -4.165  -1.426  -0.463  0.00  0.00    +0.000 A 
ATOM     15  C   UNL     1      -3.599  -1.073   0.748  0.00  0.00    +0.000 A 
ATOM     16  C   UNL     1      -2.327  -0.535   0.786  0.00  0.00    +0.006 A 
ENDBRANCH   3  11
ENDBRANCH   1   6
BRANCH   1  17
ATOM     17  C   UNL     1       3.845  -0.671  -1.840  0.00  0.00    +0.231 C 
ATOM     18  O   UNL     1       3.757   0.481  -1.473  0.00  0.00    -0.274 OA
ATOM     19  N   UNL     1       4.950  -1.089  -2.488  0.00  0.00    -0.311 N 
ATOM     20  H   UNL     1       5.021  -2.011  -2.782  0.00  0.00    +0.149 HD
BRANCH  19  21
ATOM     21  C   UNL     1       6.048  -0.150  -2.750  0.00  0.00    +0.070 C 
ATOM     22  C   UNL     1       5.776   0.587  -4.063  0.00  0.00    +0.009 C 
ATOM     23  C   UNL     1       6.917   1.561  -4.356  0.00  0.00    -0.072 C 
ATOM     24  N   UNL     1       8.216   0.904  -4.343  0.00  0.00    +0.386 N 
ATOM     25  C   UNL     1       8.508   0.009  -3.235  0.00  0.00    -0.072 C 
ATOM     26  C   UNL     1       7.354  -0.929  -2.899  0.00  0.00    +0.009 C 
ATOM     27  C   UNL     1       8.938   0.778  -1.984  0.00  0.00    -0.010 C 
ATOM     28  C   UNL     1       9.708  -0.874  -3.656  0.00  0.00    -0.010 C 
ATOM     29  C   UNL     1       6.861   2.746  -3.392  0.00  0.00    -0.010 C 
ATOM     30  C   UNL     1       6.689   2.118  -5.780  0.00  0.00    -0.010 C 
ATOM     31  H   UNL     1       8.319   0.381  -5.216  0.00  0.00    -0.084 HD
ATOM     32  H   UNL     1       8.940   1.625  -4.375  0.00  0.00    -0.084 HD
ENDBRANCH  19  21
ENDBRANCH   1  17
TORSDOF 4
