REMARK  Name = ZINC05085271
REMARK  11 active torsions:
REMARK  status: ('A' for Active; 'I' for Inactive)
REMARK    1  A    between atoms: C_1  and  C_2
REMARK    2  A    between atoms: C_8  and  O_16
REMARK    3  A    between atoms: C_10  and  O_15
REMARK    4  A    between atoms: C_11  and  C_12
REMARK    5  A    between atoms: C_12  and  C_14
REMARK    6  A    between atoms: O_16  and  C_17
REMARK    7  A    between atoms: C_19  and  O_32
REMARK    8  A    between atoms: C_21  and  O_31
REMARK    9  A    between atoms: C_23  and  O_30
REMARK   10  A    between atoms: C_25  and  C_28
REMARK   11  A    between atoms: C_28  and  O_29
REMARK                            x       y       z     vdW  Elec       q    Type
REMARK                         _______ _______ _______ _____ _____    ______ ____
ROOT
ATOM      1  C   UNL     1      -0.180  -2.881   0.067  0.00  0.00    +0.044 C 
ATOM      2  C   UNL     1       0.578  -2.140   1.139  0.00  0.00    -0.036 A 
ATOM      3  C   UNL     1       0.974  -2.800   2.254  0.00  0.00    +0.013 A 
ATOM      4  C   UNL     1       1.679  -2.121   3.269  0.00  0.00    -0.011 A 
ATOM      5  C   UNL     1       2.089  -2.790   4.432  0.00  0.00    +0.009 A 
ATOM      6  C   UNL     1       2.769  -2.117   5.402  0.00  0.00    +0.004 A 
ATOM      7  C   UNL     1       3.069  -0.767   5.263  0.00  0.00    +0.046 A 
ATOM      8  C   UNL     1       2.684  -0.073   4.136  0.00  0.00    +0.135 A 
ATOM      9  C   UNL     1       1.979  -0.745   3.116  0.00  0.00    +0.066 A 
ATOM     10  C   UNL     1       1.569  -0.070   1.952  0.00  0.00    +0.139 A 
ATOM     11  C   UNL     1       0.872  -0.772   0.964  0.00  0.00    +0.062 A 
ENDROOT
BRANCH  11  12
ATOM     12  C   UNL     1       0.439  -0.083  -0.253  0.00  0.00    +0.164 C 
ATOM     13  O   UNL     1      -0.069  -0.712  -1.158  0.00  0.00    -0.292 OA
ATOM     14  C   UNL     1       0.623   1.407  -0.381  0.00  0.00    +0.092 C 
ENDBRANCH  11  12
BRANCH  10  15
ATOM     15  O   UNL     1       1.848   1.245   1.789  0.00  0.00    -0.505 OA
ATOM     16  H   UNL     1       1.165   1.837   2.132  0.00  0.00    +0.292 HD
ENDBRANCH  10  15
BRANCH   8  17
ATOM     17  O   UNL     1       2.981   1.245   4.008  0.00  0.00    -0.460 OA
BRANCH  17  18
ATOM     18  C   UNL     1       3.697   1.855   5.083  0.00  0.00    +0.339 C 
ATOM     19  C   UNL     1       3.722   3.373   4.883  0.00  0.00    +0.214 C 
ATOM     20  C   UNL     1       4.543   4.015   6.006  0.00  0.00    +0.180 C 
ATOM     21  C   UNL     1       5.948   3.406   6.009  0.00  0.00    +0.177 C 
ATOM     22  C   UNL     1       5.838   1.887   6.165  0.00  0.00    +0.179 C 
ATOM     23  O   UNL     1       5.037   1.358   5.107  0.00  0.00    -0.331 OA
BRANCH  21  24
ATOM     24  O   UNL     1       6.604   3.713   4.777  0.00  0.00    -0.386 OA
ATOM     25  H   UNL     1       6.704   4.660   4.610  0.00  0.00    +0.210 HD
ENDBRANCH  21  24
BRANCH  20  26
ATOM     26  O   UNL     1       4.633   5.424   5.788  0.00  0.00    -0.386 OA
ATOM     27  H   UNL     1       3.777   5.874   5.767  0.00  0.00    +0.210 HD
ENDBRANCH  20  26
BRANCH  19  28
ATOM     28  O   UNL     1       2.387   3.881   4.918  0.00  0.00    -0.383 OA
ATOM     29  H   UNL     1       1.809   3.513   4.235  0.00  0.00    +0.210 HD
ENDBRANCH  19  28
BRANCH  22  30
ATOM     30  C   UNL     1       7.234   1.265   6.108  0.00  0.00    +0.190 C 
BRANCH  30  31
ATOM     31  O   UNL     1       7.143  -0.137   6.370  0.00  0.00    -0.392 OA
ATOM     32  H   UNL     1       7.993  -0.597   6.350  0.00  0.00    +0.210 HD
ENDBRANCH  30  31
ENDBRANCH  22  30
ENDBRANCH  17  18
ENDBRANCH   8  17
TORSDOF 9
