REMARK  Name = ZINC37009588
REMARK  3 active torsions:
REMARK  status: ('A' for Active; 'I' for Inactive)
REMARK    1  A    between atoms: C_4  and  C_7
REMARK    2  A    between atoms: C_7  and  C_9
REMARK    3  A    between atoms: C_11  and  C_14
REMARK                            x       y       z     vdW  Elec       q    Type
REMARK                         _______ _______ _______ _____ _____    ______ ____
ROOT
ATOM      1  C   UNL     1       3.870  -1.483   1.245  0.00  0.00    +0.250 A 
ATOM      2  N   UNL     1       4.645  -1.158   2.239  0.00  0.00    -0.189 NA
ATOM      3  C   UNL     1       4.542  -2.072   3.222  0.00  0.00    +0.209 A 
ATOM      4  N   UNL     1       3.686  -2.994   2.847  0.00  0.00    -0.055 NA
ATOM      5  O   UNL     1       3.232  -2.619   1.555  0.00  0.00    -0.336 OA
ENDROOT
BRANCH   3   6
ATOM      6  C   UNL     1       5.270  -2.042   4.507  0.00  0.00    +0.060 A 
ATOM      7  C   UNL     1       5.222  -2.933   5.547  0.00  0.00    +0.019 A 
ATOM      8  C   UNL     1       5.999  -2.696   6.658  0.00  0.00    +0.008 A 
ATOM      9  C   UNL     1       6.788  -1.589   6.691  0.00  0.00    +0.046 A 
ATOM     10  S   UNL     1       6.447  -0.841   5.106  0.00  0.00    -0.093 S 
ENDBRANCH   3   6
BRANCH   1  11
ATOM     11  C   UNL     1       3.711  -0.707  -0.038  0.00  0.00    +0.199 C 
ATOM     12 CL   UNL     1       3.745  -1.845  -1.436  0.00  0.00    -0.107 Cl
BRANCH  11  16
ATOM     13  C   UNL     1      -0.017   1.378   0.010  0.00  0.00    +0.000 A 
ATOM     14  C   UNL     1       1.171   2.086   0.002  0.00  0.00    +0.000 A 
ATOM     15  C   UNL     1       2.377   1.411  -0.013  0.00  0.00    +0.005 A 
ATOM     16  C   UNL     1       2.396   0.029  -0.020  0.00  0.00    -0.021 A 
ATOM     17  C   UNL     1       1.208  -0.679  -0.012  0.00  0.00    +0.005 A 
ATOM     18  C   UNL     1       0.002  -0.004   0.002  0.00  0.00    +0.000 A 
ENDBRANCH  11  16
ENDBRANCH   1  11
TORSDOF 3
