REMARK  Name = ZINC05529482
REMARK  8 active torsions:
REMARK  status: ('A' for Active; 'I' for Inactive)
REMARK    1  A    between atoms: C_1  and  C_2
REMARK    2  A    between atoms: C_5  and  O_9
REMARK    3  A    between atoms: C_6  and  C_8
REMARK    4  A    between atoms: O_9  and  C_10
REMARK    5  A    between atoms: C_11  and  C_22
REMARK    6  A    between atoms: C_18  and  C_21
REMARK    7  A    between atoms: C_23  and  C_24
REMARK    8  A    between atoms: C_23  and  C_26
REMARK                            x       y       z     vdW  Elec       q    Type
REMARK                         _______ _______ _______ _____ _____    ______ ____
ROOT
ATOM      1  C   UNL     1       2.533   3.833  -0.431  0.00  0.00    +0.235 A 
ATOM      2  C   UNL     1       3.801   3.338  -0.038  0.00  0.00    +0.103 A 
ATOM      3  C   UNL     1       3.911   1.963   0.300  0.00  0.00    +0.269 A 
ATOM      4  O   UNL     1       4.981   1.493   0.644  0.00  0.00    -0.266 OA
ATOM      5  N   UNL     1       2.808   1.186   0.232  0.00  0.00    -0.267 N 
ATOM      6  C   UNL     1       2.904  -0.135   0.552  0.00  0.00    +0.096 A 
ATOM      7  C   UNL     1       1.820  -0.942   0.495  0.00  0.00    +0.019 A 
ATOM      8  C   UNL     1       0.579  -0.423   0.103  0.00  0.00    +0.008 A 
ATOM      9  C   UNL     1       0.474   0.898  -0.221  0.00  0.00    -0.007 A 
ATOM     10  C   UNL     1       1.612   1.720  -0.155  0.00  0.00    +0.147 A 
ATOM     11  N   UNL     1       1.498   3.012  -0.474  0.00  0.00    -0.194 NA
ATOM     12  C   UNL     1      -0.852   1.470  -0.651  0.00  0.00    +0.047 C 
ENDROOT
BRANCH   2  13
ATOM     13  C   UNL     1       4.921   4.187   0.017  0.00  0.00    +0.042 C 
ATOM     14  C   UNL     1       4.877   5.345   0.780  0.00  0.00    +0.114 C 
BRANCH  14  15
ATOM     15  C   UNL     1       5.991   6.299   0.730  0.00  0.00    +0.252 C 
ATOM     16  O   UNL     1       6.953   6.074   0.020  0.00  0.00    -0.270 OA
ATOM     17  N   UNL     1       5.948   7.424   1.471  0.00  0.00    -0.325 N 
ATOM     18  H   UNL     1       5.181   7.603   2.037  0.00  0.00    +0.145 HD
ATOM     19  H   UNL     1       6.684   8.054   1.438  0.00  0.00    +0.145 HD
ENDBRANCH  14  15
BRANCH  14  20
ATOM     20  C   UNL     1       3.745   5.610   1.615  0.00  0.00    +0.104 C 
ATOM     21  N   UNL     1       2.846   5.820   2.278  0.00  0.00    -0.191 NA
ENDBRANCH  14  20
ENDBRANCH   2  13
BRANCH   1  22
ATOM     22  O   UNL     1       2.383   5.135  -0.760  0.00  0.00    -0.437 OA
BRANCH  22  27
ATOM     23  C   UNL     1      -2.615   6.801  -2.753  0.00  0.00    +0.044 C 
ATOM     24  C   UNL     1      -1.278   6.355  -2.220  0.00  0.00    -0.050 A 
ATOM     25  C   UNL     1      -1.004   6.461  -0.869  0.00  0.00    +0.007 A 
ATOM     26  C   UNL     1       0.221   6.053  -0.377  0.00  0.00    +0.047 A 
ATOM     27  C   UNL     1       1.177   5.537  -1.241  0.00  0.00    +0.133 A 
ATOM     28  C   UNL     1       0.901   5.436  -2.597  0.00  0.00    -0.008 A 
ATOM     29  C   UNL     1      -0.327   5.841  -3.082  0.00  0.00    +0.010 A 
ATOM     30  C   UNL     1       1.939   4.882  -3.538  0.00  0.00    +0.047 C 
ENDBRANCH  22  27
ENDBRANCH   1  22
TORSDOF 5
