REMARK  Name = ZINC21019163
REMARK  5 active torsions:
REMARK  status: ('A' for Active; 'I' for Inactive)
REMARK    1  A    between atoms: C_1  and  C_2
REMARK    2  A    between atoms: C_4  and  C_28
REMARK    3  A    between atoms: C_5  and  S_9
REMARK    4  A    between atoms: C_6  and  C_8
REMARK    5  A    between atoms: S_9  and  N_12
REMARK                            x       y       z     vdW  Elec       q    Type
REMARK                         _______ _______ _______ _____ _____    ______ ____
ROOT
ATOM      1  N   UNL     1      -3.159   6.592   3.347  0.00  0.00    -0.176 NA
ATOM      2  C   UNL     1      -2.363   5.828   4.317  0.00  0.00    +0.115 C 
ATOM      3  C   UNL     1      -2.245   4.381   3.828  0.00  0.00    +0.086 C 
ATOM      4  C   UNL     1      -1.676   4.373   2.405  0.00  0.00    +0.181 C 
ATOM      5  C   UNL     1      -2.633   5.121   1.472  0.00  0.00    +0.086 C 
ATOM      6  C   UNL     1      -2.756   6.576   1.934  0.00  0.00    +0.115 C 
ATOM      7  N   UNL     1      -0.374   5.044   2.402  0.00  0.00    -0.274 N 
ATOM      8  C   UNL     1       0.749   4.348   2.693  0.00  0.00    +0.250 C 
ATOM      9  O   UNL     1       1.832   4.898   2.754  0.00  0.00    -0.270 OA
ATOM     10  C   UNL     1       0.614   2.897   2.934  0.00  0.00    +0.078 A 
ATOM     11  C   UNL     1       1.628   2.155   3.533  0.00  0.00    +0.017 A 
ATOM     12  C   UNL     1       1.450   0.801   3.735  0.00  0.00    +0.001 A 
ATOM     13  C   UNL     1       0.273   0.184   3.346  0.00  0.00    +0.004 A 
ATOM     14  C   UNL     1      -0.738   0.911   2.745  0.00  0.00    +0.046 A 
ATOM     15  C   UNL     1      -0.579   2.270   2.540  0.00  0.00    +0.135 A 
ATOM     16  O   UNL     1      -1.546   3.021   1.960  0.00  0.00    -0.468 OA
ATOM     17  H   UNL     1      -0.309   6.116   2.164  0.00  0.00    +0.153 HD
ENDROOT
BRANCH   1  18
ATOM     18  S   UNL     1      -4.486   7.453   3.837  0.00  0.00    +0.061 S 
ATOM     19  O   UNL     1      -5.323   7.593   2.697  0.00  0.00    -0.153 OA
ATOM     20  O   UNL     1      -4.936   6.855   5.044  0.00  0.00    -0.153 OA
BRANCH  18  25
ATOM     21  C   UNL     1      -2.584  12.998   5.266  0.00  0.00    +0.044 C 
ATOM     22  C   UNL     1      -3.059  11.613   4.909  0.00  0.00    -0.050 A 
ATOM     23  C   UNL     1      -2.918  10.579   5.815  0.00  0.00    +0.008 A 
ATOM     24  C   UNL     1      -3.354   9.309   5.488  0.00  0.00    -0.024 A 
ATOM     25  C   UNL     1      -3.931   9.073   4.254  0.00  0.00    +0.111 A 
ATOM     26  C   UNL     1      -4.067  10.106   3.345  0.00  0.00    -0.024 A 
ATOM     27  C   UNL     1      -3.635  11.377   3.675  0.00  0.00    +0.008 A 
ATOM     28  C   UNL     1      -4.690   9.847   1.998  0.00  0.00    +0.046 C 
ATOM     29  C   UNL     1      -3.200   8.181   6.476  0.00  0.00    +0.046 C 
ENDBRANCH  18  25
ENDBRANCH   1  18
TORSDOF 2
