REMARK  Name = ZINC15830521
REMARK  8 active torsions:
REMARK  status: ('A' for Active; 'I' for Inactive)
REMARK    1  A    between atoms: C_1  and  C_2
REMARK    2  A    between atoms: C_2  and  C_3
REMARK    3  A    between atoms: N_5  and  C_6
REMARK    4  A    between atoms: C_8  and  C_24
REMARK    5  A    between atoms: C_16  and  C_18
REMARK    6  A    between atoms: C_27  and  N_30
REMARK    7  A    between atoms: N_30  and  C_31
REMARK    8  A    between atoms: N_30  and  C_32
REMARK                            x       y       z     vdW  Elec       q    Type
REMARK                         _______ _______ _______ _____ _____    ______ ____
ROOT
ATOM      1  C   UNL     1       3.332   1.484   1.208  0.00  0.00    +0.126 C 
ATOM      2  C   UNL     1       3.827   2.910   0.925  0.00  0.00    +0.126 C 
ATOM      3  N   UNL     1       4.669   2.886  -0.286  0.00  0.00    -0.305 N 
ATOM      4  C   UNL     1       4.193   2.131  -1.350  0.00  0.00    +0.215 A 
ATOM      5  N   UNL     1       4.587   2.103  -2.594  0.00  0.00    -0.202 NA
ATOM      6  C   UNL     1       3.843   1.228  -3.279  0.00  0.00    +0.247 A 
ATOM      7  N   UNL     1       2.963   0.688  -2.473  0.00  0.00    -0.156 NA
ATOM      8  N   UNL     1       3.169   1.255  -1.214  0.00  0.00    -0.224 N 
ATOM      9  C   UNL     1       2.462   1.001   0.041  0.00  0.00    +0.163 C 
ATOM     10  H   UNL     1       5.508   3.371  -0.337  0.00  0.00    +0.150 HD
ENDROOT
BRANCH   9  11
ATOM     11  C   UNL     1       1.153   1.749   0.043  0.00  0.00    -0.021 A 
ATOM     12  C   UNL     1       0.037   1.187   0.634  0.00  0.00    +0.006 A 
ATOM     13  C   UNL     1      -1.164   1.870   0.632  0.00  0.00    +0.000 A 
ATOM     14  C   UNL     1      -1.247   3.120   0.048  0.00  0.00    +0.000 A 
ATOM     15  C   UNL     1      -0.131   3.682  -0.543  0.00  0.00    +0.000 A 
ATOM     16  C   UNL     1       1.069   2.997  -0.545  0.00  0.00    +0.006 A 
ENDBRANCH   9  11
BRANCH   2  17
ATOM     17  C   UNL     1       4.638   3.404   2.096  0.00  0.00    -0.025 A 
ATOM     18  C   UNL     1       5.950   2.993   2.248  0.00  0.00    +0.007 A 
ATOM     19  C   UNL     1       6.697   3.448   3.316  0.00  0.00    +0.023 A 
ATOM     20  C   UNL     1       6.127   4.310   4.244  0.00  0.00    +0.029 A 
ATOM     21  C   UNL     1       4.808   4.716   4.091  0.00  0.00    +0.023 A 
ATOM     22  C   UNL     1       4.067   4.262   3.018  0.00  0.00    +0.007 A 
BRANCH  20  23
ATOM     23  N   UNL     1       6.879   4.768   5.329  0.00  0.00    -0.336 N 
ATOM     24  C   UNL     1       6.243   5.577   6.372  0.00  0.00    +0.129 C 
ATOM     25  C   UNL     1       8.303   4.440   5.423  0.00  0.00    +0.129 C 
ENDBRANCH  20  23
ENDBRANCH   2  17
BRANCH   1  28
ATOM     26  C   UNL     1       5.095   0.477   2.555  0.00  0.00    +0.213 C 
ATOM     27  O   UNL     1       4.694   1.116   3.505  0.00  0.00    -0.276 OA
ATOM     28  N   UNL     1       4.482   0.590   1.360  0.00  0.00    -0.308 N 
ATOM     29  H   UNL     1       4.804   0.079   0.600  0.00  0.00    +0.149 HD
BRANCH  26  31
ATOM     30  C   UNL     1       6.782  -0.385   4.155  0.00  0.00    +0.013 C 
ATOM     31  C   UNL     1       6.279  -0.443   2.712  0.00  0.00    +0.092 C 
ENDBRANCH  26  31
ENDBRANCH   1  28
TORSDOF 5
