REMARK  Name = ZINC07428762
REMARK  4 active torsions:
REMARK  status: ('A' for Active; 'I' for Inactive)
REMARK    1  A    between atoms: C_6  and  C_7
REMARK    2  A    between atoms: N_9  and  N_10
REMARK    3  A    between atoms: N_10  and  S_11
REMARK    4  A    between atoms: S_11  and  C_14
REMARK                            x       y       z     vdW  Elec       q    Type
REMARK                         _______ _______ _______ _____ _____    ______ ____
ROOT
ATOM      1  N   UNL     1      -3.645  -0.824   0.035  0.00  0.00    -0.108 NA
ATOM      2  H   UNL     1      -3.821  -1.482  -0.655  0.00  0.00    +0.172 HD
ENDROOT
BRANCH   1   5
ATOM      3  C   UNL     1      -1.265  -0.761   0.011  0.00  0.00    +0.259 C 
ATOM      4  O   UNL     1      -1.247  -1.977   0.004  0.00  0.00    -0.269 OA
ATOM      5  N   UNL     1      -2.442  -0.105   0.026  0.00  0.00    -0.228 N 
ATOM      6  H   UNL     1      -2.457   0.865   0.032  0.00  0.00    +0.171 HD
BRANCH   3  12
ATOM      7  C   UNL     1      -0.017   1.392   0.010  0.00  0.00    +0.017 A 
ATOM      8  C   UNL     1       1.167   2.098   0.002  0.00  0.00    +0.050 A 
ATOM      9  C   UNL     1       2.381   1.425  -0.013  0.00  0.00    +0.166 A 
ATOM     10  C   UNL     1       2.407   0.029  -0.021  0.00  0.00    +0.167 A 
ATOM     11  C   UNL     1       1.224  -0.683  -0.014  0.00  0.00    +0.062 A 
ATOM     12  C   UNL     1       0.002  -0.004   0.002  0.00  0.00    +0.042 A 
ATOM     13  O   UNL     1       3.709  -0.382  -0.036  0.00  0.00    -0.453 OA
ATOM     14  C   UNL     1       4.470   0.768  -0.450  0.00  0.00    +0.466 C 
ATOM     15  O   UNL     1       3.665   1.883  -0.022  0.00  0.00    -0.453 OA
ENDBRANCH   3  12
ENDBRANCH   1   5
BRANCH   1  16
ATOM     16  S   UNL     1      -4.765  -0.549   1.222  0.00  0.00    +0.074 S 
ATOM     17  O   UNL     1      -5.915  -1.310   0.880  0.00  0.00    -0.152 OA
ATOM     18  O   UNL     1      -4.090  -0.705   2.462  0.00  0.00    -0.152 OA
BRANCH  16  19
ATOM     19  C   UNL     1      -5.234   1.147   1.114  0.00  0.00    +0.107 A 
ATOM     20  C   UNL     1      -4.537   2.104   1.828  0.00  0.00    +0.029 A 
ATOM     21  C   UNL     1      -4.905   3.432   1.742  0.00  0.00    +0.006 A 
ATOM     22  C   UNL     1      -5.972   3.809   0.943  0.00  0.00    -0.044 A 
ATOM     23  C   UNL     1      -6.668   2.852   0.229  0.00  0.00    -0.042 A 
ATOM     24  C   UNL     1      -6.294   1.521   0.312  0.00  0.00    +0.032 A 
ATOM     25  C   UNL     1      -7.779   3.510  -0.561  0.00  0.00    +0.036 C 
ATOM     26  C   UNL     1      -7.962   4.902   0.083  0.00  0.00    +0.009 C 
ATOM     27  C   UNL     1      -6.566   5.176   0.681  0.00  0.00    +0.036 C 
ENDBRANCH  16  19
ENDBRANCH   1  16
TORSDOF 4
