REMARK  Name = ZINC64711958
REMARK  6 active torsions:
REMARK  status: ('A' for Active; 'I' for Inactive)
REMARK    1  A    between atoms: C_1  and  C_2
REMARK    2  A    between atoms: C_9  and  C_12
REMARK    3  A    between atoms: C_10  and  C_11
REMARK    4  A    between atoms: N_14  and  C_15
REMARK    5  A    between atoms: C_15  and  C_16
REMARK    6  A    between atoms: C_15  and  C_17
REMARK                            x       y       z     vdW  Elec       q    Type
REMARK                         _______ _______ _______ _____ _____    ______ ____
ROOT
ATOM      1  C   UNL     1       0.067  -1.347   4.779  0.00  0.00    +0.280 C 
ATOM      2  O   UNL     1       0.088  -2.378   5.425  0.00  0.00    -0.267 OA
ATOM      3  N   UNL     1       0.057  -0.156   5.409  0.00  0.00    -0.299 N 
ATOM      4  H   UNL     1       0.041   0.665   4.894  0.00  0.00    +0.150 HD
ENDROOT
BRANCH   1  13
ATOM      5  C   UNL     1      -0.018   1.503   0.010  0.00  0.00    +0.047 C 
ATOM      6  C   UNL     1       0.002  -0.004   0.002  0.00  0.00    -0.008 A 
ATOM      7  C   UNL     1       0.006  -0.688  -1.195  0.00  0.00    +0.007 A 
ATOM      8  C   UNL     1       0.024  -2.076  -1.218  0.00  0.00    +0.001 A 
ATOM      9  C   UNL     1       0.039  -2.788  -0.052  0.00  0.00    +0.012 A 
ATOM     10  C   UNL     1       0.036  -2.114   1.171  0.00  0.00    +0.024 A 
ATOM     11  C   UNL     1       0.023  -0.707   1.201  0.00  0.00    +0.139 A 
ATOM     12  O   UNL     1       0.030  -0.327   2.493  0.00  0.00    -0.450 OA
ATOM     13  C   UNL     1       0.053  -1.402   3.310  0.00  0.00    +0.193 A 
ATOM     14  C   UNL     1       0.048  -2.540   2.570  0.00  0.00    +0.008 A 
ATOM     15  C   UNL     1       0.068  -3.956   3.085  0.00  0.00    +0.048 C 
ENDBRANCH   1  13
BRANCH   3  16
ATOM     16  C   UNL     1       0.071  -0.103   6.873  0.00  0.00    +0.138 C 
ATOM     17  C   UNL     1       1.515  -0.190   7.373  0.00  0.00    +0.036 C 
BRANCH  16  18
ATOM     18  C   UNL     1      -0.542   1.194   7.334  0.00  0.00    +0.154 A 
ATOM     19  N   UNL     1      -0.308   2.380   6.841  0.00  0.00    -0.132 NA
ATOM     20  N   UNL     1      -1.002   3.257   7.475  0.00  0.00    -0.134 NA
ATOM     21  C   UNL     1      -1.710   2.670   8.403  0.00  0.00    +0.134 A 
ATOM     22  N   UNL     1      -1.446   1.346   8.334  0.00  0.00    -0.313 N 
ATOM     23  C   UNL     1      -2.214   0.599   9.338  0.00  0.00    +0.125 C 
ATOM     24  C   UNL     1      -2.696   1.653  10.359  0.00  0.00    +0.029 C 
ATOM     25  C   UNL     1      -2.709   2.940   9.507  0.00  0.00    +0.078 C 
ENDBRANCH  16  18
ENDBRANCH   3  16
TORSDOF 3
