REMARK  Name = ZINC39891869
REMARK  6 active torsions:
REMARK  status: ('A' for Active; 'I' for Inactive)
REMARK    1  A    between atoms: C_1  and  C_2
REMARK    2  A    between atoms: C_5  and  N_8
REMARK    3  A    between atoms: C_12  and  S_16
REMARK    4  A    between atoms: S_16  and  C_17
REMARK    5  A    between atoms: C_20  and  C_22
REMARK    6  A    between atoms: C_25  and  N_28
REMARK                            x       y       z     vdW  Elec       q    Type
REMARK                         _______ _______ _______ _____ _____    ______ ____
ROOT
ATOM      1  S   UNL     1      -1.262  -7.209   1.497  0.00  0.00    -0.052 S 
ENDROOT
BRANCH   1   6
ATOM      2  N   UNL     1       0.059  -4.172  -0.021  0.00  0.00    -0.209 N 
ATOM      3  C   UNL     1      -0.030  -4.892  -1.146  0.00  0.00    +0.228 C 
ATOM      4  O   UNL     1      -0.134  -4.436  -2.265  0.00  0.00    -0.275 OA
ATOM      5  C   UNL     1       0.020  -6.364  -0.801  0.00  0.00    +0.120 C 
ATOM      6  C   UNL     1       0.155  -6.371   0.735  0.00  0.00    +0.151 C 
ATOM      7  C   UNL     1       0.172  -4.902   1.096  0.00  0.00    +0.240 C 
ATOM      8  O   UNL     1       0.271  -4.455   2.219  0.00  0.00    -0.274 OA
BRANCH   2  13
ATOM      9  C   UNL     1      -0.016   1.503   0.009  0.00  0.00    +0.044 C 
ATOM     10  C   UNL     1       0.004  -0.004   0.001  0.00  0.00    -0.050 A 
ATOM     11  C   UNL     1       1.156  -0.681   0.357  0.00  0.00    +0.005 A 
ATOM     12  C   UNL     1       1.177  -2.062   0.351  0.00  0.00    +0.024 A 
ATOM     13  C   UNL     1       0.040  -2.771  -0.013  0.00  0.00    +0.044 A 
ATOM     14  C   UNL     1      -1.115  -2.088  -0.370  0.00  0.00    +0.024 A 
ATOM     15  C   UNL     1      -1.132  -0.707  -0.357  0.00  0.00    +0.005 A 
ENDBRANCH   2  13
ENDBRANCH   1   6
BRANCH   1  16
ATOM     16  C   UNL     1      -0.863  -7.247   3.212  0.00  0.00    +0.278 A 
ATOM     17  N   UNL     1       0.222  -6.762   3.768  0.00  0.00    -0.101 NA
ATOM     18  N   UNL     1       0.181  -6.965   5.038  0.00  0.00    -0.106 NA
ATOM     19  C   UNL     1      -0.931  -7.589   5.344  0.00  0.00    +0.249 A 
ATOM     20  O   UNL     1      -1.618  -7.776   4.195  0.00  0.00    -0.411 OA
BRANCH  19  21
ATOM     21  C   UNL     1      -1.358  -8.005   6.695  0.00  0.00    +0.039 A 
ATOM     22  C   UNL     1      -2.573  -8.671   6.872  0.00  0.00    +0.015 A 
ATOM     23  C   UNL     1      -2.967  -9.057   8.134  0.00  0.00    +0.023 A 
ATOM     24  C   UNL     1      -2.158  -8.785   9.231  0.00  0.00    +0.025 A 
ATOM     25  C   UNL     1      -0.948  -8.123   9.059  0.00  0.00    +0.023 A 
ATOM     26  C   UNL     1      -0.544  -7.739   7.799  0.00  0.00    +0.015 A 
BRANCH  24  27
ATOM     27  N   UNL     1      -2.561  -9.178  10.508  0.00  0.00    -0.358 N 
ATOM     28  H   UNL     1      -3.405  -9.639  10.630  0.00  0.00    +0.142 HD
ATOM     29  H   UNL     1      -1.997  -8.988  11.274  0.00  0.00    +0.142 HD
ENDBRANCH  24  27
ENDBRANCH  19  21
ENDBRANCH   1  16
TORSDOF 5
