REMARK  Name = ZINC66091488
REMARK  6 active torsions:
REMARK  status: ('A' for Active; 'I' for Inactive)
REMARK    1  A    between atoms: C_1  and  C_2
REMARK    2  A    between atoms: C_2  and  C_3
REMARK    3  A    between atoms: C_2  and  C_4
REMARK    4  A    between atoms: C_2  and  N_5
REMARK    5  A    between atoms: C_10  and  C_26
REMARK    6  A    between atoms: N_19  and  C_20
REMARK                            x       y       z     vdW  Elec       q    Type
REMARK                         _______ _______ _______ _____ _____    ______ ____
ROOT
ATOM      1  N   UNL     1       1.301  -0.640  -0.763  0.00  0.00    -0.241 N 
ATOM      2  C   UNL     1       1.352  -1.907  -1.225  0.00  0.00    +0.157 A 
ATOM      3  C   UNL     1       2.107  -1.889  -2.392  0.00  0.00    +0.026 A 
ATOM      4  C   UNL     1       2.522  -0.588  -2.606  0.00  0.00    +0.141 A 
ATOM      5  N   UNL     1       2.042   0.165  -1.643  0.00  0.00    -0.177 NA
ATOM      6  C   UNL     1       2.350  -3.132  -3.219  0.00  0.00    +0.082 C 
ATOM      7  C   UNL     1       1.127  -4.028  -3.018  0.00  0.00    +0.158 C 
ATOM      8  C   UNL     1       0.770  -4.074  -1.546  0.00  0.00    +0.127 C 
ATOM      9  N   UNL     1       0.823  -3.067  -0.720  0.00  0.00    -0.215 NA
ATOM     10  N   UNL     1       0.524  -5.395  -1.282  0.00  0.00    -0.256 N 
ATOM     11  C   UNL     1       0.942  -6.159  -2.305  0.00  0.00    +0.312 C 
ATOM     12  O   UNL     1       0.920  -7.375  -2.291  0.00  0.00    -0.252 OA
ATOM     13  N   UNL     1       1.382  -5.426  -3.370  0.00  0.00    -0.244 N 
ATOM     14  H   UNL     1       0.107  -5.730  -0.473  0.00  0.00    +0.158 HD
ENDROOT
BRANCH   6  15
ATOM     15  C   UNL     1       2.491  -2.765  -4.674  0.00  0.00    -0.037 A 
ATOM     16  C   UNL     1       1.430  -2.190  -5.348  0.00  0.00    +0.007 A 
ATOM     17  C   UNL     1       1.558  -1.853  -6.682  0.00  0.00    +0.038 A 
ATOM     18  C   UNL     1       2.751  -2.091  -7.343  0.00  0.00    +0.123 A 
ATOM     19  C   UNL     1       3.813  -2.667  -6.668  0.00  0.00    +0.038 A 
ATOM     20  C   UNL     1       3.684  -2.999  -5.332  0.00  0.00    +0.007 A 
ATOM     21  F   UNL     1       2.878  -1.763  -8.648  0.00  0.00    -0.205 F 
ENDBRANCH   6  15
BRANCH  13  22
ATOM     22  C   UNL     1       1.964  -5.899  -4.551  0.00  0.00    +0.039 A 
ATOM     23  C   UNL     1       1.300  -5.751  -5.762  0.00  0.00    +0.023 A 
ATOM     24  C   UNL     1       1.878  -6.219  -6.926  0.00  0.00    +0.002 A 
ATOM     25  C   UNL     1       3.116  -6.834  -6.887  0.00  0.00    +0.000 A 
ATOM     26  C   UNL     1       3.779  -6.982  -5.683  0.00  0.00    +0.002 A 
ATOM     27  C   UNL     1       3.209  -6.512  -4.516  0.00  0.00    +0.023 A 
ENDBRANCH  13  22
BRANCH   1  29
ATOM     28  C   UNL     1       0.783   1.324   0.600  0.00  0.00    +0.036 C 
ATOM     29  C   UNL     1       0.594  -0.185   0.438  0.00  0.00    +0.057 C 
ATOM     30  C   UNL     1       1.158  -0.905   1.665  0.00  0.00    +0.036 C 
ATOM     31  C   UNL     1      -0.897  -0.501   0.302  0.00  0.00    +0.036 C 
ENDBRANCH   1  29
TORSDOF 3
