REMARK  Name = ZINC08867506
REMARK  10 active torsions:
REMARK  status: ('A' for Active; 'I' for Inactive)
REMARK    1  A    between atoms: C_1  and  C_2
REMARK    2  A    between atoms: C_6  and  C_36
REMARK    3  A    between atoms: C_7  and  N_8
REMARK    4  A    between atoms: C_9  and  C_13
REMARK    5  A    between atoms: C_13  and  C_15
REMARK    6  A    between atoms: C_13  and  N_60
REMARK    7  A    between atoms: C_23  and  C_24
REMARK    8  A    between atoms: C_23  and  N_60
REMARK    9  A    between atoms: C_24  and  C_25
REMARK   10  A    between atoms: C_26  and  C_35
REMARK                            x       y       z     vdW  Elec       q    Type
REMARK                         _______ _______ _______ _____ _____    ______ ____
ROOT
ATOM      1  C   UNL     1      -3.031   5.305   0.688  0.00  0.00    +0.032 C 
ENDROOT
BRANCH   1   2
ATOM      2  C   UNL     1      -3.449   5.457  -0.752  0.00  0.00    -0.036 A 
ATOM      3  C   UNL     1      -2.688   6.222  -1.615  0.00  0.00    +0.005 A 
ATOM      4  C   UNL     1      -3.071   6.362  -2.936  0.00  0.00    +0.020 A 
ATOM      5  C   UNL     1      -4.217   5.737  -3.394  0.00  0.00    +0.042 A 
ATOM      6  C   UNL     1      -4.979   4.971  -2.530  0.00  0.00    +0.040 A 
ATOM      7  C   UNL     1      -4.592   4.827  -1.210  0.00  0.00    +0.044 A 
ATOM      8 CL   UNL     1      -5.544   3.860  -0.127  0.00  0.00    -0.083 Cl
ATOM      9 CL   UNL     1      -4.698   5.913  -5.053  0.00  0.00    -0.083 Cl
ENDBRANCH   1   2
BRANCH   1  11
ATOM     10  N   UNL     1      -0.596   4.546   0.760  0.00  0.00    -0.198 N 
ATOM     11  C   UNL     1      -1.542   5.509   0.803  0.00  0.00    +0.147 A 
ATOM     12  N   UNL     1      -0.927   6.651   0.965  0.00  0.00    -0.114 NA
ATOM     13  N   UNL     1       0.344   6.476   1.019  0.00  0.00    -0.023 NA
ATOM     14  N   UNL     1       0.627   5.223   0.902  0.00  0.00    -0.039 NA
BRANCH  10  21
ATOM     15  C   UNL     1      -0.555   3.474  -1.877  0.00  0.00    +0.046 C 
ATOM     16  C   UNL     1      -0.779   2.603  -0.667  0.00  0.00    -0.025 A 
ATOM     17  C   UNL     1      -0.973   1.244  -0.820  0.00  0.00    +0.005 A 
ATOM     18  C   UNL     1      -1.180   0.444   0.289  0.00  0.00    +0.001 A 
ATOM     19  C   UNL     1      -1.199   1.003   1.554  0.00  0.00    +0.005 A 
ATOM     20  C   UNL     1      -1.000   2.361   1.713  0.00  0.00    -0.025 A 
ATOM     21  C   UNL     1      -0.792   3.166   0.602  0.00  0.00    +0.075 A 
ATOM     22  C   UNL     1      -1.016   2.968   3.092  0.00  0.00    +0.046 C 
ENDBRANCH  10  21
ENDBRANCH   1  11
BRANCH   1  23
ATOM     23  N   UNL     1      -3.724   6.315   1.510  0.00  0.00    +0.389 N 
ATOM     24  H   UNL     1      -3.973   7.118   0.921  0.00  0.00    -0.084 HD
ATOM     25  H   UNL     1      -3.099   6.625   2.264  0.00  0.00    -0.084 HD
BRANCH  23  26
ATOM     26  C   UNL     1      -4.950   5.744   2.098  0.00  0.00    -0.076 C 
BRANCH  26  27
ATOM     27  C   UNL     1      -5.612   6.792   2.994  0.00  0.00    +0.018 C 
BRANCH  27  28
ATOM     28  C   UNL     1      -6.866   6.216   3.600  0.00  0.00    -0.021 A 
ATOM     29  C   UNL     1      -8.103   6.276   3.081  0.00  0.00    +0.017 A 
ATOM     30  N   UNL     1      -8.987   5.640   3.910  0.00  0.00    -0.358 N 
ATOM     31  H   UNL     1      -9.939   5.550   3.745  0.00  0.00    +0.166 HD
ATOM     32  C   UNL     1      -8.325   5.152   5.014  0.00  0.00    +0.047 A 
ATOM     33  C   UNL     1      -6.968   5.491   4.869  0.00  0.00    +0.003 A 
ATOM     34  C   UNL     1      -6.048   5.120   5.851  0.00  0.00    +0.010 A 
ATOM     35  C   UNL     1      -6.471   4.429   6.951  0.00  0.00    +0.001 A 
ATOM     36  C   UNL     1      -7.809   4.092   7.099  0.00  0.00    +0.002 A 
ATOM     37  C   UNL     1      -8.734   4.447   6.141  0.00  0.00    +0.026 A 
ATOM     38  C   UNL     1      -8.463   6.940   1.777  0.00  0.00    +0.063 C 
ENDBRANCH  27  28
ENDBRANCH  26  27
ENDBRANCH  23  26
ENDBRANCH   1  23
TORSDOF 7
