REMARK  Name = ZINC39654502
REMARK  9 active torsions:
REMARK  status: ('A' for Active; 'I' for Inactive)
REMARK    1  A    between atoms: C_1  and  C_2
REMARK    2  A    between atoms: C_2  and  C_3
REMARK    3  A    between atoms: C_6  and  C_9
REMARK    4  A    between atoms: C_9  and  C_10
REMARK    5  A    between atoms: C_10  and  N_11
REMARK    6  A    between atoms: C_12  and  C_14
REMARK    7  A    between atoms: C_25  and  C_27
REMARK    8  A    between atoms: C_31  and  O_32
REMARK    9  A    between atoms: O_32  and  C_33
REMARK                            x       y       z     vdW  Elec       q    Type
REMARK                         _______ _______ _______ _____ _____    ______ ____
ROOT
ATOM      1  C   UNL     1       5.062  -0.757  -8.919  0.00  0.00    +0.100 C 
ATOM      2  C   UNL     1       4.123  -1.659  -9.751  0.00  0.00    +0.121 C 
ATOM      3  N   UNL     1       3.514  -0.747 -10.748  0.00  0.00    -0.296 N 
ATOM      4  C   UNL     1       4.622   0.153 -11.149  0.00  0.00    +0.115 C 
ATOM      5  C   UNL     1       5.390   0.429  -9.842  0.00  0.00    -0.004 C 
ATOM      6  C   UNL     1       4.910   1.734  -9.215  0.00  0.00    -0.010 C 
ATOM      7  C   UNL     1       5.298   2.904 -10.124  0.00  0.00    -0.082 C 
ATOM      8  N   UNL     1       6.755   2.929 -10.298  0.00  0.00    +0.379 N 
ATOM      9  C   UNL     1       7.198   1.710 -10.985  0.00  0.00    -0.082 C 
ATOM     10  C   UNL     1       6.890   0.489 -10.113  0.00  0.00    -0.010 C 
ATOM     11  C   UNL     1       2.241  -0.738 -11.190  0.00  0.00    +0.251 C 
ATOM     12  O   UNL     1       1.419  -1.482 -10.690  0.00  0.00    -0.270 OA
ATOM     13  H   UNL     1       7.013   3.735 -10.847  0.00  0.00    -0.086 HD
ATOM     14  H   UNL     1       7.199   2.984  -9.394  0.00  0.00    -0.086 HD
ENDROOT
BRANCH  11  15
ATOM     15  C   UNL     1       1.846   0.172 -12.276  0.00  0.00    +0.087 A 
ATOM     16  C   UNL     1       2.708   0.484 -13.305  0.00  0.00    +0.063 A 
ATOM     17  S   UNL     1       1.830   1.532 -14.277  0.00  0.00    -0.081 S 
ATOM     18  C   UNL     1       0.302   1.596 -13.367  0.00  0.00    +0.120 A 
ATOM     19  C   UNL     1       0.534   0.776 -12.318  0.00  0.00    +0.158 A 
ATOM     20 CL   UNL     1      -1.139   2.490 -13.740  0.00  0.00    -0.072 Cl
BRANCH  19  21
ATOM     21  O   UNL     1      -0.405   0.538 -11.361  0.00  0.00    -0.492 OA
ATOM     22  C   UNL     1      -0.418   1.415 -10.232  0.00  0.00    +0.277 C 
ENDBRANCH  19  21
ENDBRANCH  11  15
BRANCH   1  24
ATOM     23  N   UNL     1       5.070  -0.026  -6.556  0.00  0.00    -0.315 N 
ATOM     24  C   UNL     1       4.361  -0.276  -7.675  0.00  0.00    +0.218 C 
ATOM     25  O   UNL     1       3.160  -0.113  -7.681  0.00  0.00    -0.275 OA
ATOM     26  H   UNL     1       6.031  -0.157  -6.551  0.00  0.00    +0.149 HD
BRANCH  23  27
ATOM     27  C   UNL     1       4.388   0.441  -5.346  0.00  0.00    +0.109 C 
BRANCH  27  28
ATOM     28  C   UNL     1       5.414   0.646  -4.230  0.00  0.00    +0.054 C 
BRANCH  28  32
ATOM     29  C   UNL     1       3.429   2.010  -0.702  0.00  0.00    -0.048 A 
ATOM     30  C   UNL     1       3.594   0.655  -0.922  0.00  0.00    +0.004 A 
ATOM     31  C   UNL     1       4.237   0.214  -2.064  0.00  0.00    +0.004 A 
ATOM     32  C   UNL     1       4.713   1.127  -2.986  0.00  0.00    -0.046 A 
ATOM     33  C   UNL     1       4.548   2.482  -2.766  0.00  0.00    +0.004 A 
ATOM     34  C   UNL     1       3.902   2.923  -1.626  0.00  0.00    +0.004 A 
BRANCH  29  36
ATOM     35  C   UNL     1       1.228   2.607   0.271  0.00  0.00    +0.009 C 
ATOM     36  C   UNL     1       2.729   2.491   0.543  0.00  0.00    +0.032 C 
ENDBRANCH  29  36
ENDBRANCH  28  32
ENDBRANCH  27  28
ENDBRANCH  23  27
ENDBRANCH   1  24
TORSDOF 7
