REMARK  Name = ZINC04250009
REMARK  5 active torsions:
REMARK  status: ('A' for Active; 'I' for Inactive)
REMARK    1  A    between atoms: C_1  and  C_2
REMARK    2  A    between atoms: C_10  and  S_13
REMARK    3  A    between atoms: S_13  and  C_14
REMARK    4  A    between atoms: C_14  and  C_15
REMARK    5  A    between atoms: N_17  and  C_18
REMARK                            x       y       z     vdW  Elec       q    Type
REMARK                         _______ _______ _______ _____ _____    ______ ____
ROOT
ATOM      1  S   UNL     1       3.993   6.299   0.332  0.00  0.00    -0.076 S 
ENDROOT
BRANCH   1  11
ATOM      2  C   UNL     1       6.795   7.451   0.518  0.00  0.00    +0.064 C 
ATOM      3  C   UNL     1       6.177   8.823   0.609  0.00  0.00    +0.031 A 
ATOM      4  C   UNL     1       6.965   9.907   0.724  0.00  0.00    +0.091 A 
ATOM      5  C   UNL     1       6.383  11.197   0.809  0.00  0.00    +0.253 A 
ATOM      6  O   UNL     1       7.093  12.181   0.912  0.00  0.00    -0.268 OA
ATOM      7  N   UNL     1       5.042  11.330   0.776  0.00  0.00    -0.291 N 
ATOM      8  H   UNL     1       4.639  12.211   0.834  0.00  0.00    +0.172 HD
ATOM      9  C   UNL     1       4.240  10.207   0.658  0.00  0.00    +0.237 A 
ATOM     10  N   UNL     1       4.809   8.962   0.582  0.00  0.00    -0.260 N 
ATOM     11  C   UNL     1       3.798   8.045   0.468  0.00  0.00    +0.198 A 
ATOM     12  N   UNL     1       2.659   8.694   0.483  0.00  0.00    -0.120 NA
ATOM     13  N   UNL     1       2.938  10.061   0.603  0.00  0.00    -0.109 NA
ENDBRANCH   1  11
BRANCH   1  14
ATOM     14  C   UNL     1       2.293   5.674   0.225  0.00  0.00    +0.173 C 
BRANCH  14  15
ATOM     15  C   UNL     1       2.317   4.172   0.104  0.00  0.00    +0.227 C 
ATOM     16  O   UNL     1       3.376   3.582   0.091  0.00  0.00    -0.275 OA
ATOM     17  N   UNL     1       1.161   3.486   0.009  0.00  0.00    -0.285 N 
ATOM     18  H   UNL     1       0.318   3.961  -0.058  0.00  0.00    +0.155 HD
BRANCH  17  19
ATOM     19  C   UNL     1       1.177   2.086   0.008  0.00  0.00    +0.033 A 
ATOM     20  C   UNL     1       2.133   1.400   0.745  0.00  0.00    +0.024 A 
ATOM     21  C   UNL     1       2.146   0.019   0.742  0.00  0.00    +0.017 A 
ATOM     22  C   UNL     1       1.207  -0.681   0.006  0.00  0.00    +0.018 A 
ATOM     23  C   UNL     1       0.253  -0.000  -0.729  0.00  0.00    +0.017 A 
ATOM     24  C   UNL     1       0.235   1.381  -0.730  0.00  0.00    +0.024 A 
ATOM     25 BR   UNL     1       1.228  -2.572   0.004  0.00  0.00    -0.050 Br
ENDBRANCH  17  19
ENDBRANCH  14  15
ENDBRANCH   1  14
TORSDOF 4
