REMARK  Name = ZINC00861420
REMARK  11 active torsions:
REMARK  status: ('A' for Active; 'I' for Inactive)
REMARK    1  A    between atoms: C_1  and  C_2
REMARK    2  A    between atoms: C_3  and  C_34
REMARK    3  A    between atoms: C_4  and  C_22
REMARK    4  A    between atoms: C_10  and  C_15
REMARK    5  A    between atoms: C_25  and  O_30
REMARK    6  A    between atoms: C_26  and  O_28
REMARK    7  A    between atoms: O_28  and  C_29
REMARK    8  A    between atoms: O_30  and  C_31
REMARK    9  A    between atoms: C_31  and  C_33
REMARK   10  A    between atoms: C_34  and  O_36
REMARK   11  A    between atoms: O_36  and  C_37
REMARK                            x       y       z     vdW  Elec       q    Type
REMARK                         _______ _______ _______ _____ _____    ______ ____
ROOT
ATOM      1  C   UNL     1      -1.122   2.954   3.174  0.00  0.00    +0.061 C 
ATOM      2  C   UNL     1      -0.337   2.530   1.960  0.00  0.00    +0.016 C 
ATOM      3  C   UNL     1      -0.764   1.496   1.215  0.00  0.00    +0.065 C 
ATOM      4  C   UNL     1      -0.013   1.052  -0.006  0.00  0.00    +0.092 C 
ATOM      5  C   UNL     1       1.397   1.589   0.001  0.00  0.00    +0.024 C 
ATOM      6  C   UNL     1       1.737   2.621   0.801  0.00  0.00    +0.016 C 
ATOM      7  N   UNL     1       0.806   3.200   1.623  0.00  0.00    -0.321 N 
ATOM      8  C   UNL     1       3.145   3.162   0.817  0.00  0.00    +0.059 C 
ATOM      9  C   UNL     1       3.782   2.975  -0.562  0.00  0.00    +0.032 C 
ATOM     10  C   UNL     1       3.761   1.483  -0.909  0.00  0.00    +0.088 C 
ATOM     11  C   UNL     1       2.342   0.987  -0.848  0.00  0.00    +0.162 C 
ATOM     12  O   UNL     1       2.006   0.050  -1.545  0.00  0.00    -0.292 OA
ATOM     13  H   UNL     1       0.986   4.212   2.013  0.00  0.00    +0.152 HD
ENDROOT
BRANCH   9  14
ATOM     14  C   UNL     1       5.206   3.467  -0.533  0.00  0.00    -0.043 A 
ATOM     15  C   UNL     1       6.111   2.913   0.353  0.00  0.00    +0.005 A 
ATOM     16  C   UNL     1       7.419   3.360   0.377  0.00  0.00    +0.020 A 
ATOM     17  C   UNL     1       7.819   4.371  -0.479  0.00  0.00    +0.041 A 
ATOM     18  C   UNL     1       6.912   4.930  -1.361  0.00  0.00    +0.020 A 
ATOM     19  C   UNL     1       5.606   4.478  -1.388  0.00  0.00    +0.005 A 
ATOM     20 CL   UNL     1       9.460   4.938  -0.446  0.00  0.00    -0.084 Cl
ENDBRANCH   9  14
BRANCH   4  21
ATOM     21  C   UNL     1      -0.727   1.553  -1.235  0.00  0.00    -0.032 A 
ATOM     22  C   UNL     1      -0.899   2.911  -1.427  0.00  0.00    +0.008 A 
ATOM     23  C   UNL     1      -1.548   3.376  -2.555  0.00  0.00    +0.050 A 
ATOM     24  C   UNL     1      -2.038   2.479  -3.491  0.00  0.00    +0.173 A 
ATOM     25  C   UNL     1      -1.870   1.112  -3.295  0.00  0.00    +0.163 A 
ATOM     26  C   UNL     1      -1.213   0.653  -2.164  0.00  0.00    +0.054 A 
BRANCH  25  27
ATOM     27  O   UNL     1      -2.350   0.228  -4.210  0.00  0.00    -0.491 OA
ATOM     28  C   UNL     1      -2.141  -1.160  -3.943  0.00  0.00    +0.277 C 
ENDBRANCH  25  27
BRANCH  24  29
ATOM     29  O   UNL     1      -2.683   2.934  -4.599  0.00  0.00    -0.422 OA
BRANCH  29  30
ATOM     30  C   UNL     1      -4.025   2.921  -4.572  0.00  0.00    +0.309 C 
ATOM     31  O   UNL     1      -4.606   2.610  -3.559  0.00  0.00    -0.251 OA
ATOM     32  C   UNL     1      -4.807   3.295  -5.805  0.00  0.00    +0.136 C 
ENDBRANCH  29  30
ENDBRANCH  24  29
ENDBRANCH   4  21
BRANCH   3  33
ATOM     33  C   UNL     1      -1.946   0.814   1.588  0.00  0.00    +0.337 C 
ATOM     34  O   UNL     1      -2.565   1.164   2.575  0.00  0.00    -0.245 OA
BRANCH  33  35
ATOM     35  O   UNL     1      -2.387  -0.226   0.849  0.00  0.00    -0.465 OA
ATOM     36  C   UNL     1      -3.587  -0.868   1.284  0.00  0.00    +0.280 C 
ENDBRANCH  33  35
ENDBRANCH   3  33
TORSDOF 7
