REMARK  Name = ZINC16663462
REMARK  7 active torsions:
REMARK  status: ('A' for Active; 'I' for Inactive)
REMARK    1  A    between atoms: C_1  and  C_2
REMARK    2  A    between atoms: N_11  and  S_12
REMARK    3  A    between atoms: S_12  and  C_15
REMARK    4  A    between atoms: C_17  and  N_23
REMARK    5  A    between atoms: C_20  and  O_21
REMARK    6  A    between atoms: O_21  and  C_22
REMARK    7  A    between atoms: C_26  and  C_32
REMARK                            x       y       z     vdW  Elec       q    Type
REMARK                         _______ _______ _______ _____ _____    ______ ____
ROOT
ATOM      1  C   UNL     1      -0.961   1.814  -1.350  0.00  0.00    +0.152 A 
ATOM      2  C   UNL     1      -0.571   2.814  -2.219  0.00  0.00    +0.057 A 
ATOM      3  C   UNL     1      -1.364   3.132  -3.313  0.00  0.00    +0.061 A 
ATOM      4  C   UNL     1      -2.555   2.451  -3.527  0.00  0.00    +0.029 A 
ATOM      5  C   UNL     1      -2.947   1.455  -2.655  0.00  0.00    +0.049 A 
ATOM      6  C   UNL     1      -2.151   1.134  -1.565  0.00  0.00    +0.147 A 
ENDROOT
BRANCH   3   7
ATOM      7  N   UNL     1      -0.966   4.143  -4.197  0.00  0.00    -0.143 N 
ATOM      8  C   UNL     1       0.293   4.554  -4.412  0.00  0.00    +0.243 C 
ATOM      9  O   UNL     1       1.224   4.024  -3.841  0.00  0.00    -0.273 OA
ATOM     10  C   UNL     1       0.524   5.678  -5.375  0.00  0.00    +0.097 C 
ATOM     11  C   UNL     1      -0.728   5.825  -6.279  0.00  0.00    +0.201 C 
ATOM     12  S   UNL     1      -1.978   5.058  -5.168  0.00  0.00    +0.053 S 
ATOM     13  O   UNL     1      -2.780   4.122  -5.876  0.00  0.00    -0.155 OA
ATOM     14  O   UNL     1      -2.559   6.030  -4.310  0.00  0.00    -0.155 OA
ATOM     15  C   UNL     1       0.753   6.976  -4.598  0.00  0.00    +0.019 C 
ENDBRANCH   3   7
BRANCH   1  16
ATOM     16  S   UNL     1       0.048   1.407   0.035  0.00  0.00    +0.077 S 
ATOM     17  O   UNL     1       0.202  -0.006   0.024  0.00  0.00    -0.150 OA
ATOM     18  O   UNL     1       1.158   2.294   0.004  0.00  0.00    -0.150 OA
BRANCH  16  29
ATOM     19  C   UNL     1      -2.850   9.113   2.925  0.00  0.00    +0.044 C 
ATOM     20  C   UNL     1      -2.347   7.809   2.360  0.00  0.00    -0.049 A 
ATOM     21  C   UNL     1      -1.739   7.772   1.114  0.00  0.00    +0.005 A 
ATOM     22  C   UNL     1      -1.273   6.600   0.578  0.00  0.00    +0.029 A 
ATOM     23  C   UNL     1      -1.400   5.382   1.285  0.00  0.00    +0.080 A 
ATOM     24  C   UNL     1      -2.025   5.457   2.551  0.00  0.00    +0.041 A 
ATOM     25  C   UNL     1      -2.489   6.636   3.079  0.00  0.00    +0.020 A 
ATOM     26  S   UNL     1      -1.987   3.765   3.092  0.00  0.00    -0.051 S 
ATOM     27  C   UNL     1      -1.172   3.087   1.654  0.00  0.00    +0.179 A 
ATOM     28  N   UNL     1      -0.992   4.151   0.906  0.00  0.00    -0.224 NA
ATOM     29  N   UNL     1      -0.817   1.778   1.398  0.00  0.00    -0.194 N 
ATOM     30  H   UNL     1      -1.073   1.076   2.016  0.00  0.00    +0.176 HD
ENDBRANCH  16  29
ENDBRANCH   1  16
BRANCH   6  31
ATOM     31  O   UNL     1      -2.538   0.153  -0.706  0.00  0.00    -0.493 OA
ATOM     32  C   UNL     1      -3.711  -0.586  -1.052  0.00  0.00    +0.277 C 
ENDBRANCH   6  31
TORSDOF 4
