REMARK  Name = ZINC39296168
REMARK  5 active torsions:
REMARK  status: ('A' for Active; 'I' for Inactive)
REMARK    1  A    between atoms: C_1  and  C_2
REMARK    2  A    between atoms: C_3  and  C_4
REMARK    3  A    between atoms: N_6  and  C_7
REMARK    4  A    between atoms: C_8  and  C_13
REMARK    5  A    between atoms: C_11  and  C_12
REMARK                            x       y       z     vdW  Elec       q    Type
REMARK                         _______ _______ _______ _____ _____    ______ ____
ROOT
ATOM      1  C   UNL     1      -1.949  -2.057   0.623  0.00  0.00    +0.241 C 
ATOM      2  O   UNL     1      -1.909  -2.542   1.738  0.00  0.00    -0.271 OA
ATOM      3  N   UNL     1      -2.120  -2.851  -0.452  0.00  0.00    -0.281 N 
ATOM      4  H   UNL     1      -2.229  -2.459  -1.332  0.00  0.00    +0.155 HD
ENDROOT
BRANCH   3   5
ATOM      5  C   UNL     1      -2.139  -4.249  -0.298  0.00  0.00    +0.047 A 
ATOM      6  C   UNL     1      -3.259  -4.983  -0.654  0.00  0.00    -0.022 A 
ATOM      7  C   UNL     1      -3.242  -6.328  -0.492  0.00  0.00    +0.050 A 
ATOM      8  S   UNL     1      -1.612  -6.601   0.182  0.00  0.00    -0.100 S 
ATOM      9  C   UNL     1      -1.056  -4.905   0.199  0.00  0.00    +0.008 A 
ATOM     10  C   UNL     1       0.269  -4.345   0.649  0.00  0.00    +0.053 C 
ATOM     11  C   UNL     1      -4.478  -4.295  -1.214  0.00  0.00    +0.046 C 
ENDBRANCH   3   5
BRANCH   1  14
ATOM     12  C   UNL     1      -1.503   1.671   1.332  0.00  0.00    +0.035 C 
ATOM     13  C   UNL     1      -1.644   0.181   1.510  0.00  0.00    -0.025 C 
ATOM     14  C   UNL     1      -1.812  -0.603   0.449  0.00  0.00    +0.063 C 
ENDBRANCH   1  14
TORSDOF 2
