REMARK  Name = ZINC08684022
REMARK  7 active torsions:
REMARK  status: ('A' for Active; 'I' for Inactive)
REMARK    1  A    between atoms: C_1  and  C_2
REMARK    2  A    between atoms: C_7  and  C_13
REMARK    3  A    between atoms: C_13  and  C_14
REMARK    4  A    between atoms: C_14  and  N_15
REMARK    5  A    between atoms: C_16  and  C_18
REMARK    6  A    between atoms: C_21  and  C_27
REMARK    7  A    between atoms: C_22  and  N_24
REMARK                            x       y       z     vdW  Elec       q    Type
REMARK                         _______ _______ _______ _____ _____    ______ ____
ROOT
ATOM      1  C   UNL     1       1.234  -6.955   1.357  0.00  0.00    +0.109 C 
ENDROOT
BRANCH   1   2
ATOM      2  N   UNL     1       1.346  -8.412   1.458  0.00  0.00    -0.311 N 
ATOM      3  C   UNL     1       2.553  -9.004   1.363  0.00  0.00    +0.244 C 
ATOM      4  O   UNL     1       3.549  -8.328   1.195  0.00  0.00    -0.270 OA
ATOM      5  H   UNL     1       0.551  -8.951   1.592  0.00  0.00    +0.149 HD
BRANCH   3   6
ATOM      6  C   UNL     1       2.666 -10.474   1.466  0.00  0.00    +0.039 A 
ATOM      7  C   UNL     1       1.523 -11.253   1.653  0.00  0.00    +0.013 A 
ATOM      8  C   UNL     1       1.635 -12.625   1.747  0.00  0.00    +0.006 A 
ATOM      9  C   UNL     1       2.877 -13.229   1.656  0.00  0.00    -0.020 A 
ATOM     10  C   UNL     1       4.013 -12.462   1.470  0.00  0.00    +0.130 A 
ATOM     11  C   UNL     1       3.915 -11.090   1.369  0.00  0.00    +0.046 A 
ATOM     12  C   UNL     1       2.992 -14.728   1.760  0.00  0.00    +0.046 C 
BRANCH  10  13
ATOM     13  N   UNL     1       5.338 -13.116   1.374  0.00  0.00    +0.057 N 
ATOM     14  O   UNL     1       6.311 -12.584   1.855  0.00  0.00    -0.126 OA
ATOM     15  O   UNL     1       5.446 -14.183   0.815  0.00  0.00    -0.126 OA
ENDBRANCH  10  13
ENDBRANCH   3   6
ENDBRANCH   1   2
BRANCH   1  16
ATOM     16  C   UNL     1      -0.234  -6.545   1.495  0.00  0.00    +0.059 C 
BRANCH  16  23
ATOM     17  C   UNL     1      -1.033   1.248  -0.006  0.00  0.00    +0.044 C 
ATOM     18  C   UNL     1      -0.928  -0.254   0.051  0.00  0.00    -0.048 A 
ATOM     19  C   UNL     1      -1.125  -1.001  -1.103  0.00  0.00    +0.004 A 
ATOM     20  C   UNL     1      -1.035  -2.363  -1.074  0.00  0.00    +0.010 A 
ATOM     21  C   UNL     1      -0.741  -3.013   0.130  0.00  0.00    -0.001 A 
ATOM     22  C   UNL     1      -0.636  -4.472   0.197  0.00  0.00    +0.019 A 
ATOM     23  C   UNL     1      -0.348  -5.046   1.391  0.00  0.00    +0.019 A 
ATOM     24  C   UNL     1      -0.157  -4.245   2.537  0.00  0.00    +0.252 A 
ATOM     25  N   UNL     1      -0.251  -2.905   2.485  0.00  0.00    -0.322 N 
ATOM     26  C   UNL     1      -0.540  -2.260   1.302  0.00  0.00    +0.049 A 
ATOM     27  C   UNL     1      -0.632  -0.873   1.246  0.00  0.00    +0.029 A 
ATOM     28  O   UNL     1       0.101  -4.782   3.601  0.00  0.00    -0.268 OA
ATOM     29  H   UNL     1      -0.114  -2.384   3.292  0.00  0.00    +0.169 HD
ENDBRANCH  16  23
ENDBRANCH   1  16
TORSDOF 5
