REMARK  Name = ZINC11268935
REMARK  5 active torsions:
REMARK  status: ('A' for Active; 'I' for Inactive)
REMARK    1  A    between atoms: N_12  and  C_16
REMARK    2  A    between atoms: C_16  and  C_17
REMARK    3  A    between atoms: C_20  and  C_32
REMARK    4  A    between atoms: C_23  and  C_25
REMARK    5  A    between atoms: C_26  and  C_27
REMARK                            x       y       z     vdW  Elec       q    Type
REMARK                         _______ _______ _______ _____ _____    ______ ____
ROOT
ATOM      1  C   UNL     1      -5.006  -4.413   0.025  0.00  0.00    +0.253 C 
ATOM      2  O   UNL     1      -6.146  -4.827   0.033  0.00  0.00    -0.272 OA
ATOM      3  N   UNL     1      -4.770  -3.086   0.031  0.00  0.00    -0.181 N 
ATOM      4  C   UNL     1      -5.800  -2.035   0.047  0.00  0.00    +0.173 C 
ATOM      5  C   UNL     1      -4.985  -0.727   0.046  0.00  0.00    +0.089 C 
ATOM      6  C   UNL     1      -3.546  -1.193   0.030  0.00  0.00    +0.062 C 
ATOM      7  N   UNL     1      -3.513  -2.487   0.018  0.00  0.00    -0.181 NA
ENDROOT
BRANCH   4   8
ATOM      8  C   UNL     1      -6.664  -2.122  -1.185  0.00  0.00    +0.128 A 
ATOM      9  C   UNL     1      -7.979  -1.843  -1.244  0.00  0.00    +0.046 A 
ATOM     10  C   UNL     1      -8.381  -2.053  -2.583  0.00  0.00    +0.041 A 
ATOM     11  C   UNL     1      -7.291  -2.455  -3.260  0.00  0.00    +0.195 A 
ATOM     12  O   UNL     1      -6.253  -2.495  -2.408  0.00  0.00    -0.466 OA
ENDBRANCH   4   8
BRANCH   6  13
ATOM     13  C   UNL     1      -2.413  -0.345   0.024  0.00  0.00    +0.028 C 
ATOM     14  C   UNL     1      -1.169  -0.879   0.009  0.00  0.00    +0.048 C 
BRANCH  14  15
ATOM     15  C   UNL     1       0.002  -0.004   0.002  0.00  0.00    +0.128 A 
ATOM     16  C   UNL     1       1.308  -0.409  -0.013  0.00  0.00    +0.049 A 
ATOM     17  C   UNL     1       2.093   0.758  -0.014  0.00  0.00    +0.042 A 
ATOM     18  C   UNL     1       1.244   1.807  -0.000  0.00  0.00    +0.195 A 
ATOM     19  O   UNL     1      -0.016   1.344   0.009  0.00  0.00    -0.464 OA
ENDBRANCH  14  15
ENDBRANCH   6  13
BRANCH   1  20
ATOM     20  C   UNL     1      -3.852  -5.383   0.009  0.00  0.00    +0.215 C 
BRANCH  20  32
ATOM     21  C   UNL     1      -3.125 -12.092  -2.418  0.00  0.00    +0.000 A 
ATOM     22  C   UNL     1      -2.446 -11.437  -1.407  0.00  0.00    +0.000 A 
ATOM     23  C   UNL     1      -3.029 -10.357  -0.774  0.00  0.00    +0.006 A 
ATOM     24  C   UNL     1      -4.291  -9.925  -1.146  0.00  0.00    -0.012 A 
ATOM     25  C   UNL     1      -4.969 -10.581  -2.159  0.00  0.00    -0.042 A 
ATOM     26  C   UNL     1      -4.383 -11.663  -2.792  0.00  0.00    +0.004 A 
ATOM     27  C   UNL     1      -6.316  -9.925  -2.383  0.00  0.00    +0.038 C 
ATOM     28  C   UNL     1      -6.567  -9.071  -1.119  0.00  0.00    +0.045 C 
ATOM     29  C   UNL     1      -5.140  -8.796  -0.627  0.00  0.00    +0.138 C 
ATOM     30  C   UNL     1      -4.644  -7.459  -1.113  0.00  0.00    +0.251 C 
ATOM     31  O   UNL     1      -4.521  -7.093  -2.263  0.00  0.00    -0.272 OA
ATOM     32  N   UNL     1      -4.367  -6.755   0.005  0.00  0.00    -0.215 N 
ATOM     33  C   UNL     1      -4.616  -7.468   1.111  0.00  0.00    +0.310 C 
ATOM     34  O   UNL     1      -4.440  -7.051   2.239  0.00  0.00    -0.252 OA
ATOM     35  N   UNL     1      -5.087  -8.701   0.832  0.00  0.00    -0.281 N 
ATOM     36  H   UNL     1      -5.337  -9.387   1.470  0.00  0.00    +0.152 HD
ENDBRANCH  20  32
ENDBRANCH   1  20
TORSDOF 5
