REMARK  Name = ZINC00597824
REMARK  6 active torsions:
REMARK  status: ('A' for Active; 'I' for Inactive)
REMARK    1  A    between atoms: C_1  and  C_2
REMARK    2  A    between atoms: C_2  and  C_3
REMARK    3  A    between atoms: C_5  and  N_12
REMARK    4  A    between atoms: C_10  and  C_11
REMARK    5  A    between atoms: N_12  and  C_13
REMARK    6  A    between atoms: C_13  and  C_14
REMARK                            x       y       z     vdW  Elec       q    Type
REMARK                         _______ _______ _______ _____ _____    ______ ____
ROOT
ATOM      1  N   UNL     1      -0.017   1.396   0.010  0.00  0.00    -0.331 N 
ATOM      2  H   UNL     1       0.816   1.893   0.004  0.00  0.00    +0.147 HD
ENDROOT
BRANCH   1   5
ATOM      3  C   UNL     1       1.182  -2.083  -0.021  0.00  0.00    -0.027 A 
ATOM      4  C   UNL     1       1.191  -0.680  -0.019  0.00  0.00    +0.033 A 
ATOM      5  C   UNL     1       0.002  -0.004   0.002  0.00  0.00    +0.093 A 
ATOM      6  C   UNL     1      -1.206  -0.735   0.010  0.00  0.00    +0.270 A 
ATOM      7  O   UNL     1      -2.276  -0.147   0.023  0.00  0.00    -0.266 OA
ATOM      8  N   UNL     1      -1.177  -2.082   0.002  0.00  0.00    -0.325 N 
ATOM      9  H   UNL     1      -2.035  -2.595   0.007  0.00  0.00    +0.169 HD
ATOM     10  C   UNL     1       0.007  -2.752  -0.014  0.00  0.00    +0.019 A 
ATOM     11  C   UNL     1       0.009  -4.259  -0.022  0.00  0.00    +0.063 C 
BRANCH   3  13
ATOM     12  C   UNL     1       2.971  -2.985  -1.482  0.00  0.00    +0.009 C 
ATOM     13  C   UNL     1       2.482  -2.844  -0.039  0.00  0.00    +0.033 C 
ENDBRANCH   3  13
ENDBRANCH   1   5
BRANCH   1  14
ATOM     14  C   UNL     1      -1.295   2.111   0.020  0.00  0.00    +0.198 C 
BRANCH  14  15
ATOM     15  C   UNL     1      -1.040   3.597   0.026  0.00  0.00    +0.214 A 
ATOM     16  N   UNL     1      -0.919   4.334  -1.036  0.00  0.00    -0.210 NA
ATOM     17  C   UNL     1      -0.696   5.621  -0.653  0.00  0.00    +0.129 A 
ATOM     18  C   UNL     1      -0.495   6.815  -1.350  0.00  0.00    +0.070 A 
ATOM     19  C   UNL     1      -0.291   7.986  -0.653  0.00  0.00    +0.024 A 
ATOM     20  C   UNL     1      -0.283   7.986   0.734  0.00  0.00    +0.025 A 
ATOM     21  C   UNL     1      -0.481   6.813   1.435  0.00  0.00    +0.085 A 
ATOM     22  C   UNL     1      -0.688   5.625   0.749  0.00  0.00    +0.175 A 
ATOM     23  O   UNL     1      -0.911   4.348   1.131  0.00  0.00    -0.437 OA
ATOM     24 CL   UNL     1      -0.469   6.825   3.171  0.00  0.00    -0.080 Cl
ATOM     25 CL   UNL     1      -0.503   6.824  -3.086  0.00  0.00    -0.081 Cl
ENDBRANCH  14  15
ENDBRANCH   1  14
TORSDOF 4
