REMARK  Name = ZINC62523777
REMARK  5 active torsions:
REMARK  status: ('A' for Active; 'I' for Inactive)
REMARK    1  A    between atoms: C_1  and  C_2
REMARK    2  A    between atoms: C_4  and  C_16
REMARK    3  A    between atoms: C_9  and  C_13
REMARK    4  A    between atoms: C_13  and  C_14
REMARK    5  A    between atoms: C_13  and  C_15
REMARK                            x       y       z     vdW  Elec       q    Type
REMARK                         _______ _______ _______ _____ _____    ______ ____
ROOT
ATOM      1  C   UNL     1      -0.121   1.800   0.973  0.00  0.00    +0.044 C 
ATOM      2  C   UNL     1      -0.087   0.315   0.720  0.00  0.00    -0.048 A 
ATOM      3  C   UNL     1      -0.104  -0.165  -0.576  0.00  0.00    +0.010 A 
ATOM      4  C   UNL     1      -0.075  -1.526  -0.816  0.00  0.00    -0.007 A 
ATOM      5  C   UNL     1      -0.027  -2.418   0.245  0.00  0.00    +0.144 A 
ATOM      6  C   UNL     1      -0.007  -1.932   1.550  0.00  0.00    +0.070 A 
ATOM      7  C   UNL     1      -0.034  -0.566   1.784  0.00  0.00    +0.030 A 
ATOM      8  N   UNL     1       0.049  -2.830   2.627  0.00  0.00    -0.335 N 
ATOM      9  C   UNL     1      -0.229  -4.250   2.349  0.00  0.00    +0.110 C 
ATOM     10  C   UNL     1       0.480  -4.613   1.036  0.00  0.00    +0.251 C 
ATOM     11  O   UNL     1      -0.003  -3.755  -0.000  0.00  0.00    -0.488 OA
ATOM     12  C   UNL     1      -0.095  -2.042  -2.232  0.00  0.00    +0.047 C 
ATOM     13  H   UNL     1       0.263  -2.526   3.523  0.00  0.00    +0.147 HD
ENDROOT
BRANCH   9  14
ATOM     14  C   UNL     1      -1.736  -4.466   2.204  0.00  0.00    +0.006 C 
ATOM     15  C   UNL     1      -2.023  -5.958   2.024  0.00  0.00    +0.009 C 
ATOM     16  C   UNL     1      -2.447  -3.958   3.460  0.00  0.00    +0.009 C 
ENDBRANCH   9  14
TORSDOF 1
