REMARK  Name = ZINC09374961
REMARK  7 active torsions:
REMARK  status: ('A' for Active; 'I' for Inactive)
REMARK    1  A    between atoms: C_1  and  C_2
REMARK    2  A    between atoms: C_4  and  C_8
REMARK    3  A    between atoms: N_12  and  N_13
REMARK    4  A    between atoms: C_14  and  C_15
REMARK    5  A    between atoms: C_19  and  O_21
REMARK    6  A    between atoms: O_21  and  C_22
REMARK    7  A    between atoms: C_22  and  C_23
REMARK                            x       y       z     vdW  Elec       q    Type
REMARK                         _______ _______ _______ _____ _____    ______ ____
ROOT
ATOM      1  N   UNL     1       3.592   3.635   0.630  0.00  0.00    -0.170 NA
ATOM      2  C   UNL     1       3.514   3.986   1.876  0.00  0.00    +0.141 C 
ENDROOT
BRANCH   1   7
ATOM      3  C   UNL     1       2.501   1.485   0.004  0.00  0.00    +0.203 A 
ATOM      4  N   UNL     1       2.958   0.284  -0.277  0.00  0.00    -0.125 NA
ATOM      5  N   UNL     1       4.240   0.270  -0.189  0.00  0.00    -0.119 NA
ATOM      6  C   UNL     1       4.685   1.459   0.153  0.00  0.00    +0.223 A 
ATOM      7  N   UNL     1       3.595   2.278   0.283  0.00  0.00    -0.185 N 
ATOM      8  S   UNL     1       6.370   1.915   0.393  0.00  0.00    -0.007 SA
BRANCH   3  12
ATOM      9  C   UNL     1      -2.574   1.393   0.036  0.00  0.00    +0.067 C 
ATOM     10  C   UNL     1      -1.149   1.883   0.026  0.00  0.00    +0.060 A 
ATOM     11  C   UNL     1      -0.013   1.076   0.020  0.00  0.00    +0.055 A 
ATOM     12  C   UNL     1       1.090   1.905   0.012  0.00  0.00    +0.105 A 
ATOM     13  N   UNL     1       0.626   3.189   0.007  0.00  0.00    -0.274 N 
ATOM     14  H   UNL     1       1.335   4.030  -0.007  0.00  0.00    +0.189 HD
ATOM     15  N   UNL     1      -0.774   3.137   0.022  0.00  0.00    -0.179 NA
ENDBRANCH   3  12
ENDBRANCH   1   7
BRANCH   2  16
ATOM     16  C   UNL     1       3.510   5.415   2.241  0.00  0.00    -0.002 A 
ATOM     17  C   UNL     1       3.596   6.393   1.247  0.00  0.00    +0.010 A 
ATOM     18  C   UNL     1       3.588   7.728   1.593  0.00  0.00    +0.004 A 
ATOM     19  C   UNL     1       3.505   8.103   2.921  0.00  0.00    +0.046 A 
ATOM     20  C   UNL     1       3.424   7.139   3.917  0.00  0.00    +0.122 A 
ATOM     21  C   UNL     1       3.427   5.795   3.582  0.00  0.00    +0.055 A 
BRANCH  20  22
ATOM     22  O   UNL     1       3.343   7.514   5.220  0.00  0.00    -0.487 OA
BRANCH  22  23
ATOM     23  C   UNL     1       3.346   8.916   5.494  0.00  0.00    +0.264 C 
BRANCH  23  24
ATOM     24  C   UNL     1       3.250   9.139   6.981  0.00  0.00    -0.010 A 
ATOM     25  C   UNL     1       2.012   9.264   7.583  0.00  0.00    +0.007 A 
ATOM     26  C   UNL     1       1.924   9.463   8.948  0.00  0.00    +0.000 A 
ATOM     27  C   UNL     1       3.075   9.547   9.710  0.00  0.00    +0.000 A 
ATOM     28  C   UNL     1       4.313   9.428   9.107  0.00  0.00    +0.000 A 
ATOM     29  C   UNL     1       4.401   9.223   7.742  0.00  0.00    +0.007 A 
ENDBRANCH  23  24
ENDBRANCH  22  23
ENDBRANCH  20  22
ENDBRANCH   2  16
TORSDOF 6
