REMARK  Name = ZINC11881269
REMARK  13 active torsions:
REMARK  status: ('A' for Active; 'I' for Inactive)
REMARK    1  A    between atoms: C_1  and  C_2
REMARK    2  A    between atoms: C_2  and  N_63
REMARK    3  A    between atoms: C_3  and  C_4
REMARK    4  A    between atoms: C_3  and  N_63
REMARK    5  A    between atoms: C_5  and  C_6
REMARK    6  A    between atoms: C_5  and  N_63
REMARK    7  A    between atoms: C_8  and  C_25
REMARK    8  A    between atoms: C_11  and  O_12
REMARK    9  A    between atoms: O_12  and  C_13
REMARK   10  A    between atoms: C_13  and  C_14
REMARK   11  A    between atoms: N_16  and  C_17
REMARK   12  A    between atoms: C_17  and  C_19
REMARK   13  A    between atoms: C_17  and  C_20
REMARK                            x       y       z     vdW  Elec       q    Type
REMARK                         _______ _______ _______ _____ _____    ______ ____
ROOT
ATOM      1  C   UNL     1       7.239   0.160   1.997  0.00  0.00    -0.022 A 
ATOM      2  C   UNL     1       8.616   0.120   1.933  0.00  0.00    +0.013 A 
ATOM      3  C   UNL     1       9.305   1.062   1.170  0.00  0.00    -0.017 A 
ATOM      4  C   UNL     1       8.598   2.041   0.474  0.00  0.00    +0.012 A 
ATOM      5  C   UNL     1       7.221   2.073   0.537  0.00  0.00    +0.046 A 
ATOM      6  C   UNL     1       6.538   1.137   1.302  0.00  0.00    +0.123 A 
ENDROOT
BRANCH   3   7
ATOM      7  C   UNL     1      10.786   1.021   1.099  0.00  0.00    -0.014 A 
ATOM      8  C   UNL     1      11.492   0.041   1.795  0.00  0.00    +0.012 A 
ATOM      9  C   UNL     1      12.869   0.004   1.728  0.00  0.00    +0.050 A 
ATOM     10  C   UNL     1      13.556   0.939   0.969  0.00  0.00    +0.166 A 
ATOM     11  C   UNL     1      12.855   1.921   0.271  0.00  0.00    +0.167 A 
ATOM     12  C   UNL     1      11.474   1.959   0.332  0.00  0.00    +0.058 A 
ATOM     13  O   UNL     1      13.752   2.710  -0.391  0.00  0.00    -0.453 OA
ATOM     14  C   UNL     1      15.023   2.454   0.234  0.00  0.00    +0.466 C 
ATOM     15  O   UNL     1      14.891   1.114   0.743  0.00  0.00    -0.453 OA
ENDBRANCH   3   7
BRANCH   1  16
ATOM     16  C   UNL     1       6.494  -0.858   2.821  0.00  0.00    -0.039 C 
BRANCH  16  17
ATOM     17  N   UNL     1       6.086  -2.005   1.983  0.00  0.00    +0.382 N 
ATOM     18  H   UNL     1       5.636  -2.710   2.579  0.00  0.00    -0.081 HD
BRANCH  17  20
ATOM     19  C   UNL     1       3.765  -1.329   1.617  0.00  0.00    -0.017 C 
ATOM     20  C   UNL     1       5.123  -1.562   0.953  0.00  0.00    -0.082 C 
ENDBRANCH  17  20
BRANCH  17  21
ATOM     21  C   UNL     1       7.273  -2.608   1.339  0.00  0.00    -0.082 C 
ATOM     22  C   UNL     1       8.071  -3.371   2.398  0.00  0.00    -0.017 C 
ENDBRANCH  17  21
ENDBRANCH  16  17
ENDBRANCH   1  16
BRANCH   6  23
ATOM     23  O   UNL     1       5.182   1.174   1.367  0.00  0.00    -0.483 OA
BRANCH  23  24
ATOM     24  C   UNL     1       4.519   2.134   0.542  0.00  0.00    +0.324 C 
BRANCH  24  25
ATOM     25  C   UNL     1       3.042   2.122   0.845  0.00  0.00    +0.251 C 
ATOM     26  O   UNL     1       2.593   1.327   1.643  0.00  0.00    -0.272 OA
ATOM     27  N   UNL     1       2.221   2.995   0.228  0.00  0.00    -0.305 N 
ATOM     28  H   UNL     1       2.581   3.631  -0.410  0.00  0.00    +0.149 HD
BRANCH  27  29
ATOM     29  C   UNL     1       0.786   2.984   0.523  0.00  0.00    +0.107 C 
ATOM     30  C   UNL     1       0.514   3.832   1.767  0.00  0.00    +0.033 C 
BRANCH  29  31
ATOM     31  C   UNL     1       0.029   3.554  -0.649  0.00  0.00    +0.010 A 
ATOM     32  C   UNL     1      -1.145   3.143  -1.188  0.00  0.00    +0.013 A 
ATOM     33  C   UNL     1      -1.660   3.825  -2.274  0.00  0.00    +0.008 A 
ATOM     34  C   UNL     1      -0.975   4.885  -2.769  0.00  0.00    +0.045 A 
ATOM     35  S   UNL     1       0.441   4.949  -1.683  0.00  0.00    -0.100 S 
ENDBRANCH  29  31
ENDBRANCH  27  29
ENDBRANCH  24  25
ENDBRANCH  23  24
ENDBRANCH   6  23
TORSDOF 10
