REMARK  Name = ZINC30828695
REMARK  7 active torsions:
REMARK  status: ('A' for Active; 'I' for Inactive)
REMARK    1  A    between atoms: C_4  and  C_7
REMARK    2  A    between atoms: C_8  and  C_9
REMARK    3  A    between atoms: N_14  and  C_17
REMARK    4  A    between atoms: C_20  and  N_23
REMARK    5  A    between atoms: N_23  and  C_24
REMARK    6  A    between atoms: C_24  and  N_26
REMARK    7  A    between atoms: C_27  and  C_29
REMARK                            x       y       z     vdW  Elec       q    Type
REMARK                         _______ _______ _______ _____ _____    ______ ____
ROOT
ATOM      1  C   UNL     1      -9.918   4.646   0.323  0.00  0.00    +0.030 A 
ATOM      2  C   UNL     1      -9.774   3.265   0.335  0.00  0.00    +0.025 A 
ATOM      3  C   UNL     1      -8.516   2.701   0.265  0.00  0.00    +0.025 A 
ATOM      4  C   UNL     1      -7.394   3.515   0.184  0.00  0.00    +0.033 A 
ATOM      5  C   UNL     1      -7.537   4.896   0.179  0.00  0.00    +0.025 A 
ATOM      6  C   UNL     1      -8.795   5.460   0.242  0.00  0.00    +0.025 A 
ENDROOT
BRANCH   1  12
ATOM      7  C   UNL     1     -14.257   7.463  -1.080  0.00  0.00    +0.240 C 
ATOM      8  O   UNL     1     -14.278   8.665  -0.896  0.00  0.00    -0.271 OA
ATOM      9  N   UNL     1     -13.449   6.681  -0.336  0.00  0.00    -0.295 N 
ATOM     10  C   UNL     1     -12.506   7.271   0.627  0.00  0.00    +0.127 C 
ATOM     11  C   UNL     1     -11.115   6.684   0.367  0.00  0.00    +0.124 C 
ATOM     12  N   UNL     1     -11.193   5.218   0.393  0.00  0.00    -0.327 N 
ATOM     13  C   UNL     1     -12.056   4.711  -0.682  0.00  0.00    +0.124 C 
ATOM     14  C   UNL     1     -13.486   5.217  -0.465  0.00  0.00    +0.127 C 
BRANCH   7  16
ATOM     15  C   UNL     1     -15.833   7.653  -2.928  0.00  0.00    +0.013 C 
ATOM     16  C   UNL     1     -15.110   6.864  -2.109  0.00  0.00    +0.068 C 
BRANCH  15  20
ATOM     17  C   UNL     1     -18.302   5.918  -5.910  0.00  0.00    +0.000 A 
ATOM     18  C   UNL     1     -18.242   7.295  -5.781  0.00  0.00    +0.001 A 
ATOM     19  C   UNL     1     -17.442   7.866  -4.814  0.00  0.00    +0.008 A 
ATOM     20  C   UNL     1     -16.690   7.051  -3.962  0.00  0.00    -0.025 A 
ATOM     21  C   UNL     1     -16.752   5.661  -4.102  0.00  0.00    +0.008 A 
ATOM     22  C   UNL     1     -17.560   5.104  -5.071  0.00  0.00    +0.001 A 
ENDBRANCH  15  20
ENDBRANCH   7  16
ENDBRANCH   1  12
BRANCH   4  23
ATOM     23  N   UNL     1      -6.117   2.943   0.114  0.00  0.00    -0.297 N 
ATOM     24  H   UNL     1      -5.279   3.398   0.663  0.00  0.00    +0.154 HD
BRANCH  23  25
ATOM     25  C   UNL     1      -5.915   1.835  -0.626  0.00  0.00    +0.141 C 
ATOM     26  S   UNL     1      -7.178   1.214  -1.600  0.00  0.00    -0.018 S 
BRANCH  25  27
ATOM     27  N   UNL     1      -4.718   1.216  -0.600  0.00  0.00    -0.264 N 
ATOM     28  C   UNL     1      -4.516   0.107  -1.340  0.00  0.00    +0.250 C 
ATOM     29  O   UNL     1      -5.413  -0.334  -2.032  0.00  0.00    -0.270 OA
ATOM     30  H   UNL     1      -3.906   1.615   0.026  0.00  0.00    +0.157 HD
BRANCH  28  31
ATOM     31  C   UNL     1      -3.207  -0.570  -1.311  0.00  0.00    +0.045 A 
ATOM     32  C   UNL     1      -2.129  -0.002  -0.643  0.00  0.00    +0.014 A 
ATOM     33  C   UNL     1      -0.896  -0.639  -0.623  0.00  0.00    +0.001 A 
ATOM     34  C   UNL     1      -0.696  -1.837  -1.238  0.00  0.00    +0.008 A 
ATOM     35  C   UNL     1      -1.743  -2.472  -1.927  0.00  0.00    -0.017 A 
ATOM     36  C   UNL     1      -3.017  -1.855  -1.979  0.00  0.00    -0.006 A 
ATOM     37  C   UNL     1      -4.063  -2.486  -2.664  0.00  0.00    +0.009 A 
ATOM     38  C   UNL     1      -3.843  -3.685  -3.273  0.00  0.00    +0.001 A 
ATOM     39  C   UNL     1      -2.591  -4.294  -3.224  0.00  0.00    +0.001 A 
ATOM     40  C   UNL     1      -1.553  -3.709  -2.566  0.00  0.00    +0.008 A 
ENDBRANCH  28  31
ENDBRANCH  25  27
ENDBRANCH  23  25
ENDBRANCH   4  23
TORSDOF 7
