REMARK  Name = ZINC01125039
REMARK  4 active torsions:
REMARK  status: ('A' for Active; 'I' for Inactive)
REMARK    1  A    between atoms: C_3  and  N_10
REMARK    2  A    between atoms: C_5  and  N_7
REMARK    3  A    between atoms: C_14  and  C_15
REMARK    4  A    between atoms: N_20  and  C_23
REMARK                            x       y       z     vdW  Elec       q    Type
REMARK                         _______ _______ _______ _____ _____    ______ ____
ROOT
ATOM      1  C   UNL     1      -2.566   1.225   0.142  0.00  0.00    +0.044 C 
ATOM      2  C   UNL     1      -3.582   2.168   0.215  0.00  0.00    +0.104 C 
ATOM      3  C   UNL     1      -5.010   1.926   0.483  0.00  0.00    +0.266 C 
ATOM      4  O   UNL     1      -5.537   0.848   0.686  0.00  0.00    -0.268 OA
ATOM      5  N   UNL     1      -5.620   3.126   0.463  0.00  0.00    -0.223 N 
ATOM      6  N   UNL     1      -4.699   4.138   0.192  0.00  0.00    -0.184 N 
ATOM      7  C   UNL     1      -3.465   3.624   0.035  0.00  0.00    +0.272 C 
ATOM      8  O   UNL     1      -2.447   4.245  -0.209  0.00  0.00    -0.268 OA
ATOM      9  H   UNL     1      -6.568   3.266   0.612  0.00  0.00    +0.174 HD
ENDROOT
BRANCH   6  10
ATOM     10  C   UNL     1      -5.015   5.499   0.097  0.00  0.00    +0.057 A 
ATOM     11  C   UNL     1      -4.001   6.442  -0.007  0.00  0.00    +0.028 A 
ATOM     12  C   UNL     1      -4.315   7.783  -0.106  0.00  0.00    +0.040 A 
ATOM     13  C   UNL     1      -5.639   8.189  -0.091  0.00  0.00    +0.124 A 
ATOM     14  C   UNL     1      -6.651   7.250   0.019  0.00  0.00    +0.040 A 
ATOM     15  C   UNL     1      -6.342   5.907   0.113  0.00  0.00    +0.028 A 
ATOM     16  F   UNL     1      -5.944   9.502  -0.183  0.00  0.00    -0.205 F 
ENDBRANCH   6  10
BRANCH   1  21
ATOM     17  N   UNL     1      -0.956   2.242  -1.458  0.00  0.00    -0.316 N 
ATOM     18  C   UNL     1       0.386   2.438  -1.491  0.00  0.00    +0.092 A 
ATOM     19  C   UNL     1       0.932   1.948  -0.348  0.00  0.00    +0.020 A 
ATOM     20  C   UNL     1      -0.097   1.425   0.434  0.00  0.00    +0.027 A 
ATOM     21  C   UNL     1      -1.279   1.609  -0.273  0.00  0.00    +0.047 A 
BRANCH  17  24
ATOM     22  C   UNL     1      -3.604   2.038  -4.003  0.00  0.00    +0.004 A 
ATOM     23  C   UNL     1      -2.709   1.667  -3.018  0.00  0.00    +0.026 A 
ATOM     24  C   UNL     1      -1.861   2.614  -2.460  0.00  0.00    +0.049 A 
ATOM     25  C   UNL     1      -1.909   3.930  -2.901  0.00  0.00    +0.058 A 
ATOM     26  C   UNL     1      -2.802   4.294  -3.889  0.00  0.00    +0.128 A 
ATOM     27  C   UNL     1      -3.649   3.349  -4.440  0.00  0.00    +0.033 A 
BRANCH  26  28
ATOM     28  N   UNL     1      -2.854   5.697  -4.359  0.00  0.00    +0.056 N 
ATOM     29  O   UNL     1      -2.108   6.529  -3.875  0.00  0.00    -0.126 OA
ATOM     30  O   UNL     1      -3.641   6.018  -5.231  0.00  0.00    -0.126 OA
ENDBRANCH  26  28
ENDBRANCH  17  24
ENDBRANCH   1  21
TORSDOF 4
