REMARK  Name = ZINC03255146
REMARK  10 active torsions:
REMARK  status: ('A' for Active; 'I' for Inactive)
REMARK    1  A    between atoms: C_1  and  C_2
REMARK    2  A    between atoms: C_2  and  O_3
REMARK    3  A    between atoms: O_3  and  C_4
REMARK    4  A    between atoms: C_4  and  C_6
REMARK    5  A    between atoms: C_7  and  C_23
REMARK    6  A    between atoms: C_8  and  C_22
REMARK    7  A    between atoms: C_10  and  N_11
REMARK    8  A    between atoms: C_14  and  C_21
REMARK    9  A    between atoms: C_15  and  C_17
REMARK   10  A    between atoms: N_19  and  C_20
REMARK                            x       y       z     vdW  Elec       q    Type
REMARK                         _______ _______ _______ _____ _____    ______ ____
ROOT
ATOM      1  N   UNL     1       3.750  -2.432   1.405  0.00  0.00    -0.288 N 
ATOM      2  C   UNL     1       5.083  -2.752   1.565  0.00  0.00    +0.164 A 
ATOM      3  N   UNL     1       6.065  -2.624   0.691  0.00  0.00    -0.229 NA
ATOM      4  C   UNL     1       7.292  -2.972   0.985  0.00  0.00    +0.060 A 
ATOM      5  C   UNL     1       7.500  -3.481   2.260  0.00  0.00    +0.098 A 
ATOM      6  S   UNL     1       5.844  -3.391   2.923  0.00  0.00    -0.047 S 
ATOM      7  C   UNL     1       8.417  -2.830  -0.007  0.00  0.00    +0.067 C 
ATOM      8  H   UNL     1       3.436  -2.066   0.563  0.00  0.00    +0.155 HD
ENDROOT
BRANCH   1  13
ATOM      9  C   UNL     1       1.496  -2.371   2.466  0.00  0.00    +0.091 A 
ATOM     10  C   UNL     1       0.797  -2.683   3.693  0.00  0.00    -0.025 A 
ATOM     11  C   UNL     1       1.552  -3.189   4.685  0.00  0.00    -0.008 A 
ATOM     12  S   UNL     1       3.182  -3.245   3.974  0.00  0.00    -0.078 S 
ATOM     13  C   UNL     1       2.860  -2.632   2.446  0.00  0.00    +0.086 A 
ATOM     14  C   UNL     1       1.120  -3.609   6.066  0.00  0.00    +0.052 C 
ATOM     15  C   UNL     1      -0.684  -2.455   3.851  0.00  0.00    +0.045 C 
BRANCH   9  16
ATOM     16  C   UNL     1       0.801  -1.814   1.305  0.00  0.00    +0.342 C 
ATOM     17  O   UNL     1       0.321  -2.557   0.470  0.00  0.00    -0.245 OA
BRANCH  16  18
ATOM     18  O   UNL     1       0.693  -0.477   1.160  0.00  0.00    -0.461 OA
BRANCH  18  20
ATOM     19  C   UNL     1      -0.019   1.526   0.010  0.00  0.00    +0.048 C 
ATOM     20  C   UNL     1       0.002  -0.004   0.002  0.00  0.00    +0.229 C 
ENDBRANCH  18  20
ENDBRANCH  16  18
ENDBRANCH   9  16
ENDBRANCH   1  13
BRANCH   5  21
ATOM     21  C   UNL     1       8.733  -3.953   2.887  0.00  0.00    +0.252 C 
ATOM     22  O   UNL     1       9.780  -3.931   2.265  0.00  0.00    -0.270 OA
ATOM     23  N   UNL     1       8.712  -4.413   4.154  0.00  0.00    -0.314 N 
ATOM     24  C   UNL     1       9.947  -4.887   4.782  0.00  0.00    +0.128 C 
ATOM     25  H   UNL     1       7.878  -4.431   4.649  0.00  0.00    +0.149 HD
ENDBRANCH   5  21
TORSDOF 5
