REMARK  Name = ZINC46903167
REMARK  9 active torsions:
REMARK  status: ('A' for Active; 'I' for Inactive)
REMARK    1  A    between atoms: C_1  and  C_2
REMARK    2  A    between atoms: C_3  and  C_12
REMARK    3  A    between atoms: C_4  and  C_11
REMARK    4  A    between atoms: N_5  and  C_7
REMARK    5  A    between atoms: C_7  and  C_8
REMARK    6  A    between atoms: C_7  and  C_9
REMARK    7  A    between atoms: C_7  and  C_10
REMARK    8  A    between atoms: N_14  and  N_15
REMARK    9  A    between atoms: C_16  and  C_18
REMARK                            x       y       z     vdW  Elec       q    Type
REMARK                         _______ _______ _______ _____ _____    ______ ____
ROOT
ATOM      1  C   UNL     1       0.230  -0.232  -2.494  0.00  0.00    +0.264 C 
ATOM      2  O   UNL     1       1.316   0.142  -2.891  0.00  0.00    -0.269 OA
ATOM      3  N   UNL     1      -0.840  -0.182  -3.313  0.00  0.00    -0.230 N 
ATOM      4  H   UNL     1      -1.707  -0.481  -2.996  0.00  0.00    +0.173 HD
ENDROOT
BRANCH   1   7
ATOM      5  C   UNL     1      -0.476   1.511   0.063  0.00  0.00    +0.068 C 
ATOM      6  C   UNL     1      -0.232   0.024   0.028  0.00  0.00    +0.072 A 
ATOM      7  C   UNL     1       0.082  -0.740  -1.118  0.00  0.00    +0.081 A 
ATOM      8  C   UNL     1       0.224  -2.050  -0.709  0.00  0.00    +0.049 A 
ATOM      9  N   UNL     1       0.009  -2.083   0.616  0.00  0.00    -0.262 N 
ATOM     10  N   UNL     1      -0.268  -0.782   1.053  0.00  0.00    -0.175 NA
ATOM     11  C   UNL     1       0.560  -3.228  -1.587  0.00  0.00    +0.066 C 
BRANCH   9  12
ATOM     12  C   UNL     1       0.059  -3.277   1.462  0.00  0.00    +0.056 C 
ATOM     13  C   UNL     1       1.398  -3.990   1.260  0.00  0.00    +0.036 C 
ATOM     14  C   UNL     1      -0.084  -2.869   2.930  0.00  0.00    +0.036 C 
ATOM     15  C   UNL     1      -1.083  -4.221   1.081  0.00  0.00    +0.036 C 
ENDBRANCH   9  12
ENDBRANCH   1   7
BRANCH   3  16
ATOM     16  N   UNL     1      -0.700   0.300  -4.621  0.00  0.00    -0.229 N 
ATOM     17  C   UNL     1      -1.770   0.350  -5.439  0.00  0.00    +0.278 C 
ATOM     18  O   UNL     1      -2.856  -0.024  -5.043  0.00  0.00    -0.267 OA
ATOM     19  H   UNL     1       0.167   0.599  -4.937  0.00  0.00    +0.173 HD
BRANCH  17  20
ATOM     20  C   UNL     1      -1.621   0.860  -6.823  0.00  0.00    +0.127 A 
ATOM     21  C   UNL     1      -2.747   0.910  -7.659  0.00  0.00    +0.034 A 
ATOM     22  C   UNL     1      -2.623   1.378  -8.936  0.00  0.00    +0.012 A 
ATOM     23  C   UNL     1      -1.353   1.800  -9.371  0.00  0.00    +0.000 A 
ATOM     24  C   UNL     1      -1.154   2.292 -10.671  0.00  0.00    +0.010 A 
ATOM     25  C   UNL     1       0.089   2.691 -11.057  0.00  0.00    +0.001 A 
ATOM     26  C   UNL     1       1.170   2.617 -10.179  0.00  0.00    +0.002 A 
ATOM     27  C   UNL     1       1.015   2.145  -8.913  0.00  0.00    +0.028 A 
ATOM     28  C   UNL     1      -0.255   1.723  -8.475  0.00  0.00    +0.072 A 
ATOM     29  N   UNL     1      -0.436   1.262  -7.238  0.00  0.00    -0.242 NA
ENDBRANCH  17  20
ENDBRANCH   3  16
TORSDOF 4
