REMARK  Name = ZINC63571890
REMARK  6 active torsions:
REMARK  status: ('A' for Active; 'I' for Inactive)
REMARK    1  A    between atoms: C_1  and  C_2
REMARK    2  A    between atoms: C_2  and  C_3
REMARK    3  A    between atoms: C_6  and  N_9
REMARK    4  A    between atoms: C_25  and  C_27
REMARK    5  A    between atoms: C_30  and  O_33
REMARK    6  A    between atoms: O_33  and  C_34
REMARK                            x       y       z     vdW  Elec       q    Type
REMARK                         _______ _______ _______ _____ _____    ______ ____
ROOT
ATOM      1  N   UNL     1       2.914  -2.016  -4.010  0.00  0.00    -0.269 N 
ATOM      2  C   UNL     1       4.231  -2.020  -4.297  0.00  0.00    +0.307 C 
ATOM      3  O   UNL     1       5.039  -1.703  -3.446  0.00  0.00    -0.252 OA
ATOM      4  N   UNL     1       4.652  -2.375  -5.527  0.00  0.00    -0.276 N 
ATOM      5  C   UNL     1       3.669  -2.607  -6.591  0.00  0.00    +0.114 C 
ATOM      6  C   UNL     1       3.967  -1.670  -7.777  0.00  0.00    +0.052 C 
ATOM      7  C   UNL     1       5.454  -1.738  -8.019  0.00  0.00    -0.035 C 
ATOM      8  C   UNL     1       6.154  -1.976  -9.121  0.00  0.00    -0.001 A 
ATOM      9  C   UNL     1       5.744  -2.150 -10.524  0.00  0.00    +0.010 A 
ATOM     10  C   UNL     1       6.740  -2.405 -11.412  0.00  0.00    +0.001 A 
ATOM     11  C   UNL     1       8.088  -2.502 -11.050  0.00  0.00    +0.002 A 
ATOM     12  C   UNL     1       8.555  -2.348  -9.786  0.00  0.00    +0.026 A 
ATOM     13  C   UNL     1       7.603  -2.068  -8.764  0.00  0.00    +0.043 A 
ATOM     14  N   UNL     1       7.772  -1.854  -7.492  0.00  0.00    -0.375 N 
ATOM     15  C   UNL     1       6.471  -1.541  -6.900  0.00  0.00    +0.131 C 
ATOM     16  C   UNL     1       6.092  -2.520  -5.790  0.00  0.00    +0.134 C 
ATOM     17  H   UNL     1       2.275  -2.352  -4.659  0.00  0.00    +0.156 HD
ATOM     18  H   UNL     1       8.617  -1.895  -7.017  0.00  0.00    +0.160 HD
ENDROOT
BRANCH   1  22
ATOM     19  C   UNL     1       1.586  -0.565  -0.337  0.00  0.00    -0.048 A 
ATOM     20  C   UNL     1       0.800  -0.412  -1.465  0.00  0.00    +0.005 A 
ATOM     21  C   UNL     1       1.237  -0.892  -2.684  0.00  0.00    +0.023 A 
ATOM     22  C   UNL     1       2.468  -1.529  -2.776  0.00  0.00    +0.035 A 
ATOM     23  C   UNL     1       3.255  -1.681  -1.643  0.00  0.00    +0.023 A 
ATOM     24  C   UNL     1       2.814  -1.194  -0.427  0.00  0.00    +0.005 A 
BRANCH  19  26
ATOM     25  C   UNL     1       1.572   1.406   1.167  0.00  0.00    +0.009 C 
ATOM     26  C   UNL     1       1.105  -0.041   0.991  0.00  0.00    +0.032 C 
ENDBRANCH  19  26
ENDBRANCH   1  22
BRANCH  16  27
ATOM     27  C   UNL     1       6.391  -3.929  -6.234  0.00  0.00    -0.024 A 
ATOM     28  C   UNL     1       5.924  -4.382  -7.454  0.00  0.00    +0.009 A 
ATOM     29  C   UNL     1       6.196  -5.674  -7.862  0.00  0.00    +0.046 A 
ATOM     30  C   UNL     1       6.939  -6.516  -7.047  0.00  0.00    +0.120 A 
ATOM     31  C   UNL     1       7.407  -6.058  -5.824  0.00  0.00    +0.046 A 
ATOM     32  C   UNL     1       7.136  -4.764  -5.422  0.00  0.00    +0.009 A 
BRANCH  30  33
ATOM     33  O   UNL     1       7.207  -7.786  -7.447  0.00  0.00    -0.495 OA
ATOM     34  C   UNL     1       7.978  -8.597  -6.557  0.00  0.00    +0.277 C 
ENDBRANCH  30  33
ENDBRANCH  16  27
TORSDOF 4
