REMARK  Name = ZINC39520990
REMARK  5 active torsions:
REMARK  status: ('A' for Active; 'I' for Inactive)
REMARK    1  A    between atoms: C_1  and  C_2
REMARK    2  A    between atoms: C_2  and  O_3
REMARK    3  A    between atoms: O_3  and  C_4
REMARK    4  A    between atoms: N_10  and  C_11
REMARK    5  A    between atoms: C_11  and  C_12
REMARK                            x       y       z     vdW  Elec       q    Type
REMARK                         _______ _______ _______ _____ _____    ______ ____
ROOT
ATOM      1  C   UNL     1       0.667  -2.025  -1.158  0.00  0.00    +0.067 C 
ATOM      2  C   UNL     1       1.147  -2.587  -2.490  0.00  0.00    +0.012 C 
ATOM      3  C   UNL     1       2.645  -2.326  -2.665  0.00  0.00    -0.001 C 
ATOM      4  C   UNL     1       3.379  -2.940  -1.473  0.00  0.00    -0.012 C 
ATOM      5  C   UNL     1       2.931  -2.187  -0.186  0.00  0.00    -0.060 C 
ATOM      6  N   UNL     1       1.502  -2.426  -0.032  0.00  0.00    +0.403 N 
ATOM      7  C   UNL     1       3.304  -0.734  -0.401  0.00  0.00    -0.012 C 
ATOM      8  C   UNL     1       3.518   0.070   0.870  0.00  0.00    +0.000 C 
ATOM      9  C   UNL     1       4.543  -0.637   1.758  0.00  0.00    +0.019 C 
ATOM     10  C   UNL     1       3.965  -1.993   2.165  0.00  0.00    +0.079 C 
ATOM     11  C   UNL     1       3.715  -2.854   0.941  0.00  0.00    +0.007 C 
ATOM     12 CL   UNL     1       5.146  -2.827   3.252  0.00  0.00    -0.122 Cl
ATOM     13  H   UNL     1       1.383  -3.446   0.074  0.00  0.00    -0.077 HD
ENDROOT
BRANCH   1  14
ATOM     14  O   UNL     1       0.524  -0.609  -1.229  0.00  0.00    -0.395 OA
BRANCH  14  16
ATOM     15  C   UNL     1      -0.823   1.346  -1.681  0.00  0.00    +0.034 C 
ATOM     16  C   UNL     1      -0.723  -0.177  -1.778  0.00  0.00    +0.154 C 
ENDBRANCH  14  16
ENDBRANCH   1  14
BRANCH   6  17
ATOM     17  C   UNL     1       0.956  -1.824   1.192  0.00  0.00    -0.039 C 
BRANCH  17  18
ATOM     18  C   UNL     1      -0.404  -2.408   1.474  0.00  0.00    -0.064 A 
ATOM     19  C   UNL     1      -1.542  -1.742   1.057  0.00  0.00    +0.002 A 
ATOM     20  C   UNL     1      -2.790  -2.278   1.316  0.00  0.00    +0.000 A 
ATOM     21  C   UNL     1      -2.900  -3.479   1.992  0.00  0.00    +0.000 A 
ATOM     22  C   UNL     1      -1.762  -4.144   2.408  0.00  0.00    +0.000 A 
ATOM     23  C   UNL     1      -0.514  -3.611   2.145  0.00  0.00    +0.002 A 
ENDBRANCH  17  18
ENDBRANCH   6  17
TORSDOF 4
