REMARK  Name = ZINC35035232
REMARK  6 active torsions:
REMARK  status: ('A' for Active; 'I' for Inactive)
REMARK    1  A    between atoms: C_1  and  C_2
REMARK    2  A    between atoms: C_2  and  C_3
REMARK    3  A    between atoms: C_3  and  C_5
REMARK    4  A    between atoms: C_3  and  N_16
REMARK    5  A    between atoms: C_22  and  C_24
REMARK    6  A    between atoms: C_28  and  N_30
REMARK                            x       y       z     vdW  Elec       q    Type
REMARK                         _______ _______ _______ _____ _____    ______ ____
ROOT
ATOM      1  N   UNL     1      -2.330  -0.973   1.050  0.00  0.00    -0.290 NA
ATOM      2  C   UNL     1      -1.631  -1.555   2.203  0.00  0.00    +0.104 C 
ATOM      3  C   UNL     1      -1.967  -0.748   3.462  0.00  0.00    +0.123 C 
ATOM      4  N   UNL     1      -3.430  -0.676   3.593  0.00  0.00    -0.295 N 
ATOM      5  C   UNL     1      -4.212  -0.231   2.430  0.00  0.00    +0.123 C 
ATOM      6  C   UNL     1      -3.788  -1.059   1.212  0.00  0.00    +0.104 C 
ATOM      7  C   UNL     1      -4.038  -1.008   4.750  0.00  0.00    +0.247 C 
ATOM      8  O   UNL     1      -5.241  -0.877   4.863  0.00  0.00    -0.270 OA
ENDROOT
BRANCH   7   9
ATOM      9  C   UNL     1      -3.241  -1.533   5.879  0.00  0.00    +0.039 A 
ATOM     10  C   UNL     1      -2.085  -0.867   6.291  0.00  0.00    +0.013 A 
ATOM     11  C   UNL     1      -1.347  -1.361   7.346  0.00  0.00    +0.003 A 
ATOM     12  C   UNL     1      -1.749  -2.515   7.995  0.00  0.00    +0.033 A 
ATOM     13  C   UNL     1      -2.893  -3.180   7.592  0.00  0.00    +0.127 A 
ATOM     14  C   UNL     1      -3.644  -2.693   6.542  0.00  0.00    +0.045 A 
BRANCH  13  15
ATOM     15  N   UNL     1      -3.316  -4.414   8.292  0.00  0.00    +0.056 N 
ATOM     16  O   UNL     1      -2.662  -4.839   9.216  0.00  0.00    -0.126 OA
ATOM     17  O   UNL     1      -4.316  -4.996   7.941  0.00  0.00    -0.126 OA
ENDBRANCH  13  15
ENDBRANCH   7   9
BRANCH   1  18
ATOM     18  C   UNL     1      -1.902  -1.610  -0.202  0.00  0.00    +0.123 C 
BRANCH  18  19
ATOM     19  C   UNL     1      -2.191  -3.087  -0.139  0.00  0.00    +0.129 A 
ATOM     20  N   UNL     1      -2.837  -3.547   0.896  0.00  0.00    -0.194 NA
ATOM     21  C   UNL     1      -3.133  -4.854   1.024  0.00  0.00    +0.281 A 
ATOM     22  O   UNL     1      -3.738  -5.269   1.998  0.00  0.00    -0.265 OA
ATOM     23  C   UNL     1      -2.705  -5.770  -0.049  0.00  0.00    +0.065 A 
ATOM     24  C   UNL     1      -2.967  -7.137  -0.003  0.00  0.00    +0.015 A 
ATOM     25  C   UNL     1      -2.542  -7.944  -1.036  0.00  0.00    +0.001 A 
ATOM     26  C   UNL     1      -1.857  -7.403  -2.115  0.00  0.00    +0.002 A 
ATOM     27  C   UNL     1      -1.591  -6.051  -2.174  0.00  0.00    +0.026 A 
ATOM     28  C   UNL     1      -2.011  -5.222  -1.143  0.00  0.00    +0.053 A 
ATOM     29  N   UNL     1      -1.775  -3.862  -1.156  0.00  0.00    -0.342 N 
ATOM     30  H   UNL     1      -1.302  -3.463  -1.903  0.00  0.00    +0.167 HD
ENDBRANCH  18  19
BRANCH  18  32
ATOM     31  C   UNL     1      -0.120   0.100  -0.585  0.00  0.00    +0.006 C 
ATOM     32  C   UNL     1      -0.400  -1.393  -0.397  0.00  0.00    +0.023 C 
ENDBRANCH  18  32
ENDBRANCH   1  18
TORSDOF 5
