REMARK  Name = ZINC20000443
REMARK  5 active torsions:
REMARK  status: ('A' for Active; 'I' for Inactive)
REMARK    1  A    between atoms: C_1  and  N_2
REMARK    2  A    between atoms: C_7  and  C_26
REMARK    3  A    between atoms: C_9  and  N_25
REMARK    4  A    between atoms: C_10  and  C_14
REMARK    5  A    between atoms: C_14  and  C_16
REMARK                            x       y       z     vdW  Elec       q    Type
REMARK                         _______ _______ _______ _____ _____    ______ ____
ROOT
ATOM      1  C   UNL     1       1.684  -3.905  -1.927  0.00  0.00    +0.105 C 
ATOM      2  N   UNL     1       1.716  -2.445  -1.775  0.00  0.00    -0.301 NA
ATOM      3  C   UNL     1       3.054  -1.986  -1.367  0.00  0.00    +0.090 C 
ATOM      4  C   UNL     1       3.134  -0.474  -1.579  0.00  0.00    +0.071 C 
ATOM      5  C   UNL     1       1.947   0.200  -0.936  0.00  0.00    +0.049 A 
ATOM      6  C   UNL     1       0.817  -0.508  -0.587  0.00  0.00    -0.003 A 
ATOM      7  C   UNL     1      -0.267   0.153  -0.005  0.00  0.00    +0.006 A 
ATOM      8  C   UNL     1      -0.181   1.561   0.225  0.00  0.00    +0.038 A 
ATOM      9  C   UNL     1      -1.165   2.447   0.816  0.00  0.00    +0.053 A 
ATOM     10  C   UNL     1      -0.852   3.789   0.933  0.00  0.00    +0.083 A 
ATOM     11  S   UNL     1       0.793   3.886   0.256  0.00  0.00    -0.064 S 
ATOM     12  C   UNL     1       1.027   2.178  -0.169  0.00  0.00    +0.112 A 
ATOM     13  N   UNL     1       2.014   1.505  -0.716  0.00  0.00    -0.244 NA
ATOM     14  C   UNL     1       0.709  -1.994  -0.809  0.00  0.00    +0.121 C 
ENDROOT
BRANCH   7  15
ATOM     15  C   UNL     1      -1.483  -0.591   0.367  0.00  0.00    +0.020 A 
ATOM     16  C   UNL     1      -1.682  -1.455   1.414  0.00  0.00    +0.016 A 
ATOM     17  C   UNL     1      -2.919  -2.036   1.565  0.00  0.00    +0.008 A 
ATOM     18  C   UNL     1      -3.901  -1.746   0.671  0.00  0.00    +0.046 A 
ATOM     19  S   UNL     1      -3.080  -0.608  -0.432  0.00  0.00    -0.097 S 
ENDBRANCH   7  15
BRANCH   9  20
ATOM     20  N   UNL     1      -2.391   1.962   1.248  0.00  0.00    -0.356 N 
ATOM     21  H   UNL     1      -3.127   2.647   1.693  0.00  0.00    +0.142 HD
ATOM     22  H   UNL     1      -2.627   0.892   1.144  0.00  0.00    +0.142 HD
ENDBRANCH   9  20
BRANCH  10  23
ATOM     23  C   UNL     1      -1.644   4.832   1.467  0.00  0.00    +0.202 C 
ATOM     24  O   UNL     1      -2.801   4.616   1.785  0.00  0.00    -0.286 OA
BRANCH  23  25
ATOM     25  C   UNL     1      -1.070   6.182   1.638  0.00  0.00    +0.027 A 
ATOM     26  C   UNL     1      -1.892   7.308   1.554  0.00  0.00    +0.015 A 
ATOM     27  C   UNL     1      -1.355   8.567   1.713  0.00  0.00    +0.050 A 
ATOM     28  C   UNL     1       0.003   8.721   1.958  0.00  0.00    +0.166 A 
ATOM     29  C   UNL     1       0.829   7.600   2.044  0.00  0.00    +0.167 A 
ATOM     30  C   UNL     1       0.295   6.336   1.891  0.00  0.00    +0.061 A 
ATOM     31  O   UNL     1       2.106   8.018   2.289  0.00  0.00    -0.453 OA
ATOM     32  C   UNL     1       1.983   9.374   2.757  0.00  0.00    +0.466 C 
ATOM     33  O   UNL     1       0.763   9.838   2.148  0.00  0.00    -0.453 OA
ENDBRANCH  23  25
ENDBRANCH  10  23
TORSDOF 4
