REMARK  Name = ZINC40112741
REMARK  5 active torsions:
REMARK  status: ('A' for Active; 'I' for Inactive)
REMARK    1  A    between atoms: C_3  and  C_6
REMARK    2  A    between atoms: N_7  and  N_8
REMARK    3  A    between atoms: N_8  and  C_9
REMARK    4  A    between atoms: C_10  and  C_21
REMARK    5  A    between atoms: C_12  and  C_14
REMARK                            x       y       z     vdW  Elec       q    Type
REMARK                         _______ _______ _______ _____ _____    ______ ____
ROOT
ATOM      1  C   UNL     1       6.246  -1.767  -0.068  0.00  0.00    +0.244 A 
ATOM      2  C   UNL     1       7.620  -1.962  -0.077  0.00  0.00    +0.203 A 
ATOM      3  N   UNL     1       7.829  -3.304  -0.087  0.00  0.00    -0.196 NA
ATOM      4  C   UNL     1       6.668  -3.908  -0.086  0.00  0.00    +0.231 A 
ATOM      5  O   UNL     1       5.683  -2.991  -0.068  0.00  0.00    -0.419 OA
ENDROOT
BRANCH   4   6
ATOM      6  C   UNL     1       6.469  -5.372  -0.095  0.00  0.00    +0.037 A 
ATOM      7  C   UNL     1       5.178  -5.904  -0.098  0.00  0.00    +0.016 A 
ATOM      8  C   UNL     1       4.999  -7.271  -0.107  0.00  0.00    +0.039 A 
ATOM      9  C   UNL     1       6.096  -8.117  -0.114  0.00  0.00    +0.123 A 
ATOM     10  C   UNL     1       7.380  -7.594  -0.111  0.00  0.00    +0.039 A 
ATOM     11  C   UNL     1       7.572  -6.229  -0.107  0.00  0.00    +0.016 A 
ATOM     12  F   UNL     1       5.915  -9.456  -0.122  0.00  0.00    -0.205 F 
ENDBRANCH   4   6
BRANCH   1  13
ATOM     13  N   UNL     1       5.587  -0.559  -0.055  0.00  0.00    -0.204 N 
ATOM     14  H   UNL     1       6.092   0.269  -0.056  0.00  0.00    +0.177 HD
BRANCH  13  16
ATOM     15  C   UNL     1       3.563   0.617  -0.029  0.00  0.00    +0.176 C 
ATOM     16  N   UNL     1       4.186  -0.525  -0.041  0.00  0.00    -0.184 NA
BRANCH  15  19
ATOM     17  C   UNL     1      -0.016   1.344   0.009  0.00  0.00    +0.042 A 
ATOM     18  C   UNL     1       1.323   1.776  -0.001  0.00  0.00    +0.051 A 
ATOM     19  C   UNL     1       2.098   0.653  -0.015  0.00  0.00    +0.147 A 
ATOM     20  O   UNL     1       1.280  -0.419  -0.012  0.00  0.00    -0.462 OA
ATOM     21  C   UNL     1       0.002  -0.004   0.002  0.00  0.00    +0.196 A 
ENDBRANCH  15  19
ENDBRANCH  13  16
ENDBRANCH   1  13
BRANCH   2  22
ATOM     22  C   UNL     1       8.625  -0.942  -0.075  0.00  0.00    +0.124 C 
ATOM     23  N   UNL     1       9.423  -0.134  -0.074  0.00  0.00    -0.189 NA
ENDBRANCH   2  22
TORSDOF 5
