REMARK  Name = ZINC02299896
REMARK  7 active torsions:
REMARK  status: ('A' for Active; 'I' for Inactive)
REMARK    1  A    between atoms: C_1  and  C_2
REMARK    2  A    between atoms: C_5  and  C_8
REMARK    3  A    between atoms: N_12  and  C_19
REMARK    4  A    between atoms: N_15  and  C_18
REMARK    5  A    between atoms: C_23  and  O_30
REMARK    6  A    between atoms: O_30  and  C_31
REMARK    7  A    between atoms: C_31  and  C_33
REMARK                            x       y       z     vdW  Elec       q    Type
REMARK                         _______ _______ _______ _____ _____    ______ ____
ROOT
ATOM      1  C   UNL     1       3.634  -3.586  -0.236  0.00  0.00    +0.093 C 
ATOM      2  C   UNL     1       2.677  -4.756  -0.299  0.00  0.00    +0.071 A 
ATOM      3  C   UNL     1       1.317  -4.513  -0.265  0.00  0.00    +0.147 A 
ATOM      4  N   UNL     1       0.458  -5.599  -0.323  0.00  0.00    -0.281 N 
ATOM      5  C   UNL     1       0.945  -6.849  -0.411  0.00  0.00    +0.333 A 
ATOM      6  O   UNL     1       0.171  -7.784  -0.462  0.00  0.00    -0.246 OA
ATOM      7  N   UNL     1       2.267  -7.091  -0.445  0.00  0.00    -0.264 N 
ATOM      8  C   UNL     1       3.153  -6.074  -0.392  0.00  0.00    +0.262 A 
ATOM      9  O   UNL     1       4.350  -6.296  -0.423  0.00  0.00    -0.267 OA
ATOM     10  C   UNL     1       2.751  -8.470  -0.542  0.00  0.00    +0.157 C 
ATOM     11  C   UNL     1      -0.991  -5.383  -0.289  0.00  0.00    +0.155 C 
ATOM     12  N   UNL     1       0.816  -3.277  -0.177  0.00  0.00    -0.229 NA
ATOM     13  C   UNL     1       1.521  -2.174  -0.115  0.00  0.00    +0.082 C 
ATOM     14  C   UNL     1       2.986  -2.219  -0.139  0.00  0.00    +0.034 C 
ATOM     15  C   UNL     1       3.471  -0.965  -0.063  0.00  0.00    +0.145 C 
ATOM     16  C   UNL     1       2.347  -0.005   0.016  0.00  0.00    +0.027 A 
ATOM     17  C   UNL     1       1.146  -0.739  -0.015  0.00  0.00    +0.011 A 
ATOM     18  C   UNL     1      -0.069  -0.080   0.045  0.00  0.00    +0.011 A 
ATOM     19  C   UNL     1      -0.101   1.306   0.136  0.00  0.00    +0.001 A 
ATOM     20  C   UNL     1       1.074   2.028   0.167  0.00  0.00    +0.001 A 
ATOM     21  C   UNL     1       2.300   1.379   0.107  0.00  0.00    +0.012 A 
ENDROOT
BRANCH   1  26
ATOM     22  C   UNL     1       6.927  -3.681  -4.984  0.00  0.00    +0.044 C 
ATOM     23  C   UNL     1       6.069  -3.656  -3.746  0.00  0.00    -0.050 A 
ATOM     24  C   UNL     1       6.658  -3.661  -2.495  0.00  0.00    +0.003 A 
ATOM     25  C   UNL     1       5.870  -3.638  -1.360  0.00  0.00    +0.005 A 
ATOM     26  C   UNL     1       4.493  -3.611  -1.474  0.00  0.00    -0.035 A 
ATOM     27  C   UNL     1       3.903  -3.611  -2.725  0.00  0.00    +0.005 A 
ATOM     28  C   UNL     1       4.691  -3.629  -3.861  0.00  0.00    +0.003 A 
ENDBRANCH   1  26
BRANCH  15  29
ATOM     29  O   UNL     1       4.784  -0.632  -0.060  0.00  0.00    -0.425 OA
BRANCH  29  30
ATOM     30  C   UNL     1       5.272  -0.084   1.065  0.00  0.00    +0.309 C 
ATOM     31  O   UNL     1       4.573   0.003   2.047  0.00  0.00    -0.251 OA
ATOM     32  C   UNL     1       6.691   0.422   1.102  0.00  0.00    +0.136 C 
ENDBRANCH  29  30
ENDBRANCH  15  29
TORSDOF 3
