REMARK  Name = ZINC67547957
REMARK  5 active torsions:
REMARK  status: ('A' for Active; 'I' for Inactive)
REMARK    1  A    between atoms: C_1  and  C_2
REMARK    2  A    between atoms: C_2  and  C_4
REMARK    3  A    between atoms: C_2  and  N_15
REMARK    4  A    between atoms: C_16  and  C_18
REMARK    5  A    between atoms: N_21  and  C_23
REMARK                            x       y       z     vdW  Elec       q    Type
REMARK                         _______ _______ _______ _____ _____    ______ ____
ROOT
ATOM      1  N   UNL     1      -1.372  -0.511   0.012  0.00  0.00    -0.303 N 
ATOM      2  C   UNL     1      -2.051  -0.643  -1.145  0.00  0.00    +0.265 C 
ATOM      3  O   UNL     1      -1.522  -0.341  -2.197  0.00  0.00    -0.268 OA
ATOM      4  H   UNL     1      -1.794  -0.752   0.852  0.00  0.00    +0.150 HD
ENDROOT
BRANCH   2   5
ATOM      5  C   UNL     1      -3.436  -1.154  -1.134  0.00  0.00    +0.147 A 
ATOM      6  C   UNL     1      -4.268  -1.351  -2.262  0.00  0.00    +0.054 A 
ATOM      7  C   UNL     1      -5.436  -1.829  -1.773  0.00  0.00    +0.115 A 
ATOM      8  N   UNL     1      -5.301  -1.909  -0.423  0.00  0.00    -0.239 N 
ATOM      9  N   UNL     1      -4.129  -1.518  -0.073  0.00  0.00    -0.162 NA
BRANCH   8  10
ATOM     10  C   UNL     1      -6.294  -2.359   0.458  0.00  0.00    +0.068 A 
ATOM     11  C   UNL     1      -7.526  -2.771  -0.035  0.00  0.00    +0.028 A 
ATOM     12  C   UNL     1      -8.503  -3.214   0.835  0.00  0.00    +0.005 A 
ATOM     13  C   UNL     1      -8.257  -3.250   2.195  0.00  0.00    +0.038 A 
ATOM     14  C   UNL     1      -7.030  -2.840   2.690  0.00  0.00    +0.125 A 
ATOM     15  C   UNL     1      -6.045  -2.400   1.823  0.00  0.00    +0.066 A 
ATOM     16  F   UNL     1      -6.792  -2.875   4.019  0.00  0.00    -0.205 F 
ENDBRANCH   8  10
ENDBRANCH   2   5
BRANCH   1  18
ATOM     17  C   UNL     1      -0.019   1.526   0.010  0.00  0.00    +0.033 C 
ATOM     18  C   UNL     1       0.002  -0.004   0.002  0.00  0.00    +0.100 C 
BRANCH  18  19
ATOM     19  C   UNL     1       0.731  -0.503   1.223  0.00  0.00    -0.025 A 
ATOM     20  C   UNL     1       0.079  -0.558   2.441  0.00  0.00    +0.009 A 
ATOM     21  C   UNL     1       0.740  -1.016   3.566  0.00  0.00    +0.048 A 
ATOM     22  C   UNL     1       2.060  -1.421   3.473  0.00  0.00    +0.142 A 
ATOM     23  C   UNL     1       2.718  -1.365   2.245  0.00  0.00    +0.076 A 
ATOM     24  C   UNL     1       2.048  -0.911   1.121  0.00  0.00    +0.032 A 
ATOM     25  N   UNL     1       4.056  -1.776   2.165  0.00  0.00    -0.280 N 
ATOM     26  C   UNL     1       4.580  -2.501   3.177  0.00  0.00    +0.255 C 
ATOM     27  O   UNL     1       5.744  -2.841   3.144  0.00  0.00    -0.272 OA
ATOM     28  C   UNL     1       3.712  -2.886   4.348  0.00  0.00    +0.325 C 
ATOM     29  O   UNL     1       2.726  -1.875   4.568  0.00  0.00    -0.481 OA
ATOM     30  H   UNL     1       4.597  -1.543   1.394  0.00  0.00    +0.155 HD
ENDBRANCH  18  19
ENDBRANCH   1  18
TORSDOF 4
