REMARK  Name = ZINC06475700
REMARK  5 active torsions:
REMARK  status: ('A' for Active; 'I' for Inactive)
REMARK    1  A    between atoms: C_1  and  N_47
REMARK    2  A    between atoms: C_2  and  C_3
REMARK    3  A    between atoms: C_2  and  N_47
REMARK    4  A    between atoms: C_15  and  C_16
REMARK    5  A    between atoms: C_15  and  N_47
REMARK                            x       y       z     vdW  Elec       q    Type
REMARK                         _______ _______ _______ _____ _____    ______ ____
ROOT
ATOM      1  C   UNL     1       3.276   2.740   1.936  0.00  0.00    -0.095 C 
ATOM      2  N   UNL     1       2.938   4.072   1.392  0.00  0.00    +0.387 N 
ATOM      3  H   UNL     1       2.193   4.487   1.964  0.00  0.00    -0.081 HD
ENDROOT
BRANCH   2   4
ATOM      4  C   UNL     1       2.458   3.941  -0.000  0.00  0.00    -0.003 C 
BRANCH   4   5
ATOM      5  C   UNL     1       1.131   3.227   0.008  0.00  0.00    +0.095 A 
ATOM      6  N   UNL     1       0.009   3.968   0.022  0.00  0.00    -0.344 N 
ATOM      7  H   UNL     1       0.073   4.966   0.027  0.00  0.00    +0.167 HD
ATOM      8  C   UNL     1      -1.231   3.361   0.030  0.00  0.00    +0.053 A 
ATOM      9  C   UNL     1      -2.409   4.096   0.044  0.00  0.00    +0.026 A 
ATOM     10  C   UNL     1      -3.622   3.441   0.051  0.00  0.00    +0.002 A 
ATOM     11  C   UNL     1      -3.679   2.054   0.045  0.00  0.00    +0.001 A 
ATOM     12  C   UNL     1      -2.521   1.308   0.031  0.00  0.00    +0.015 A 
ATOM     13  C   UNL     1      -1.288   1.956   0.019  0.00  0.00    +0.065 A 
ATOM     14  C   UNL     1      -0.015   1.215   0.009  0.00  0.00    +0.281 A 
ATOM     15  O   UNL     1       0.002  -0.004   0.002  0.00  0.00    -0.265 OA
ATOM     16  N   UNL     1       1.131   1.923   0.002  0.00  0.00    -0.197 NA
ENDBRANCH   4   5
ENDBRANCH   2   4
BRANCH   2  17
ATOM     17  C   UNL     1       4.125   4.952   1.437  0.00  0.00    -0.003 C 
BRANCH  17  18
ATOM     18  C   UNL     1       4.459   5.245   2.877  0.00  0.00    +0.094 A 
ATOM     19  N   UNL     1       5.513   6.050   3.165  0.00  0.00    -0.312 N 
ATOM     20  H   UNL     1       6.055   6.434   2.418  0.00  0.00    +0.170 HD
ATOM     21  C   UNL     1       5.844   6.341   4.438  0.00  0.00    +0.260 A 
ATOM     22  O   UNL     1       6.790   7.069   4.683  0.00  0.00    -0.267 OA
ATOM     23  C   UNL     1       5.065   5.774   5.499  0.00  0.00    +0.075 A 
ATOM     24  C   UNL     1       5.246   5.948   6.948  0.00  0.00    -0.023 A 
ATOM     25  C   UNL     1       4.376   5.309   7.749  0.00  0.00    -0.004 A 
ATOM     26  S   UNL     1       3.282   4.447   6.644  0.00  0.00    -0.073 S 
ATOM     27  C   UNL     1       4.001   4.953   5.105  0.00  0.00    +0.116 A 
ATOM     28  N   UNL     1       3.732   4.714   3.824  0.00  0.00    -0.229 NA
ATOM     29  C   UNL     1       4.654   5.563   9.207  0.00  0.00    +0.043 C 
ATOM     30  C   UNL     1       5.567   6.809   9.215  0.00  0.00    +0.010 C 
ATOM     31  C   UNL     1       6.233   6.720   7.828  0.00  0.00    +0.037 C 
ENDBRANCH  17  18
ENDBRANCH   2  17
TORSDOF 4
