REMARK  Name = ZINC36592849
REMARK  13 active torsions:
REMARK  status: ('A' for Active; 'I' for Inactive)
REMARK    1  A    between atoms: C_1  and  C_2
REMARK    2  A    between atoms: C_5  and  S_8
REMARK    3  A    between atoms: S_8  and  C_11
REMARK    4  A    between atoms: C_11  and  N_12
REMARK    5  A    between atoms: C_13  and  C_15
REMARK    6  A    between atoms: C_15  and  C_17
REMARK    7  A    between atoms: C_15  and  N_24
REMARK    8  A    between atoms: C_22  and  C_23
REMARK    9  A    between atoms: N_24  and  C_34
REMARK   10  A    between atoms: C_25  and  C_27
REMARK   11  A    between atoms: C_34  and  C_35
REMARK   12  A    between atoms: C_34  and  C_36
REMARK   13  A    between atoms: C_34  and  C_37
REMARK                            x       y       z     vdW  Elec       q    Type
REMARK                         _______ _______ _______ _____ _____    ______ ____
ROOT
ATOM      1  C   UNL     1       2.600  -5.301   2.945  0.00  0.00    +0.193 C 
ENDROOT
BRANCH   1   2
ATOM      2  C   UNL     1       3.537  -4.131   3.101  0.00  0.00    -0.015 A 
ATOM      3  C   UNL     1       4.807  -4.325   3.611  0.00  0.00    +0.006 A 
ATOM      4  C   UNL     1       5.665  -3.251   3.755  0.00  0.00    +0.000 A 
ATOM      5  C   UNL     1       5.255  -1.984   3.387  0.00  0.00    +0.000 A 
ATOM      6  C   UNL     1       3.985  -1.790   2.876  0.00  0.00    +0.004 A 
ATOM      7  C   UNL     1       3.128  -2.864   2.728  0.00  0.00    -0.045 A 
ATOM      8  C   UNL     1       1.746  -2.654   2.166  0.00  0.00    +0.044 C 
ENDBRANCH   1   2
BRANCH   1  10
ATOM      9  N   UNL     1       3.204  -5.191   0.548  0.00  0.00    -0.294 N 
ATOM     10  C   UNL     1       2.818  -5.943   1.599  0.00  0.00    +0.239 C 
ATOM     11  O   UNL     1       2.647  -7.136   1.460  0.00  0.00    -0.273 OA
ATOM     12  H   UNL     1       3.341  -4.237   0.659  0.00  0.00    +0.150 HD
BRANCH   9  13
ATOM     13  C   UNL     1       3.417  -5.815  -0.760  0.00  0.00    +0.278 C 
BRANCH  13  14
ATOM     14  S   UNL     1       1.909  -5.660  -1.756  0.00  0.00    +0.013 S 
ATOM     15  O   UNL     1       0.774  -6.036  -0.989  0.00  0.00    -0.168 OA
ATOM     16  O   UNL     1       2.121  -6.205  -3.052  0.00  0.00    -0.168 OA
BRANCH  14  21
ATOM     17  C   UNL     1       1.253   0.268  -2.669  0.00  0.00    +0.044 C 
ATOM     18  C   UNL     1       1.417  -1.213  -2.441  0.00  0.00    -0.050 A 
ATOM     19  C   UNL     1       2.146  -1.973  -3.336  0.00  0.00    +0.005 A 
ATOM     20  C   UNL     1       2.296  -3.331  -3.127  0.00  0.00    +0.027 A 
ATOM     21  C   UNL     1       1.719  -3.929  -2.022  0.00  0.00    +0.090 A 
ATOM     22  C   UNL     1       0.991  -3.168  -1.127  0.00  0.00    +0.027 A 
ATOM     23  C   UNL     1       0.844  -1.809  -1.333  0.00  0.00    +0.005 A 
ENDBRANCH  14  21
ENDBRANCH  13  14
ENDBRANCH   9  13
ENDBRANCH   1  10
BRANCH   1  24
ATOM     24  N   UNL     1       2.863  -6.281   4.001  0.00  0.00    -0.277 N 
ATOM     25  C   UNL     1       3.721  -7.298   3.780  0.00  0.00    +0.249 C 
ATOM     26  O   UNL     1       3.864  -8.166   4.618  0.00  0.00    -0.270 OA
BRANCH  25  27
ATOM     27  C   UNL     1       4.487  -7.356   2.517  0.00  0.00    +0.055 A 
ATOM     28  C   UNL     1       4.762  -6.185   1.809  0.00  0.00    +0.014 A 
ATOM     29  C   UNL     1       5.478  -6.246   0.632  0.00  0.00    +0.001 A 
ATOM     30  C   UNL     1       5.923  -7.465   0.151  0.00  0.00    +0.001 A 
ATOM     31  C   UNL     1       5.653  -8.630   0.846  0.00  0.00    +0.021 A 
ATOM     32  C   UNL     1       4.943  -8.583   2.030  0.00  0.00    +0.053 A 
ATOM     33 CL   UNL     1       4.612 -10.045   2.905  0.00  0.00    -0.083 Cl
ENDBRANCH  25  27
BRANCH  24  34
ATOM     34  C   UNL     1       2.195  -6.157   5.299  0.00  0.00    +0.030 C 
ATOM     35  C   UNL     1       1.221  -4.978   5.260  0.00  0.00    +0.031 C 
ATOM     36  C   UNL     1       1.425  -7.444   5.601  0.00  0.00    +0.031 C 
ATOM     37  C   UNL     1       3.240  -5.919   6.391  0.00  0.00    +0.031 C 
ENDBRANCH  24  34
ENDBRANCH   1  24
TORSDOF 8
