REMARK  Name = ZINC67070715
REMARK  10 active torsions:
REMARK  status: ('A' for Active; 'I' for Inactive)
REMARK    1  A    between atoms: C_1  and  C_2
REMARK    2  A    between atoms: C_2  and  C_3
REMARK    3  A    between atoms: C_2  and  C_4
REMARK    4  A    between atoms: C_2  and  O_5
REMARK    5  A    between atoms: O_5  and  C_6
REMARK    6  A    between atoms: N_8  and  C_9
REMARK    7  A    between atoms: C_9  and  C_14
REMARK    8  A    between atoms: N_16  and  C_17
REMARK    9  A    between atoms: C_17  and  C_18
REMARK   10  A    between atoms: N_22  and  C_23
REMARK                            x       y       z     vdW  Elec       q    Type
REMARK                         _______ _______ _______ _____ _____    ______ ____
ROOT
ATOM      1  C   UNL     1       4.356   1.018  -2.099  0.00  0.00    +0.237 C 
ATOM      2  O   UNL     1       5.157   1.643  -2.762  0.00  0.00    -0.273 OA
ATOM      3  N   UNL     1       3.635   1.645  -1.148  0.00  0.00    -0.306 N 
ATOM      4  H   UNL     1       3.048   1.133  -0.569  0.00  0.00    +0.149 HD
ENDROOT
BRANCH   1   5
ATOM      5  C   UNL     1       4.167  -0.457  -2.339  0.00  0.00    +0.114 C 
ATOM      6  C   UNL     1       5.077  -1.268  -1.392  0.00  0.00    +0.035 C 
ATOM      7  C   UNL     1       5.542  -2.470  -2.250  0.00  0.00    +0.003 C 
ATOM      8  C   UNL     1       5.747  -1.834  -3.647  0.00  0.00    +0.003 C 
ATOM      9  C   UNL     1       4.593  -0.817  -3.773  0.00  0.00    +0.035 C 
BRANCH   5  12
ATOM     10  C   UNL     1       1.806  -0.320  -2.926  0.00  0.00    +0.402 C 
ATOM     11  O   UNL     1       2.092   0.509  -3.767  0.00  0.00    -0.226 OA
ATOM     12  N   UNL     1       2.765  -0.825  -2.125  0.00  0.00    -0.267 N 
ATOM     13  H   UNL     1       2.527  -1.431  -1.406  0.00  0.00    +0.153 HD
BRANCH  10  14
ATOM     14  O   UNL     1       0.532  -0.734  -2.794  0.00  0.00    -0.445 OA
BRANCH  14  16
ATOM     15  C   UNL     1       0.009  -0.561  -5.147  0.00  0.00    +0.055 C 
ATOM     16  C   UNL     1      -0.420  -0.209  -3.722  0.00  0.00    +0.107 C 
ATOM     17  C   UNL     1      -0.492   1.312  -3.572  0.00  0.00    +0.055 C 
ATOM     18  C   UNL     1      -1.796  -0.815  -3.438  0.00  0.00    +0.055 C 
ENDBRANCH  14  16
ENDBRANCH  10  14
ENDBRANCH   5  12
ENDBRANCH   1   5
BRANCH   3  19
ATOM     19  C   UNL     1       3.738   3.097  -0.988  0.00  0.00    +0.180 C 
BRANCH  19  20
ATOM     20  C   UNL     1       2.934   3.529   0.211  0.00  0.00    +0.149 A 
ATOM     21  N   UNL     1       2.333   2.737   1.039  0.00  0.00    -0.157 NA
ATOM     22  N   UNL     1       1.699   3.522   2.012  0.00  0.00    -0.254 N 
ATOM     23  C   UNL     1       1.958   4.813   1.716  0.00  0.00    +0.176 A 
ATOM     24  N   UNL     1       2.725   4.827   0.608  0.00  0.00    -0.303 N 
ATOM     25  S   UNL     1       1.417   6.181   2.592  0.00  0.00    -0.011 S 
ATOM     26  H   UNL     1       1.173   3.198   2.760  0.00  0.00    +0.191 HD
BRANCH  24  27
ATOM     27  C   UNL     1       3.245   6.022  -0.060  0.00  0.00    +0.091 C 
ATOM     28  C   UNL     1       3.222   7.336   0.723  0.00  0.00    +0.027 C 
ATOM     29  C   UNL     1       2.242   7.116  -0.431  0.00  0.00    +0.027 C 
ENDBRANCH  24  27
ENDBRANCH  19  20
ENDBRANCH   3  19
TORSDOF 7
