REMARK  Name = ZINC66177018
REMARK  6 active torsions:
REMARK  status: ('A' for Active; 'I' for Inactive)
REMARK    1  A    between atoms: C_1  and  C_2
REMARK    2  A    between atoms: C_4  and  C_7
REMARK    3  A    between atoms: C_7  and  N_8
REMARK    4  A    between atoms: N_11  and  C_12
REMARK    5  A    between atoms: C_12  and  C_13
REMARK    6  A    between atoms: C_13  and  C_14
REMARK                            x       y       z     vdW  Elec       q    Type
REMARK                         _______ _______ _______ _____ _____    ______ ____
ROOT
ATOM      1  N   UNL     1       1.423  -3.567  -2.011  0.00  0.00    -0.291 N 
ATOM      2  C   UNL     1       1.679  -4.594  -2.845  0.00  0.00    +0.300 C 
ATOM      3  O   UNL     1       0.761  -5.221  -3.338  0.00  0.00    -0.253 OA
ATOM      4  N   UNL     1       2.953  -4.926  -3.133  0.00  0.00    -0.299 N 
ATOM      5  H   UNL     1       2.155  -3.067  -1.618  0.00  0.00    +0.151 HD
ATOM      6  H   UNL     1       3.685  -4.426  -2.740  0.00  0.00    +0.150 HD
ENDROOT
BRANCH   1   7
ATOM      7  C   UNL     1       0.038  -3.206  -1.697  0.00  0.00    +0.204 C 
BRANCH   7  11
ATOM      8  C   UNL     1      -0.018   1.503   0.010  0.00  0.00    +0.091 C 
ATOM      9  C   UNL     1       0.002  -0.004   0.002  0.00  0.00    +0.169 A 
ATOM     10  N   UNL     1       0.008  -0.776  -1.091  0.00  0.00    -0.195 NA
ATOM     11  C   UNL     1       0.026  -2.034  -0.750  0.00  0.00    +0.245 A 
ATOM     12  O   UNL     1       0.033  -2.107   0.587  0.00  0.00    -0.336 OA
ATOM     13  N   UNL     1       0.023  -0.767   1.057  0.00  0.00    -0.062 NA
ENDBRANCH   7  11
ENDBRANCH   1   7
BRANCH   4  14
ATOM     14  C   UNL     1       3.232  -6.042  -4.040  0.00  0.00    +0.110 C 
BRANCH  14  15
ATOM     15  C   UNL     1       4.745  -6.207  -4.197  0.00  0.00    +0.054 C 
BRANCH  15  16
ATOM     16  C   UNL     1       5.032  -7.355  -5.130  0.00  0.00    -0.041 A 
ATOM     17  C   UNL     1       5.172  -8.634  -4.626  0.00  0.00    +0.053 A 
ATOM     18  C   UNL     1       5.435  -9.694  -5.482  0.00  0.00    +0.164 A 
ATOM     19  C   UNL     1       5.556  -9.465  -6.848  0.00  0.00    +0.180 A 
ATOM     20  C   UNL     1       5.416  -8.178  -7.347  0.00  0.00    +0.086 A 
ATOM     21  C   UNL     1       5.148  -7.127  -6.488  0.00  0.00    +0.027 A 
ATOM     22 CL   UNL     1       5.570  -7.888  -9.052  0.00  0.00    -0.080 Cl
ATOM     23  O   UNL     1       5.806 -10.492  -7.706  0.00  0.00    -0.483 OA
ATOM     24  C   UNL     1       6.308 -11.703  -7.132  0.00  0.00    +0.270 C 
ATOM     25  C   UNL     1       5.463 -12.035  -5.895  0.00  0.00    +0.270 C 
ATOM     26  O   UNL     1       5.574 -10.947  -4.971  0.00  0.00    -0.485 OA
ENDBRANCH  15  16
ENDBRANCH  14  15
ENDBRANCH   4  14
TORSDOF 5
