REMARK  Name = ZINC67562813
REMARK  8 active torsions:
REMARK  status: ('A' for Active; 'I' for Inactive)
REMARK    1  A    between atoms: C_1  and  C_2
REMARK    2  A    between atoms: C_4  and  C_11
REMARK    3  A    between atoms: C_6  and  C_10
REMARK    4  A    between atoms: C_7  and  O_8
REMARK    5  A    between atoms: O_8  and  C_9
REMARK    6  A    between atoms: C_11  and  C_13
REMARK    7  A    between atoms: N_18  and  C_20
REMARK    8  A    between atoms: C_20  and  C_21
REMARK                            x       y       z     vdW  Elec       q    Type
REMARK                         _______ _______ _______ _____ _____    ______ ____
ROOT
ATOM      1  C   UNL     1       0.050  -4.320  -2.474  0.00  0.00    +0.074 C 
ATOM      2  C   UNL     1      -1.386  -4.851  -2.469  0.00  0.00    +0.014 C 
ATOM      3  C   UNL     1      -1.357  -6.381  -2.534  0.00  0.00    +0.016 C 
ATOM      4  C   UNL     1      -0.597  -6.819  -3.788  0.00  0.00    +0.085 C 
ATOM      5  N   UNL     1       0.771  -6.286  -3.744  0.00  0.00    -0.296 NA
ATOM      6  C   UNL     1       0.770  -4.818  -3.729  0.00  0.00    +0.096 C 
ENDROOT
BRANCH   1   7
ATOM      7  C   UNL     1       0.029  -2.813  -2.470  0.00  0.00    +0.167 C 
ATOM      8  O   UNL     1       0.015  -2.204  -3.519  0.00  0.00    -0.292 OA
BRANCH   7  12
ATOM      9  C   UNL     1      -0.018   1.503   0.010  0.00  0.00    +0.047 C 
ATOM     10  C   UNL     1       0.002  -0.004   0.002  0.00  0.00    -0.008 A 
ATOM     11  C   UNL     1       0.006  -0.682  -1.190  0.00  0.00    +0.018 A 
ATOM     12  C   UNL     1       0.025  -2.082  -1.196  0.00  0.00    +0.018 A 
ATOM     13  C   UNL     1       0.041  -2.783   0.016  0.00  0.00    +0.018 A 
ATOM     14  C   UNL     1       0.037  -2.095   1.203  0.00  0.00    -0.008 A 
ATOM     15  C   UNL     1       0.023  -0.705   1.203  0.00  0.00    +0.126 A 
ATOM     16  C   UNL     1       0.054  -2.848   2.508  0.00  0.00    +0.047 C 
BRANCH  15  17
ATOM     17  O   UNL     1       0.025  -0.029   2.380  0.00  0.00    -0.495 OA
ATOM     18  C   UNL     1      -1.247   0.277   2.954  0.00  0.00    +0.277 C 
ENDBRANCH  15  17
ENDBRANCH   7  12
ENDBRANCH   1   7
BRANCH   5  19
ATOM     19  C   UNL     1       1.572  -6.801  -4.863  0.00  0.00    +0.137 C 
BRANCH  19  20
ATOM     20  C   UNL     1       1.761  -8.287  -4.704  0.00  0.00    +0.040 A 
ATOM     21  C   UNL     1       1.230  -9.139  -5.607  0.00  0.00    +0.092 A 
ATOM     22  C   UNL     1       1.422 -10.531  -5.436  0.00  0.00    +0.254 A 
ATOM     23  O   UNL     1       0.952 -11.319  -6.238  0.00  0.00    -0.268 OA
ATOM     24  N   UNL     1       2.129 -10.977  -4.378  0.00  0.00    -0.275 N 
ATOM     25  H   UNL     1       2.264 -11.930  -4.255  0.00  0.00    +0.173 HD
ATOM     26  C   UNL     1       2.647 -10.106  -3.493  0.00  0.00    +0.327 A 
ATOM     27  O   UNL     1       3.283 -10.523  -2.544  0.00  0.00    -0.247 OA
ATOM     28  N   UNL     1       2.477  -8.780  -3.647  0.00  0.00    -0.310 N 
ATOM     29  H   UNL     1       2.862  -8.168  -3.000  0.00  0.00    +0.170 HD
ENDBRANCH  19  20
ENDBRANCH   5  19
TORSDOF 5
