REMARK  Name = ZINC20577828
REMARK  9 active torsions:
REMARK  status: ('A' for Active; 'I' for Inactive)
REMARK    1  A    between atoms: C_1  and  C_2
REMARK    2  A    between atoms: C_2  and  C_27
REMARK    3  A    between atoms: C_6  and  S_13
REMARK    4  A    between atoms: S_13  and  N_16
REMARK    5  A    between atoms: N_16  and  C_17
REMARK    6  A    between atoms: C_19  and  O_25
REMARK    7  A    between atoms: C_22  and  O_23
REMARK    8  A    between atoms: O_23  and  C_24
REMARK    9  A    between atoms: O_25  and  C_26
REMARK                            x       y       z     vdW  Elec       q    Type
REMARK                         _______ _______ _______ _____ _____    ______ ____
ROOT
ATOM      1  S   UNL     1      -2.491   1.420   0.728  0.00  0.00    +0.072 S 
ATOM      2  O   UNL     1      -3.577   2.304   0.485  0.00  0.00    -0.150 OA
ATOM      3  O   UNL     1      -2.510   0.060   0.315  0.00  0.00    -0.150 OA
ENDROOT
BRANCH   1   9
ATOM      4  C   UNL     1      -3.895   5.078   4.241  0.00  0.00    +0.039 C 
ATOM      5  C   UNL     1      -3.334   4.644   5.571  0.00  0.00    -0.063 C 
ATOM      6  C   UNL     1      -2.735   3.446   5.689  0.00  0.00    +0.045 C 
ATOM      7  C   UNL     1      -2.425   2.478   4.607  0.00  0.00    +0.010 A 
ATOM      8  C   UNL     1      -2.636   2.489   3.234  0.00  0.00    +0.039 A 
ATOM      9  C   UNL     1      -2.227   1.413   2.470  0.00  0.00    +0.109 A 
ATOM     10  C   UNL     1      -1.615   0.328   3.072  0.00  0.00    +0.030 A 
ATOM     11  C   UNL     1      -1.396   0.311   4.435  0.00  0.00    +0.026 A 
ATOM     12  C   UNL     1      -1.802   1.386   5.220  0.00  0.00    +0.042 A 
ATOM     13  N   UNL     1      -1.709   1.615   6.589  0.00  0.00    -0.281 N 
ATOM     14  C   UNL     1      -2.237   2.804   6.926  0.00  0.00    +0.249 C 
ATOM     15  O   UNL     1      -2.295   3.270   8.048  0.00  0.00    -0.270 OA
ATOM     16  C   UNL     1      -3.445   5.552   6.768  0.00  0.00    +0.039 C 
ATOM     17  H   UNL     1      -1.245   0.862   7.242  0.00  0.00    +0.155 HD
ENDBRANCH   1   9
BRANCH   1  18
ATOM     18  N   UNL     1      -1.155   2.108   0.032  0.00  0.00    -0.213 N 
ATOM     19  H   UNL     1      -1.258   3.022  -0.572  0.00  0.00    +0.174 HD
BRANCH  18  20
ATOM     20  C   UNL     1       0.105   1.527   0.212  0.00  0.00    +0.093 A 
ATOM     21  C   UNL     1       0.231   0.147   0.276  0.00  0.00    +0.073 A 
ATOM     22  C   UNL     1       1.482  -0.426   0.448  0.00  0.00    +0.122 A 
ATOM     23  C   UNL     1       2.606   0.379   0.557  0.00  0.00    +0.049 A 
ATOM     24  C   UNL     1       2.482   1.755   0.494  0.00  0.00    +0.051 A 
ATOM     25  C   UNL     1       1.236   2.333   0.321  0.00  0.00    +0.143 A 
BRANCH  25  26
ATOM     26  O   UNL     1       1.116   3.687   0.259  0.00  0.00    -0.493 OA
ATOM     27  C   UNL     1       2.317   4.451   0.379  0.00  0.00    +0.277 C 
ENDBRANCH  25  26
BRANCH  22  28
ATOM     28  O   UNL     1       1.606  -1.779   0.510  0.00  0.00    -0.495 OA
ATOM     29  C   UNL     1       2.924  -2.301   0.690  0.00  0.00    +0.277 C 
ENDBRANCH  22  28
ENDBRANCH  18  20
ENDBRANCH   1  18
TORSDOF 5
