REMARK  Name = ZINC08722505
REMARK  7 active torsions:
REMARK  status: ('A' for Active; 'I' for Inactive)
REMARK    1  A    between atoms: C_1  and  C_2
REMARK    2  A    between atoms: C_3  and  C_9
REMARK    3  A    between atoms: N_7  and  C_8
REMARK    4  A    between atoms: N_11  and  N_12
REMARK    5  A    between atoms: N_15  and  C_16
REMARK    6  A    between atoms: C_17  and  C_23
REMARK    7  A    between atoms: N_18  and  C_22
REMARK                            x       y       z     vdW  Elec       q    Type
REMARK                         _______ _______ _______ _____ _____    ______ ____
ROOT
ATOM      1  N   UNL     1      -3.372  -1.303   0.026  0.00  0.00    -0.218 N 
ATOM      2  C   UNL     1      -2.338  -0.439   0.022  0.00  0.00    +0.321 C 
ATOM      3  O   UNL     1      -2.547   0.759   0.030  0.00  0.00    -0.251 OA
ATOM      4  N   UNL     1      -1.072  -0.902   0.007  0.00  0.00    -0.261 N 
ATOM      5  H   UNL     1      -4.283  -0.970   0.037  0.00  0.00    +0.174 HD
ATOM      6  H   UNL     1      -0.906  -1.858   0.000  0.00  0.00    +0.157 HD
ENDROOT
BRANCH   4   7
ATOM      7  C   UNL     1       0.002  -0.004   0.002  0.00  0.00    +0.095 A 
ATOM      8  C   UNL     1       1.320  -0.260  -0.012  0.00  0.00    +0.045 A 
ATOM      9  N   UNL     1       2.210   0.776  -0.015  0.00  0.00    -0.334 N 
ATOM     10  C   UNL     1       1.744   2.048  -0.004  0.00  0.00    +0.127 A 
ATOM     11  S   UNL     1       2.617   3.521  -0.004  0.00  0.00    -0.025 S 
ATOM     12  S   UNL     1      -0.022   1.782   0.012  0.00  0.00    -0.047 S 
ATOM     13  C   UNL     1       3.651   0.515  -0.030  0.00  0.00    +0.150 C 
ATOM     14  C   UNL     1       1.814  -1.683  -0.025  0.00  0.00    +0.066 C 
ENDBRANCH   4   7
BRANCH   1  17
ATOM     15  C   UNL     1      -4.165  -3.548   0.021  0.00  0.00    +0.269 C 
ATOM     16  O   UNL     1      -5.308  -3.130   0.034  0.00  0.00    -0.268 OA
ATOM     17  N   UNL     1      -3.131  -2.683   0.016  0.00  0.00    -0.229 N 
ATOM     18  H   UNL     1      -2.220  -3.017   0.006  0.00  0.00    +0.173 HD
BRANCH  15  21
ATOM     19  C   UNL     1      -6.287  -5.759   0.041  0.00  0.00    +0.065 C 
ATOM     20  C   UNL     1      -4.803  -6.020   0.019  0.00  0.00    +0.036 A 
ATOM     21  C   UNL     1      -3.913  -4.992   0.011  0.00  0.00    +0.097 A 
ATOM     22  S   UNL     1      -2.357  -5.867  -0.009  0.00  0.00    -0.057 S 
ATOM     23  C   UNL     1      -2.987  -7.484  -0.011  0.00  0.00    +0.126 A 
ATOM     24  S   UNL     1      -2.132  -8.968  -0.026  0.00  0.00    -0.025 S 
ATOM     25  N   UNL     1      -4.323  -7.277   0.003  0.00  0.00    -0.335 N 
ATOM     26  C   UNL     1      -5.244  -8.416   0.005  0.00  0.00    +0.150 C 
ENDBRANCH  15  21
ENDBRANCH   1  17
TORSDOF 3
