REMARK  Name = ZINC63818901
REMARK  4 active torsions:
REMARK  status: ('A' for Active; 'I' for Inactive)
REMARK    1  A    between atoms: C_1  and  C_2
REMARK    2  A    between atoms: C_2  and  C_4
REMARK    3  A    between atoms: C_2  and  N_16
REMARK    4  A    between atoms: N_6  and  C_7
REMARK                            x       y       z     vdW  Elec       q    Type
REMARK                         _______ _______ _______ _____ _____    ______ ____
ROOT
ATOM      1  C   UNL     1       0.731  -0.503   1.223  0.00  0.00    +0.236 C 
ATOM      2  O   UNL     1       0.159  -1.213   2.023  0.00  0.00    -0.274 OA
ATOM      3  N   UNL     1       2.019  -0.161   1.426  0.00  0.00    -0.277 N 
ATOM      4  H   UNL     1       2.476   0.406   0.786  0.00  0.00    +0.152 HD
ENDROOT
BRANCH   3   5
ATOM      5  C   UNL     1       2.727  -0.647   2.613  0.00  0.00    +0.269 C 
ATOM      6  N   UNL     1       2.338   0.141   3.789  0.00  0.00    -0.348 N 
ATOM      7  C   UNL     1       3.413   0.713   4.250  0.00  0.00    +0.061 A 
ATOM      8  C   UNL     1       3.658   1.608   5.388  0.00  0.00    +0.027 A 
ATOM      9  C   UNL     1       4.908   2.054   5.627  0.00  0.00    +0.002 A 
ATOM     10  C   UNL     1       6.006   1.696   4.825  0.00  0.00    +0.002 A 
ATOM     11  C   UNL     1       5.891   0.881   3.757  0.00  0.00    +0.027 A 
ATOM     12  C   UNL     1       4.575   0.334   3.401  0.00  0.00    +0.061 A 
ATOM     13  N   UNL     1       4.174  -0.458   2.448  0.00  0.00    -0.348 N 
ATOM     14  H   UNL     1       1.443   0.221   4.156  0.00  0.00    +0.163 HD
ATOM     15  H   UNL     1       4.729  -0.851   1.757  0.00  0.00    +0.163 HD
ENDBRANCH   3   5
BRANCH   1  17
ATOM     16  C   UNL     1      -0.019   1.526   0.010  0.00  0.00    +0.038 C 
ATOM     17  C   UNL     1       0.002  -0.004   0.002  0.00  0.00    +0.160 C 
BRANCH  17  18
ATOM     18  N   UNL     1      -1.372  -0.511   0.012  0.00  0.00    -0.282 N 
ATOM     19  C   UNL     1      -1.976  -1.366  -1.016  0.00  0.00    +0.144 C 
ATOM     20  C   UNL     1      -3.394  -1.625  -0.572  0.00  0.00    -0.018 A 
ATOM     21  C   UNL     1      -4.434  -2.344  -1.112  0.00  0.00    +0.006 A 
ATOM     22  C   UNL     1      -5.652  -2.398  -0.455  0.00  0.00    +0.000 A 
ATOM     23  C   UNL     1      -5.826  -1.730   0.744  0.00  0.00    +0.001 A 
ATOM     24  C   UNL     1      -4.789  -1.006   1.294  0.00  0.00    +0.013 A 
ATOM     25  C   UNL     1      -3.558  -0.947   0.638  0.00  0.00    +0.042 A 
ATOM     26  C   UNL     1      -2.287  -0.275   0.969  0.00  0.00    +0.248 C 
ATOM     27  O   UNL     1      -2.095   0.398   1.963  0.00  0.00    -0.270 OA
ENDBRANCH  17  18
ENDBRANCH   1  17
TORSDOF 3
