REMARK  Name = ZINC01822017
REMARK  11 active torsions:
REMARK  status: ('A' for Active; 'I' for Inactive)
REMARK    1  A    between atoms: C_1  and  C_2
REMARK    2  A    between atoms: C_4  and  C_12
REMARK    3  A    between atoms: C_7  and  O_8
REMARK    4  A    between atoms: O_8  and  C_9
REMARK    5  A    between atoms: C_9  and  C_10
REMARK    6  A    between atoms: C_13  and  C_23
REMARK    7  A    between atoms: N_15  and  C_17
REMARK    8  A    between atoms: C_31  and  C_33
REMARK    9  A    between atoms: C_38  and  O_39
REMARK   10  A    between atoms: O_39  and  C_40
REMARK   11  A    between atoms: C_40  and  C_42
REMARK                            x       y       z     vdW  Elec       q    Type
REMARK                         _______ _______ _______ _____ _____    ______ ____
ROOT
ATOM      1  C   UNL     1      -0.122  -3.052  -2.502  0.00  0.00    +0.100 A 
ATOM      2  C   UNL     1       0.463  -4.385  -2.698  0.00  0.00    +0.022 A 
ATOM      3  C   UNL     1       0.018  -4.827  -3.932  0.00  0.00    +0.123 A 
ATOM      4  N   UNL     1      -0.766  -3.866  -4.454  0.00  0.00    -0.239 N 
ATOM      5  N   UNL     1      -0.847  -2.790  -3.567  0.00  0.00    -0.166 NA
ENDROOT
BRANCH   2   6
ATOM      6  C   UNL     1       1.343  -5.103  -1.772  0.00  0.00    +0.032 C 
ATOM      7  C   UNL     1       2.336  -5.897  -2.255  0.00  0.00    +0.082 A 
ATOM      8  C   UNL     1       2.805  -6.069  -3.634  0.00  0.00    +0.288 A 
ATOM      9  O   UNL     1       2.295  -5.455  -4.553  0.00  0.00    -0.265 OA
ATOM     10  N   UNL     1       3.815  -6.924  -3.849  0.00  0.00    -0.169 N 
ATOM     11  C   UNL     1       4.355  -7.588  -2.784  0.00  0.00    +0.200 A 
ATOM     12  S   UNL     1       3.430  -7.008  -1.381  0.00  0.00    -0.044 S 
ATOM     13  N   UNL     1       5.317  -8.367  -3.194  0.00  0.00    -0.200 NA
ATOM     14  C   UNL     1       5.447  -8.247  -4.523  0.00  0.00    +0.186 A 
ATOM     15  N   UNL     1       4.563  -7.388  -4.966  0.00  0.00    -0.141 NA
BRANCH  14  16
ATOM     16  C   UNL     1       6.434  -8.972  -5.359  0.00  0.00    +0.063 A 
ATOM     17  C   UNL     1       6.477  -8.759  -6.735  0.00  0.00    +0.015 A 
ATOM     18  C   UNL     1       7.398  -9.436  -7.508  0.00  0.00    +0.001 A 
ATOM     19  C   UNL     1       8.280 -10.327  -6.922  0.00  0.00    +0.004 A 
ATOM     20  C   UNL     1       8.246 -10.546  -5.558  0.00  0.00    +0.047 A 
ATOM     21  C   UNL     1       7.331  -9.868  -4.769  0.00  0.00    +0.142 A 
BRANCH  21  22
ATOM     22  O   UNL     1       7.301 -10.078  -3.427  0.00  0.00    -0.425 OA
BRANCH  22  23
ATOM     23  C   UNL     1       6.466 -11.017  -2.954  0.00  0.00    +0.309 C 
ATOM     24  O   UNL     1       5.716 -11.593  -3.707  0.00  0.00    -0.251 OA
ATOM     25  C   UNL     1       6.463 -11.353  -1.485  0.00  0.00    +0.136 C 
ENDBRANCH  22  23
ENDBRANCH  21  22
ENDBRANCH  14  16
ENDBRANCH   2   6
BRANCH   1  29
ATOM     26  C   UNL     1       0.348   1.522  -0.562  0.00  0.00    +0.047 C 
ATOM     27  C   UNL     1       0.290   0.026  -0.388  0.00  0.00    -0.008 A 
ATOM     28  C   UNL     1       0.117  -0.789  -1.486  0.00  0.00    +0.017 A 
ATOM     29  C   UNL     1       0.064  -2.173  -1.324  0.00  0.00    +0.003 A 
ATOM     30  C   UNL     1       0.187  -2.728  -0.050  0.00  0.00    +0.014 A 
ATOM     31  C   UNL     1       0.359  -1.907   1.044  0.00  0.00    +0.046 A 
ATOM     32  C   UNL     1       0.417  -0.529   0.878  0.00  0.00    +0.124 A 
BRANCH  32  33
ATOM     33  O   UNL     1       0.593   0.277   1.958  0.00  0.00    -0.488 OA
BRANCH  33  34
ATOM     34  C   UNL     1       0.716  -0.361   3.230  0.00  0.00    +0.256 C 
BRANCH  34  35
ATOM     35  C   UNL     1       0.903   0.683   4.300  0.00  0.00    +0.006 C 
ATOM     36  C   UNL     1       0.227   0.603   5.420  0.00  0.00    +0.007 C 
ENDBRANCH  34  35
ENDBRANCH  33  34
ENDBRANCH  32  33
ENDBRANCH   1  29
BRANCH   4  37
ATOM     37  C   UNL     1      -1.409  -3.937  -5.697  0.00  0.00    +0.065 A 
ATOM     38  C   UNL     1      -1.263  -5.066  -6.492  0.00  0.00    +0.028 A 
ATOM     39  C   UNL     1      -1.898  -5.132  -7.717  0.00  0.00    +0.002 A 
ATOM     40  C   UNL     1      -2.677  -4.076  -8.152  0.00  0.00    +0.000 A 
ATOM     41  C   UNL     1      -2.823  -2.950  -7.362  0.00  0.00    +0.002 A 
ATOM     42  C   UNL     1      -2.196  -2.880  -6.134  0.00  0.00    +0.028 A 
ENDBRANCH   4  37
TORSDOF 9
