REMARK  Name = ZINC59264799
REMARK  7 active torsions:
REMARK  status: ('A' for Active; 'I' for Inactive)
REMARK    1  A    between atoms: C_5  and  C_7
REMARK    2  A    between atoms: C_10  and  S_13
REMARK    3  A    between atoms: N_11  and  N_12
REMARK    4  A    between atoms: S_13  and  C_14
REMARK    5  A    between atoms: C_14  and  C_15
REMARK    6  A    between atoms: C_15  and  O_17
REMARK    7  A    between atoms: O_17  and  C_18
REMARK                            x       y       z     vdW  Elec       q    Type
REMARK                         _______ _______ _______ _____ _____    ______ ____
ROOT
ATOM      1  C   UNL     1       1.249  -2.160  -0.021  0.00  0.00    +0.183 A 
ATOM      2  N   UNL     1       2.319  -2.921  -0.030  0.00  0.00    -0.127 NA
ATOM      3  N   UNL     1       1.977  -4.160  -0.035  0.00  0.00    -0.121 NA
ATOM      4  C   UNL     1       0.667  -4.266  -0.029  0.00  0.00    +0.209 A 
ATOM      5  N   UNL     1       0.158  -2.999  -0.015  0.00  0.00    -0.224 N 
ENDROOT
BRANCH   1  10
ATOM      6  C   UNL     1      -0.017   1.375   0.010  0.00  0.00    +0.001 A 
ATOM      7  C   UNL     1       1.170   2.087   0.002  0.00  0.00    +0.001 A 
ATOM      8  C   UNL     1       2.383   1.421  -0.013  0.00  0.00    +0.016 A 
ATOM      9  C   UNL     1       2.416   0.041  -0.021  0.00  0.00    +0.029 A 
ATOM     10  C   UNL     1       1.222  -0.682  -0.013  0.00  0.00    +0.035 A 
ATOM     11  C   UNL     1       0.002  -0.004   0.002  0.00  0.00    +0.013 A 
ATOM     12 BR   UNL     1       4.075  -0.867  -0.043  0.00  0.00    -0.050 Br
ENDBRANCH   1  10
BRANCH   5  13
ATOM     13  N   UNL     1      -1.159  -2.638  -0.001  0.00  0.00    -0.295 N 
ATOM     14  H   UNL     1      -1.517  -2.538  -0.939  0.00  0.00    +0.163 HD
ATOM     15  H   UNL     1      -1.709  -3.299   0.528  0.00  0.00    +0.163 HD
ENDBRANCH   5  13
BRANCH   4  16
ATOM     16  S   UNL     1      -0.260  -5.764  -0.032  0.00  0.00    -0.073 S 
BRANCH  16  17
ATOM     17  C   UNL     1       1.006  -7.064  -0.044  0.00  0.00    +0.197 C 
BRANCH  17  18
ATOM     18  C   UNL     1       0.339  -8.415  -0.047  0.00  0.00    +0.318 C 
ATOM     19  O   UNL     1      -0.867  -8.494  -0.042  0.00  0.00    -0.250 OA
BRANCH  18  20
ATOM     20  O   UNL     1       1.085  -9.531  -0.056  0.00  0.00    -0.461 OA
BRANCH  20  21
ATOM     21  C   UNL     1       0.386 -10.778  -0.058  0.00  0.00    +0.176 C 
ATOM     22  C   UNL     1       0.143 -11.230   1.383  0.00  0.00    +0.044 C 
ATOM     23  C   UNL     1      -0.605 -12.564   1.380  0.00  0.00    +0.004 C 
ATOM     24  C   UNL     1       0.232 -13.617   0.650  0.00  0.00    +0.000 C 
ATOM     25  C   UNL     1       0.475 -13.165  -0.791  0.00  0.00    +0.004 C 
ATOM     26  C   UNL     1       1.223 -11.830  -0.788  0.00  0.00    +0.044 C 
ENDBRANCH  20  21
ENDBRANCH  18  20
ENDBRANCH  17  18
ENDBRANCH  16  17
ENDBRANCH   4  16
TORSDOF 7
