REMARK  Name = ZINC12140101
REMARK  13 active torsions:
REMARK  status: ('A' for Active; 'I' for Inactive)
REMARK    1  A    between atoms: C_1  and  C_2
REMARK    2  A    between atoms: C_2  and  C_3
REMARK    3  A    between atoms: C_3  and  C_4
REMARK    4  A    between atoms: C_4  and  N_5
REMARK    5  A    between atoms: N_5  and  C_6
REMARK    6  A    between atoms: N_5  and  S_8
REMARK    7  A    between atoms: C_6  and  C_7
REMARK    8  A    between atoms: S_8  and  C_11
REMARK    9  A    between atoms: C_14  and  C_17
REMARK   10  A    between atoms: N_19  and  C_20
REMARK   11  A    between atoms: C_28  and  C_29
REMARK   12  A    between atoms: C_29  and  O_31
REMARK   13  A    between atoms: O_31  and  C_32
REMARK                            x       y       z     vdW  Elec       q    Type
REMARK                         _______ _______ _______ _____ _____    ______ ____
ROOT
ATOM      1  C   UNL     1      -2.518   3.342   5.058  0.00  0.00    +0.248 C 
ATOM      2  O   UNL     1      -2.439   2.574   5.997  0.00  0.00    -0.270 OA
ATOM      3  N   UNL     1      -3.156   4.521   5.204  0.00  0.00    -0.280 N 
ATOM      4  H   UNL     1      -3.155   5.165   4.479  0.00  0.00    +0.155 HD
ENDROOT
BRANCH   3   5
ATOM      5  C   UNL     1      -3.816   4.812   6.393  0.00  0.00    +0.063 A 
ATOM      6  C   UNL     1      -4.975   4.037   6.811  0.00  0.00    +0.011 A 
ATOM      7  C   UNL     1      -5.589   2.945   6.150  0.00  0.00    +0.011 A 
ATOM      8  C   UNL     1      -6.676   2.331   6.686  0.00  0.00    +0.001 A 
ATOM      9  C   UNL     1      -7.222   2.745   7.894  0.00  0.00    +0.001 A 
ATOM     10  C   UNL     1      -6.647   3.798   8.575  0.00  0.00    +0.016 A 
ATOM     11  C   UNL     1      -5.546   4.436   8.039  0.00  0.00    +0.022 A 
ATOM     12  S   UNL     1      -4.542   5.802   8.561  0.00  0.00    -0.080 S 
ATOM     13  C   UNL     1      -3.392   5.845   7.200  0.00  0.00    +0.118 A 
BRANCH  13  14
ATOM     14  C   UNL     1      -2.303   6.730   6.996  0.00  0.00    +0.347 C 
ATOM     15  O   UNL     1      -1.557   6.568   6.049  0.00  0.00    -0.244 OA
BRANCH  14  16
ATOM     16  O   UNL     1      -2.094   7.751   7.853  0.00  0.00    -0.464 OA
ATOM     17  C   UNL     1      -0.979   8.603   7.587  0.00  0.00    +0.280 C 
ENDBRANCH  14  16
ENDBRANCH  13  14
ENDBRANCH   3   5
BRANCH   1  21
ATOM     18  C   UNL     1      -0.784   2.313   1.321  0.00  0.00    +0.106 A 
ATOM     19  C   UNL     1      -1.433   3.526   1.468  0.00  0.00    +0.029 A 
ATOM     20  C   UNL     1      -2.004   3.864   2.678  0.00  0.00    +0.015 A 
ATOM     21  C   UNL     1      -1.915   2.984   3.758  0.00  0.00    +0.037 A 
ATOM     22  C   UNL     1      -1.254   1.764   3.604  0.00  0.00    +0.015 A 
ATOM     23  C   UNL     1      -0.692   1.437   2.387  0.00  0.00    +0.029 A 
BRANCH  18  24
ATOM     24  S   UNL     1      -0.064   1.887  -0.230  0.00  0.00    +0.061 S 
ATOM     25  O   UNL     1       0.962   0.942   0.044  0.00  0.00    -0.153 OA
ATOM     26  O   UNL     1       0.188   3.108  -0.911  0.00  0.00    -0.153 OA
BRANCH  24  27
ATOM     27  N   UNL     1      -1.222   1.088  -1.104  0.00  0.00    -0.177 NA
BRANCH  27  28
ATOM     28  C   UNL     1      -2.128   1.838  -1.977  0.00  0.00    +0.106 C 
ATOM     29  C   UNL     1      -1.575   1.842  -3.404  0.00  0.00    +0.022 C 
ENDBRANCH  27  28
BRANCH  27  30
ATOM     30  C   UNL     1      -1.340  -0.369  -1.004  0.00  0.00    +0.109 C 
BRANCH  30  31
ATOM     31  C   UNL     1      -2.402  -0.725   0.038  0.00  0.00    +0.017 C 
BRANCH  31  33
ATOM     32  C   UNL     1      -3.587  -2.601   1.185  0.00  0.00    +0.004 C 
ATOM     33  C   UNL     1      -2.525  -2.246   0.143  0.00  0.00    -0.002 C 
ENDBRANCH  31  33
ENDBRANCH  30  31
ENDBRANCH  27  30
ENDBRANCH  24  27
ENDBRANCH  18  24
ENDBRANCH   1  21
TORSDOF 10
