REMARK  Name = ZINC15015339
REMARK  5 active torsions:
REMARK  status: ('A' for Active; 'I' for Inactive)
REMARK    1  A    between atoms: C_1  and  C_2
REMARK    2  A    between atoms: N_13  and  N_14
REMARK    3  A    between atoms: C_15  and  C_17
REMARK    4  A    between atoms: C_17  and  O_18
REMARK    5  A    between atoms: O_18  and  C_19
REMARK                            x       y       z     vdW  Elec       q    Type
REMARK                         _______ _______ _______ _____ _____    ______ ____
ROOT
ATOM      1  N   UNL     1       1.143   1.898   0.001  0.00  0.00    -0.203 N 
ATOM      2  C   UNL     1      -0.014   1.208   0.009  0.00  0.00    +0.270 C 
ATOM      3  O   UNL     1       0.002  -0.004   0.002  0.00  0.00    -0.270 OA
ATOM      4  H   UNL     1       1.130   2.868   0.007  0.00  0.00    +0.177 HD
ENDROOT
BRANCH   1  17
ATOM      5  C   UNL     1       7.302  -1.555  -0.078  0.00  0.00    +0.044 C 
ATOM      6  C   UNL     1       6.745  -0.155  -0.064  0.00  0.00    -0.049 A 
ATOM      7  C   UNL     1       5.378   0.043  -0.050  0.00  0.00    +0.015 A 
ATOM      8  C   UNL     1       4.869   1.337  -0.037  0.00  0.00    +0.030 A 
ATOM      9  C   UNL     1       5.733   2.439  -0.040  0.00  0.00    +0.057 A 
ATOM     10  C   UNL     1       7.107   2.220  -0.054  0.00  0.00    +0.040 A 
ATOM     11  C   UNL     1       7.603   0.931  -0.066  0.00  0.00    +0.020 A 
ATOM     12 BR   UNL     1       8.297   3.690  -0.057  0.00  0.00    -0.048 Br
ATOM     13  N   UNL     1       4.984   3.611  -0.026  0.00  0.00    -0.279 N 
ATOM     14  C   UNL     1       3.666   3.352  -0.021  0.00  0.00    +0.269 C 
ATOM     15  O   UNL     1       2.773   4.178  -0.015  0.00  0.00    -0.268 OA
ATOM     16  C   UNL     1       3.492   1.885  -0.021  0.00  0.00    +0.153 C 
ATOM     17  N   UNL     1       2.366   1.214  -0.014  0.00  0.00    -0.174 NA
ATOM     18  H   UNL     1       5.365   4.503  -0.025  0.00  0.00    +0.155 HD
ENDBRANCH   1  17
BRANCH   2  19
ATOM     19  C   UNL     1      -1.330   1.944   0.019  0.00  0.00    +0.326 C 
BRANCH  19  20
ATOM     20  O   UNL     1      -2.403   1.001   0.019  0.00  0.00    -0.483 OA
BRANCH  20  21
ATOM     21  C   UNL     1      -3.666   1.503   0.028  0.00  0.00    +0.122 A 
ATOM     22  C   UNL     1      -3.857   2.888   0.036  0.00  0.00    +0.046 A 
ATOM     23  C   UNL     1      -5.108   3.421   0.045  0.00  0.00    +0.012 A 
ATOM     24  C   UNL     1      -6.228   2.571   0.045  0.00  0.00    -0.018 A 
ATOM     25  C   UNL     1      -7.535   3.087   0.054  0.00  0.00    +0.008 A 
ATOM     26  C   UNL     1      -8.596   2.235   0.054  0.00  0.00    +0.001 A 
ATOM     27  C   UNL     1      -8.408   0.854   0.046  0.00  0.00    +0.001 A 
ATOM     28  C   UNL     1      -7.157   0.318   0.037  0.00  0.00    +0.008 A 
ATOM     29  C   UNL     1      -6.036   1.166   0.037  0.00  0.00    -0.014 A 
ATOM     30  C   UNL     1      -4.731   0.648   0.022  0.00  0.00    +0.054 A 
ENDBRANCH  20  21
ENDBRANCH  19  20
ENDBRANCH   2  19
TORSDOF 4
