REMARK  Name = ZINC10157220
REMARK  8 active torsions:
REMARK  status: ('A' for Active; 'I' for Inactive)
REMARK    1  A    between atoms: C_1  and  C_2
REMARK    2  A    between atoms: C_4  and  C_31
REMARK    3  A    between atoms: N_13  and  C_14
REMARK    4  A    between atoms: C_18  and  C_21
REMARK    5  A    between atoms: C_24  and  O_29
REMARK    6  A    between atoms: C_26  and  O_27
REMARK    7  A    between atoms: O_27  and  C_28
REMARK    8  A    between atoms: O_29  and  C_30
REMARK                            x       y       z     vdW  Elec       q    Type
REMARK                         _______ _______ _______ _____ _____    ______ ____
ROOT
ATOM      1  C   UNL     1      -2.761  -1.178  -5.576  0.00  0.00    +0.066 C 
ATOM      2  C   UNL     1      -4.060  -0.566  -5.120  0.00  0.00    +0.044 A 
ATOM      3  C   UNL     1      -5.056  -0.268  -6.038  0.00  0.00    +0.046 A 
ATOM      4  C   UNL     1      -6.236   0.294  -5.575  0.00  0.00    +0.044 A 
ATOM      5  N   UNL     1      -6.375   0.527  -4.281  0.00  0.00    -0.216 NA
ATOM      6  C   UNL     1      -5.404   0.230  -3.431  0.00  0.00    +0.252 A 
ATOM      7  N   UNL     1      -4.264  -0.303  -3.840  0.00  0.00    -0.216 NA
ATOM      8  N   UNL     1      -5.586   0.490  -2.074  0.00  0.00    -0.200 N 
ATOM      9  C   UNL     1      -4.690   0.239  -1.117  0.00  0.00    +0.061 A 
ATOM     10  C   UNL     1      -5.254   0.638   0.092  0.00  0.00    +0.080 A 
ATOM     11  C   UNL     1      -6.574   1.159  -0.205  0.00  0.00    +0.152 A 
ATOM     12  N   UNL     1      -6.736   1.054  -1.507  0.00  0.00    -0.148 NA
ATOM     13  N   UNL     1      -7.492   1.671   0.709  0.00  0.00    -0.330 N 
ATOM     14  C   UNL     1      -8.792   2.162   0.244  0.00  0.00    +0.127 C 
ATOM     15  C   UNL     1      -4.535   0.498   1.364  0.00  0.00    +0.169 C 
ATOM     16  O   UNL     1      -4.920   1.019   2.390  0.00  0.00    -0.292 OA
ATOM     17  C   UNL     1      -3.272  -0.348   1.301  0.00  0.00    +0.088 C 
ATOM     18  C   UNL     1      -2.505   0.021   0.027  0.00  0.00    +0.036 C 
ATOM     19  C   UNL     1      -3.310  -0.356  -1.220  0.00  0.00    +0.065 C 
ATOM     20  C   UNL     1      -7.346   0.635  -6.535  0.00  0.00    +0.066 C 
ATOM     21  H   UNL     1      -7.271   1.702   1.652  0.00  0.00    +0.147 HD
ENDROOT
BRANCH  18  22
ATOM     22  C   UNL     1      -1.190  -0.715   0.010  0.00  0.00    -0.002 A 
ATOM     23  C   UNL     1      -1.172  -2.096   0.002  0.00  0.00    +0.011 A 
ATOM     24  C   UNL     1       0.033  -2.774  -0.015  0.00  0.00    +0.046 A 
ATOM     25  C   UNL     1       1.227  -2.067  -0.022  0.00  0.00    +0.124 A 
ATOM     26  C   UNL     1       1.212  -0.681  -0.019  0.00  0.00    +0.091 A 
ATOM     27  C   UNL     1       0.002  -0.004   0.002  0.00  0.00    +0.127 A 
BRANCH  27  28
ATOM     28  O   UNL     1      -0.016   1.355   0.009  0.00  0.00    -0.495 OA
ATOM     29  C   UNL     1       1.248   2.021   0.001  0.00  0.00    +0.277 C 
ENDBRANCH  27  28
BRANCH  25  30
ATOM     30  O   UNL     1       2.411  -2.734  -0.038  0.00  0.00    -0.495 OA
ATOM     31  C   UNL     1       2.352  -4.162  -0.047  0.00  0.00    +0.277 C 
ENDBRANCH  25  30
ENDBRANCH  18  22
TORSDOF 3
