REMARK  Name = ZINC67400488
REMARK  7 active torsions:
REMARK  status: ('A' for Active; 'I' for Inactive)
REMARK    1  A    between atoms: C_4  and  C_7
REMARK    2  A    between atoms: C_7  and  C_8
REMARK    3  A    between atoms: C_11  and  C_13
REMARK    4  A    between atoms: C_13  and  N_14
REMARK    5  A    between atoms: C_17  and  C_20
REMARK    6  A    between atoms: C_20  and  C_22
REMARK    7  A    between atoms: C_20  and  O_29
REMARK                            x       y       z     vdW  Elec       q    Type
REMARK                         _______ _______ _______ _____ _____    ______ ____
ROOT
ATOM      1  N   UNL     1       7.263  -0.692   4.391  0.00  0.00    +0.386 N 
ATOM      2  C   UNL     1       7.890  -0.102   3.203  0.00  0.00    -0.078 C 
ATOM      3  C   UNL     1       9.315  -0.639   3.053  0.00  0.00    -0.012 C 
ATOM      4  C   UNL     1      10.127  -0.269   4.298  0.00  0.00    +0.019 C 
ATOM      5  C   UNL     1       9.423  -0.827   5.539  0.00  0.00    -0.012 C 
ATOM      6  C   UNL     1       7.994  -0.282   5.596  0.00  0.00    -0.078 C 
ATOM      7  H   UNL     1       7.280  -1.698   4.314  0.00  0.00    -0.081 HD
ENDROOT
BRANCH   1   8
ATOM      8  C   UNL     1       5.870  -0.234   4.487  0.00  0.00    +0.021 C 
BRANCH   8  12
ATOM      9  C   UNL     1       4.164  -0.959   1.377  0.00  0.00    +0.221 A 
ATOM     10  N   UNL     1       3.888  -2.008   2.100  0.00  0.00    -0.112 NA
ATOM     11  N   UNL     1       4.440  -1.887   3.256  0.00  0.00    -0.114 NA
ATOM     12  C   UNL     1       5.087  -0.757   3.310  0.00  0.00    +0.201 A 
ATOM     13  O   UNL     1       4.932  -0.147   2.123  0.00  0.00    -0.426 OA
BRANCH   9  14
ATOM     14  C   UNL     1       3.711  -0.707  -0.038  0.00  0.00    +0.132 C 
BRANCH  14  18
ATOM     15  C   UNL     1      -0.017   1.378   0.010  0.00  0.00    +0.000 A 
ATOM     16  C   UNL     1       1.171   2.086   0.002  0.00  0.00    +0.000 A 
ATOM     17  C   UNL     1       2.377   1.411  -0.013  0.00  0.00    +0.004 A 
ATOM     18  C   UNL     1       2.396   0.029  -0.020  0.00  0.00    -0.038 A 
ATOM     19  C   UNL     1       1.208  -0.679  -0.012  0.00  0.00    +0.004 A 
ATOM     20  C   UNL     1       0.002  -0.004   0.002  0.00  0.00    +0.000 A 
ENDBRANCH  14  18
ENDBRANCH   9  14
ENDBRANCH   8  12
ENDBRANCH   1   8
BRANCH   4  21
ATOM     21  C   UNL     1      11.529  -0.871   4.191  0.00  0.00    +0.147 C 
BRANCH  21  22
ATOM     22  C   UNL     1      12.327  -0.507   5.417  0.00  0.00    -0.019 A 
ATOM     23  C   UNL     1      12.232  -1.280   6.558  0.00  0.00    +0.007 A 
ATOM     24  C   UNL     1      12.963  -0.946   7.683  0.00  0.00    +0.020 A 
ATOM     25  C   UNL     1      13.791   0.162   7.665  0.00  0.00    +0.041 A 
ATOM     26  C   UNL     1      13.886   0.936   6.522  0.00  0.00    +0.020 A 
ATOM     27  C   UNL     1      13.158   0.598   5.396  0.00  0.00    +0.007 A 
ATOM     28 CL   UNL     1      14.710   0.583   9.077  0.00  0.00    -0.084 Cl
ENDBRANCH  21  22
BRANCH  21  29
ATOM     29  O   UNL     1      11.431  -2.293   4.093  0.00  0.00    -0.387 OA
ATOM     30  H   UNL     1      10.998  -2.711   4.850  0.00  0.00    +0.210 HD
ENDBRANCH  21  29
ENDBRANCH   4  21
TORSDOF 7
