REMARK  Name = ZINC58713928
REMARK  6 active torsions:
REMARK  status: ('A' for Active; 'I' for Inactive)
REMARK    1  A    between atoms: C_1  and  C_2
REMARK    2  A    between atoms: C_2  and  N_3
REMARK    3  A    between atoms: N_3  and  C_4
REMARK    4  A    between atoms: C_6  and  C_11
REMARK    5  A    between atoms: C_9  and  C_10
REMARK    6  A    between atoms: C_12  and  C_14
REMARK                            x       y       z     vdW  Elec       q    Type
REMARK                         _______ _______ _______ _____ _____    ______ ____
ROOT
ATOM      1  N   UNL     1      -1.444  -0.162   0.037  0.00  0.00    -0.267 N 
ATOM      2  C   UNL     1      -2.061  -0.600   1.152  0.00  0.00    +0.251 C 
ATOM      3  O   UNL     1      -1.435  -0.714   2.188  0.00  0.00    -0.270 OA
ENDROOT
BRANCH   1   4
ATOM      4  C   UNL     1      -2.186   0.077  -1.124  0.00  0.00    +0.040 A 
ATOM      5  C   UNL     1      -2.228  -0.878  -2.132  0.00  0.00    +0.027 A 
ATOM      6  C   UNL     1      -2.962  -0.639  -3.277  0.00  0.00    -0.049 A 
ATOM      7  C   UNL     1      -3.655   0.550  -3.421  0.00  0.00    +0.004 A 
ATOM      8  C   UNL     1      -3.614   1.503  -2.420  0.00  0.00    +0.005 A 
ATOM      9  C   UNL     1      -2.887   1.268  -1.270  0.00  0.00    -0.029 A 
ATOM     10  C   UNL     1      -2.849   2.304  -0.176  0.00  0.00    +0.045 C 
ATOM     11  C   UNL     1      -3.009  -1.674  -4.371  0.00  0.00    +0.044 C 
ENDBRANCH   1   4
BRANCH   2  12
ATOM     12  C   UNL     1      -3.498  -0.942   1.116  0.00  0.00    +0.038 A 
ATOM     13  C   UNL     1      -4.018  -1.675   0.048  0.00  0.00    +0.013 A 
ATOM     14  C   UNL     1      -5.360  -1.992   0.021  0.00  0.00    +0.002 A 
ATOM     15  C   UNL     1      -6.192  -1.584   1.048  0.00  0.00    +0.015 A 
ATOM     16  C   UNL     1      -5.684  -0.856   2.110  0.00  0.00    +0.019 A 
ATOM     17  C   UNL     1      -4.341  -0.537   2.153  0.00  0.00    +0.028 A 
ATOM     18 BR   UNL     1      -6.830  -0.303   3.509  0.00  0.00    -0.050 Br
ENDBRANCH   2  12
BRANCH   1  20
ATOM     19  C   UNL     1       0.300   1.464   0.582  0.00  0.00    +0.025 C 
ATOM     20  C   UNL     1       0.003   0.064   0.041  0.00  0.00    +0.110 C 
ENDBRANCH   1  20
TORSDOF 3
