REMARK  Name = ZINC12243947
REMARK  5 active torsions:
REMARK  status: ('A' for Active; 'I' for Inactive)
REMARK    1  A    between atoms: C_3  and  N_19
REMARK    2  A    between atoms: C_6  and  C_7
REMARK    3  A    between atoms: N_9  and  C_10
REMARK    4  A    between atoms: C_22  and  N_73
REMARK    5  A    between atoms: C_25  and  N_73
REMARK                            x       y       z     vdW  Elec       q    Type
REMARK                         _______ _______ _______ _____ _____    ______ ____
ROOT
ATOM      1  C   UNL     1       5.968  -0.851   5.812  0.00  0.00    +0.015 A 
ATOM      2  C   UNL     1       5.143  -0.138   4.974  0.00  0.00    +0.024 A 
ATOM      3  C   UNL     1       5.139  -0.402   3.607  0.00  0.00    +0.030 A 
ATOM      4  C   UNL     1       5.967  -1.391   3.084  0.00  0.00    +0.024 A 
ATOM      5  C   UNL     1       6.800  -2.104   3.916  0.00  0.00    +0.015 A 
ATOM      6  C   UNL     1       6.805  -1.842   5.289  0.00  0.00    +0.037 A 
ENDROOT
BRANCH   3   7
ATOM      7  N   UNL     1       4.303   0.321   2.763  0.00  0.00    -0.330 N 
ATOM      8  C   UNL     1       4.458  -0.115   1.369  0.00  0.00    +0.103 C 
ATOM      9  C   UNL     1       3.635   0.795   0.454  0.00  0.00    +0.003 C 
ATOM     10  C   UNL     1       2.163   0.731   0.869  0.00  0.00    -0.069 C 
ATOM     11  C   UNL     1       2.034   1.142   2.338  0.00  0.00    +0.003 C 
ATOM     12  C   UNL     1       2.904   0.223   3.198  0.00  0.00    +0.103 C 
BRANCH  10  13
ATOM     13  N   UNL     1       1.374   1.657   0.034  0.00  0.00    +0.383 N 
ATOM     14  H   UNL     1       1.943   2.484  -0.183  0.00  0.00    -0.085 HD
ATOM     15  H   UNL     1       0.534   1.944   0.549  0.00  0.00    -0.085 HD
BRANCH  13  16
ATOM     16  C   UNL     1       0.974   0.998  -1.224  0.00  0.00    -0.065 C 
ATOM     17  C   UNL     1      -0.317   0.208  -0.997  0.00  0.00    -0.024 C 
ATOM     18  C   UNL     1      -0.737  -0.468  -2.304  0.00  0.00    +0.005 C 
ATOM     19  C   UNL     1      -0.973   0.598  -3.376  0.00  0.00    -0.010 C 
ATOM     20  C   UNL     1      -2.079   1.549  -2.915  0.00  0.00    +0.007 C 
ATOM     21  C   UNL     1      -1.659   2.225  -1.608  0.00  0.00    -0.010 C 
ATOM     22  C   UNL     1      -1.423   1.159  -0.536  0.00  0.00    +0.005 C 
ATOM     23  C   UNL     1      -0.369   3.015  -1.834  0.00  0.00    +0.005 C 
ATOM     24  C   UNL     1       0.738   2.064  -2.296  0.00  0.00    -0.024 C 
ATOM     25  C   UNL     1       0.317   1.389  -3.603  0.00  0.00    +0.005 C 
ENDBRANCH  13  16
ENDBRANCH  10  13
ENDBRANCH   3   7
BRANCH   6  26
ATOM     26  C   UNL     1       7.691  -2.609   6.185  0.00  0.00    +0.245 C 
ATOM     27  O   UNL     1       7.695  -2.380   7.379  0.00  0.00    -0.270 OA
ATOM     28  N   UNL     1       8.497  -3.564   5.679  0.00  0.00    -0.300 N 
ATOM     29  H   UNL     1       8.495  -3.746   4.727  0.00  0.00    +0.150 HD
BRANCH  28  30
ATOM     30  C   UNL     1       9.377  -4.326   6.569  0.00  0.00    +0.159 C 
ATOM     31  C   UNL     1       9.861  -5.590   5.854  0.00  0.00    +0.032 C 
ATOM     32  C   UNL     1      10.059  -5.327   4.372  0.00  0.00    +0.004 C 
ATOM     33  C   UNL     1      11.192  -4.364   4.066  0.00  0.00    +0.019 C 
ATOM     34  C   UNL     1      10.862  -2.958   4.569  0.00  0.00    +0.104 C 
ATOM     35  N   UNL     1      11.272  -2.854   5.979  0.00  0.00    -0.314 N 
ATOM     36  C   UNL     1      10.582  -3.485   6.935  0.00  0.00    +0.233 C 
ATOM     37  O   UNL     1      10.923  -3.390   8.095  0.00  0.00    -0.274 OA
ATOM     38  H   UNL     1      12.047  -2.321   6.218  0.00  0.00    +0.149 HD
ENDBRANCH  28  30
ENDBRANCH   6  26
TORSDOF 5
