REMARK  Name = ZINC08432412
REMARK  12 active torsions:
REMARK  status: ('A' for Active; 'I' for Inactive)
REMARK    1  A    between atoms: C_1  and  C_2
REMARK    2  A    between atoms: C_2  and  C_23
REMARK    3  A    between atoms: C_4  and  N_11
REMARK    4  A    between atoms: C_7  and  C_9
REMARK    5  A    between atoms: C_7  and  C_10
REMARK    6  A    between atoms: C_12  and  C_14
REMARK    7  A    between atoms: C_14  and  O_15
REMARK    8  A    between atoms: O_15  and  C_16
REMARK    9  A    between atoms: C_23  and  N_24
REMARK   10  A    between atoms: C_25  and  C_27
REMARK   11  A    between atoms: C_27  and  O_28
REMARK   12  A    between atoms: O_28  and  C_29
REMARK                            x       y       z     vdW  Elec       q    Type
REMARK                         _______ _______ _______ _____ _____    ______ ____
ROOT
ATOM      1  C   UNL     1      -0.019   1.526   0.010  0.00  0.00    +0.013 C 
ATOM      2  C   UNL     1       0.002  -0.004   0.002  0.00  0.00    -0.014 C 
ATOM      3  C   UNL     1      -1.402  -0.567  -0.154  0.00  0.00    +0.030 C 
ATOM      4  C   UNL     1      -2.220  -0.514   1.124  0.00  0.00    +0.074 C 
ATOM      5  C   UNL     1      -1.489  -1.152   2.292  0.00  0.00    +0.028 C 
ATOM      6  C   UNL     1      -0.081  -0.618   2.497  0.00  0.00    -0.033 C 
ATOM      7  C   UNL     1       0.728  -0.551   1.216  0.00  0.00    +0.014 C 
ATOM      8  C   UNL     1       0.646  -1.597   3.452  0.00  0.00    +0.011 C 
ATOM      9  C   UNL     1      -0.113   0.742   3.201  0.00  0.00    +0.011 C 
ENDROOT
BRANCH   4  10
ATOM     10  N   UNL     1      -2.675   0.838   1.433  0.00  0.00    -0.310 N 
ATOM     11  C   UNL     1      -3.778   1.022   2.186  0.00  0.00    +0.251 C 
ATOM     12  O   UNL     1      -4.392   0.065   2.606  0.00  0.00    -0.272 OA
ATOM     13  H   UNL     1      -2.184   1.603   1.097  0.00  0.00    +0.149 HD
BRANCH  11  14
ATOM     14  C   UNL     1      -4.247   2.418   2.504  0.00  0.00    +0.324 C 
BRANCH  14  15
ATOM     15  O   UNL     1      -5.426   2.352   3.309  0.00  0.00    -0.483 OA
BRANCH  15  16
ATOM     16  C   UNL     1      -5.982   3.533   3.688  0.00  0.00    +0.121 A 
ATOM     17  C   UNL     1      -5.408   4.731   3.287  0.00  0.00    +0.047 A 
ATOM     18  C   UNL     1      -5.975   5.930   3.672  0.00  0.00    +0.023 A 
ATOM     19  C   UNL     1      -7.114   5.938   4.458  0.00  0.00    +0.041 A 
ATOM     20  C   UNL     1      -7.688   4.744   4.859  0.00  0.00    +0.023 A 
ATOM     21  C   UNL     1      -7.128   3.542   4.470  0.00  0.00    +0.047 A 
ATOM     22 CL   UNL     1      -7.824   7.446   4.941  0.00  0.00    -0.084 Cl
ENDBRANCH  15  16
ENDBRANCH  14  15
ENDBRANCH  11  14
ENDBRANCH   4  10
BRANCH   2  23
ATOM     23  C   UNL     1       0.808  -0.432  -1.250  0.00  0.00    +0.111 C 
BRANCH  23  24
ATOM     24  N   UNL     1       0.152   0.086  -2.453  0.00  0.00    -0.312 N 
ATOM     25  C   UNL     1       0.679  -0.163  -3.668  0.00  0.00    +0.251 C 
ATOM     26  O   UNL     1       1.696  -0.817  -3.766  0.00  0.00    -0.272 OA
ATOM     27  H   UNL     1      -0.661   0.610  -2.376  0.00  0.00    +0.149 HD
BRANCH  25  28
ATOM     28  C   UNL     1       0.005   0.370  -4.906  0.00  0.00    +0.324 C 
BRANCH  28  29
ATOM     29  O   UNL     1       0.748  -0.025  -6.061  0.00  0.00    -0.483 OA
BRANCH  29  30
ATOM     30  C   UNL     1       0.272   0.378  -7.269  0.00  0.00    +0.121 A 
ATOM     31  C   UNL     1      -0.884   1.142  -7.340  0.00  0.00    +0.047 A 
ATOM     32  C   UNL     1      -1.367   1.550  -8.568  0.00  0.00    +0.023 A 
ATOM     33  C   UNL     1      -0.699   1.197  -9.727  0.00  0.00    +0.041 A 
ATOM     34  C   UNL     1       0.454   0.434  -9.658  0.00  0.00    +0.023 A 
ATOM     35  C   UNL     1       0.944   0.030  -8.431  0.00  0.00    +0.047 A 
ATOM     36 CL   UNL     1      -1.307   1.710 -11.270  0.00  0.00    -0.084 Cl
ENDBRANCH  29  30
ENDBRANCH  28  29
ENDBRANCH  25  28
ENDBRANCH  23  24
ENDBRANCH   2  23
TORSDOF 9
