REMARK  Name = ZINC06659344
REMARK  6 active torsions:
REMARK  status: ('A' for Active; 'I' for Inactive)
REMARK    1  A    between atoms: C_1  and  C_2
REMARK    2  A    between atoms: C_2  and  C_3
REMARK    3  A    between atoms: C_3  and  C_23
REMARK    4  A    between atoms: C_11  and  C_14
REMARK    5  A    between atoms: C_19  and  O_20
REMARK    6  A    between atoms: C_23  and  C_24
REMARK                            x       y       z     vdW  Elec       q    Type
REMARK                         _______ _______ _______ _____ _____    ______ ____
ROOT
ATOM      1  C   UNL     1       1.391   1.337   3.914  0.00  0.00    +0.098 C 
ATOM      2  C   UNL     1       0.820   0.743   5.175  0.00  0.00    +0.005 A 
ATOM      3  C   UNL     1       1.193   1.251   6.405  0.00  0.00    +0.008 A 
ATOM      4  C   UNL     1       0.670   0.712   7.565  0.00  0.00    +0.000 A 
ATOM      5  C   UNL     1      -0.229  -0.337   7.503  0.00  0.00    +0.002 A 
ATOM      6  C   UNL     1      -0.606  -0.851   6.277  0.00  0.00    +0.023 A 
ATOM      7  C   UNL     1      -0.081  -0.312   5.112  0.00  0.00    +0.035 A 
ATOM      8  N   UNL     1      -0.452  -0.832   3.865  0.00  0.00    -0.315 N 
ATOM      9  C   UNL     1      -0.104  -0.056   2.664  0.00  0.00    +0.240 C 
ATOM     10  O   UNL     1       1.236   0.427   2.825  0.00  0.00    -0.344 OA
ATOM     11  H   UNL     1      -0.923  -1.676   3.796  0.00  0.00    +0.149 HD
ENDROOT
BRANCH   9  12
ATOM     12  C   UNL     1      -0.186  -0.939   1.446  0.00  0.00    +0.043 A 
ATOM     13  C   UNL     1      -0.271  -2.310   1.590  0.00  0.00    +0.031 A 
ATOM     14  C   UNL     1      -0.345  -3.122   0.472  0.00  0.00    +0.043 A 
ATOM     15  C   UNL     1      -0.336  -2.562  -0.793  0.00  0.00    +0.043 A 
ATOM     16  C   UNL     1      -0.256  -1.190  -0.942  0.00  0.00    +0.084 A 
ATOM     17  C   UNL     1      -0.175  -0.375   0.179  0.00  0.00    +0.142 A 
ATOM     18 CL   UNL     1      -0.250  -0.487  -2.530  0.00  0.00    -0.080 Cl
ATOM     19 CL   UNL     1      -0.452  -4.844   0.657  0.00  0.00    -0.083 Cl
BRANCH  17  20
ATOM     20  O   UNL     1      -0.092   0.975   0.035  0.00  0.00    -0.505 OA
ATOM     21  H   UNL     1       0.814   1.308  -0.024  0.00  0.00    +0.292 HD
ENDBRANCH  17  20
ENDBRANCH   9  12
BRANCH   1  23
ATOM     22  C   UNL     1       3.616   0.329   4.439  0.00  0.00    +0.007 C 
ATOM     23  C   UNL     1       2.878   1.631   4.121  0.00  0.00    +0.036 C 
ENDBRANCH   1  23
BRANCH   1  24
ATOM     24  C   UNL     1       0.657   2.641   3.594  0.00  0.00    +0.036 C 
ATOM     25  C   UNL     1       1.262   3.271   2.338  0.00  0.00    +0.007 C 
ENDBRANCH   1  24
TORSDOF 4
