REMARK  Name = ZINC44677878
REMARK  2 active torsions:
REMARK  status: ('A' for Active; 'I' for Inactive)
REMARK    1  A    between atoms: C_4  and  C_7
REMARK    2  A    between atoms: C_10  and  N_12
REMARK                            x       y       z     vdW  Elec       q    Type
REMARK                         _______ _______ _______ _____ _____    ______ ____
ROOT
ATOM      1  C   UNL     1       3.711  -0.707  -0.038  0.00  0.00    +0.044 C 
ATOM      2  C   UNL     1       3.671  -2.222  -0.251  0.00  0.00    +0.036 C 
ATOM      3  C   UNL     1       4.008  -1.652   1.129  0.00  0.00    +0.097 C 
ENDROOT
BRANCH   3   4
ATOM      4  N   UNL     1       5.398  -1.752   1.581  0.00  0.00    -0.323 N 
ATOM      5  C   UNL     1       6.477  -2.159   0.812  0.00  0.00    +0.106 A 
ATOM      6  C   UNL     1       7.563  -2.117   1.577  0.00  0.00    +0.102 A 
ATOM      7  N   UNL     1       7.181  -1.683   2.837  0.00  0.00    -0.340 N 
ATOM      8  C   UNL     1       5.852  -1.460   2.816  0.00  0.00    +0.158 A 
ATOM      9  S   UNL     1       4.904  -0.907   4.130  0.00  0.00    -0.013 S 
ATOM     10  H   UNL     1       7.767  -1.559   3.599  0.00  0.00    +0.167 HD
ENDBRANCH   3   4
BRANCH   1  14
ATOM     11  C   UNL     1      -0.017   1.378   0.010  0.00  0.00    +0.000 A 
ATOM     12  C   UNL     1       1.171   2.086   0.002  0.00  0.00    +0.000 A 
ATOM     13  C   UNL     1       2.377   1.411  -0.013  0.00  0.00    +0.004 A 
ATOM     14  C   UNL     1       2.396   0.029  -0.020  0.00  0.00    -0.042 A 
ATOM     15  C   UNL     1       1.208  -0.679  -0.012  0.00  0.00    +0.004 A 
ATOM     16  C   UNL     1       0.002  -0.004   0.002  0.00  0.00    +0.000 A 
ENDBRANCH   1  14
TORSDOF 2
