REMARK  Name = ZINC63237175
REMARK  7 active torsions:
REMARK  status: ('A' for Active; 'I' for Inactive)
REMARK    1  A    between atoms: C_7  and  C_10
REMARK    2  A    between atoms: C_10  and  C_11
REMARK    3  A    between atoms: C_11  and  C_12
REMARK    4  A    between atoms: C_12  and  O_14
REMARK    5  A    between atoms: O_14  and  C_15
REMARK    6  A    between atoms: C_15  and  C_16
REMARK    7  A    between atoms: C_21  and  C_24
REMARK                            x       y       z     vdW  Elec       q    Type
REMARK                         _______ _______ _______ _____ _____    ______ ____
ROOT
ATOM      1  C   UNL     1      -1.731  -6.522  -2.542  0.00  0.00    +0.328 C 
ENDROOT
BRANCH   1   2
ATOM      2  C   UNL     1      -2.009  -7.039  -3.930  0.00  0.00    +0.256 C 
ATOM      3  O   UNL     1      -1.492  -6.508  -4.890  0.00  0.00    -0.272 OA
ATOM      4  N   UNL     1      -2.833  -8.091  -4.105  0.00  0.00    -0.262 N 
ATOM      5  C   UNL     1      -3.090  -8.568  -5.385  0.00  0.00    +0.165 A 
ATOM      6  N   UNL     1      -3.861  -9.570  -5.764  0.00  0.00    -0.225 NA
ATOM      7  C   UNL     1      -3.992  -9.891  -7.042  0.00  0.00    +0.080 A 
ATOM      8  C   UNL     1      -3.316  -9.171  -7.987  0.00  0.00    +0.076 A 
ATOM      9  S   UNL     1      -2.469  -7.982  -6.955  0.00  0.00    -0.060 S 
ATOM     10  H   UNL     1      -3.247  -8.515  -3.337  0.00  0.00    +0.157 HD
BRANCH   7  11
ATOM     11  C   UNL     1      -4.864 -11.022  -7.444  0.00  0.00    +0.002 A 
ATOM     12  C   UNL     1      -4.994 -11.361  -8.790  0.00  0.00    +0.010 A 
ATOM     13  C   UNL     1      -5.806 -12.413  -9.158  0.00  0.00    +0.002 A 
ATOM     14  C   UNL     1      -6.492 -13.132  -8.195  0.00  0.00    +0.015 A 
ATOM     15  C   UNL     1      -6.367 -12.800  -6.857  0.00  0.00    +0.019 A 
ATOM     16  C   UNL     1      -5.551 -11.753  -6.477  0.00  0.00    +0.025 A 
ATOM     17 BR   UNL     1      -7.307 -13.788  -5.548  0.00  0.00    -0.050 Br
ENDBRANCH   7  11
ENDBRANCH   1   2
BRANCH   1  18
ATOM     18  O   UNL     1      -0.836  -5.411  -2.619  0.00  0.00    -0.455 OA
BRANCH  18  19
ATOM     19  C   UNL     1      -0.484  -4.830  -1.460  0.00  0.00    +0.308 C 
ATOM     20  O   UNL     1      -0.923  -5.252  -0.416  0.00  0.00    -0.251 OA
BRANCH  19  21
ATOM     21  C   UNL     1       0.457  -3.653  -1.462  0.00  0.00    +0.125 C 
BRANCH  21  22
ATOM     22  C   UNL     1       0.691  -3.186  -0.024  0.00  0.00    +0.044 C 
BRANCH  22  29
ATOM     23  C   UNL     1      -0.016   1.348   0.009  0.00  0.00    +0.001 A 
ATOM     24  C   UNL     1       1.166   2.101   0.002  0.00  0.00    +0.002 A 
ATOM     25  C   UNL     1       2.391   1.535  -0.013  0.00  0.00    +0.026 A 
ATOM     26  C   UNL     1       2.529   0.120  -0.022  0.00  0.00    +0.043 A 
ATOM     27  N   UNL     1       3.587  -0.654  -0.037  0.00  0.00    -0.380 N 
ATOM     28  C   UNL     1       3.143  -2.053  -0.041  0.00  0.00    +0.144 C 
ATOM     29  C   UNL     1       1.631  -2.008  -0.025  0.00  0.00    -0.041 C 
ATOM     30  C   UNL     1       1.295  -0.698  -0.014  0.00  0.00    -0.001 A 
ATOM     31  C   UNL     1       0.002  -0.004   0.002  0.00  0.00    +0.010 A 
ATOM     32  H   UNL     1       4.509  -0.353  -0.045  0.00  0.00    +0.160 HD
ENDBRANCH  22  29
ENDBRANCH  21  22
ENDBRANCH  19  21
ENDBRANCH  18  19
ENDBRANCH   1  18
TORSDOF 7
