REMARK  Name = ZINC66436954
REMARK  6 active torsions:
REMARK  status: ('A' for Active; 'I' for Inactive)
REMARK    1  A    between atoms: C_1  and  C_2
REMARK    2  A    between atoms: C_6  and  C_8
REMARK    3  A    between atoms: C_8  and  C_9
REMARK    4  A    between atoms: N_11  and  C_12
REMARK    5  A    between atoms: C_14  and  C_19
REMARK    6  A    between atoms: C_17  and  C_18
REMARK                            x       y       z     vdW  Elec       q    Type
REMARK                         _______ _______ _______ _____ _____    ______ ____
ROOT
ATOM      1  C   UNL     1       3.098  -3.853   4.487  0.00  0.00    +0.037 A 
ATOM      2  C   UNL     1       4.110  -3.356   3.681  0.00  0.00    +0.036 A 
ATOM      3  C   UNL     1       5.421  -3.792   3.867  0.00  0.00    +0.039 A 
ATOM      4  C   UNL     1       5.706  -4.726   4.865  0.00  0.00    +0.013 A 
ATOM      5  C   UNL     1       4.692  -5.214   5.663  0.00  0.00    +0.006 A 
ATOM      6  C   UNL     1       3.392  -4.778   5.481  0.00  0.00    -0.029 A 
ATOM      7  C   UNL     1       2.291  -5.312   6.361  0.00  0.00    +0.045 C 
ENDROOT
BRANCH   3   8
ATOM      8  C   UNL     1       6.506  -3.268   3.011  0.00  0.00    +0.247 C 
ATOM      9  O   UNL     1       6.287  -3.007   1.844  0.00  0.00    -0.270 OA
ATOM     10  N   UNL     1       7.738  -3.079   3.524  0.00  0.00    -0.296 N 
ATOM     11  C   UNL     1       7.968  -3.298   4.952  0.00  0.00    +0.119 C 
ATOM     12  C   UNL     1       8.912  -4.492   5.141  0.00  0.00    +0.088 C 
ATOM     13  S   UNL     1      10.455  -4.160   4.238  0.00  0.00    -0.158 S 
ATOM     14  C   UNL     1       9.877  -3.773   2.558  0.00  0.00    +0.088 C 
ATOM     15  C   UNL     1       8.831  -2.662   2.644  0.00  0.00    +0.119 C 
ENDBRANCH   3   8
BRANCH   1  18
ATOM     16  C   UNL     1       1.538  -2.219   3.739  0.00  0.00    +0.222 C 
ATOM     17  O   UNL     1       2.460  -1.474   3.479  0.00  0.00    -0.275 OA
ATOM     18  N   UNL     1       1.780  -3.418   4.304  0.00  0.00    -0.285 N 
ATOM     19  H   UNL     1       1.041  -3.981   4.584  0.00  0.00    +0.155 HD
BRANCH  16  20
ATOM     20  C   UNL     1       0.123  -1.804   3.429  0.00  0.00    +0.131 C 
BRANCH  20  26
ATOM     21  C   UNL     1      -0.061   3.175   3.909  0.00  0.00    +0.044 C 
ATOM     22  C   UNL     1       0.039   1.950   3.036  0.00  0.00    -0.050 A 
ATOM     23  C   UNL     1       0.134   2.086   1.663  0.00  0.00    +0.003 A 
ATOM     24  C   UNL     1       0.226   0.963   0.863  0.00  0.00    +0.001 A 
ATOM     25  C   UNL     1       0.222  -0.296   1.434  0.00  0.00    +0.004 A 
ATOM     26  C   UNL     1       0.128  -0.431   2.806  0.00  0.00    -0.038 A 
ATOM     27  C   UNL     1       0.040   0.692   3.608  0.00  0.00    +0.007 A 
ENDBRANCH  20  26
ENDBRANCH  16  20
ENDBRANCH   1  18
TORSDOF 4
