REMARK  Name = ZINC23365369
REMARK  8 active torsions:
REMARK  status: ('A' for Active; 'I' for Inactive)
REMARK    1  A    between atoms: C_1  and  C_2
REMARK    2  A    between atoms: C_2  and  C_4
REMARK    3  A    between atoms: C_2  and  S_16
REMARK    4  A    between atoms: S_16  and  C_17
REMARK    5  A    between atoms: C_20  and  C_27
REMARK    6  A    between atoms: N_21  and  C_22
REMARK    7  A    between atoms: C_22  and  C_23
REMARK    8  A    between atoms: C_23  and  C_24
REMARK                            x       y       z     vdW  Elec       q    Type
REMARK                         _______ _______ _______ _____ _____    ______ ____
ROOT
ATOM      1  S   UNL     1      -1.321  -4.912  -0.730  0.00  0.00    -0.075 S 
ENDROOT
BRANCH   1   2
ATOM      2  C   UNL     1      -0.906  -6.625  -0.758  0.00  0.00    +0.192 A 
ATOM      3  N   UNL     1       0.224  -7.160  -0.358  0.00  0.00    -0.122 NA
ATOM      4  N   UNL     1       0.184  -8.435  -0.519  0.00  0.00    -0.133 NA
ATOM      5  C   UNL     1      -0.960  -8.785  -1.034  0.00  0.00    +0.137 A 
ATOM      6  N   UNL     1      -1.696  -7.644  -1.205  0.00  0.00    -0.305 N 
BRANCH   5   7
ATOM      7  C   UNL     1      -1.393 -10.187  -1.378  0.00  0.00    +0.057 C 
ATOM      8  C   UNL     1      -0.496 -11.337  -0.917  0.00  0.00    +0.012 C 
ATOM      9  C   UNL     1      -0.552 -10.956  -2.398  0.00  0.00    +0.012 C 
ENDBRANCH   5   7
BRANCH   6  10
ATOM     10  C   UNL     1      -3.050  -7.539  -1.753  0.00  0.00    +0.135 C 
BRANCH  10  11
ATOM     11  C   UNL     1      -2.973  -7.346  -3.269  0.00  0.00    +0.117 C 
BRANCH  11  12
ATOM     12  C   UNL     1      -4.366  -7.238  -3.833  0.00  0.00    +0.212 C 
ATOM     13  O   UNL     1      -5.326  -7.308  -3.096  0.00  0.00    -0.276 OA
ATOM     14  N   UNL     1      -4.545  -7.063  -5.158  0.00  0.00    -0.329 N 
ATOM     15  H   UNL     1      -5.562  -6.984  -5.570  0.00  0.00    +0.145 HD
ATOM     16  H   UNL     1      -3.674  -7.000  -5.827  0.00  0.00    +0.145 HD
ENDBRANCH  11  12
ENDBRANCH  10  11
ENDBRANCH   6  10
ENDBRANCH   1   2
BRANCH   1  18
ATOM     17  C   UNL     1       0.365  -4.742   1.413  0.00  0.00    +0.027 C 
ATOM     18  C   UNL     1       0.198  -4.232  -0.020  0.00  0.00    +0.117 C 
BRANCH  18  19
ATOM     19  C   UNL     1       0.119  -2.727  -0.012  0.00  0.00    +0.124 A 
ATOM     20  N   UNL     1      -1.110  -2.147   0.003  0.00  0.00    -0.309 N 
ATOM     21  H   UNL     1      -2.014  -2.773   0.009  0.00  0.00    +0.170 HD
ATOM     22  C   UNL     1      -1.235  -0.799   0.011  0.00  0.00    +0.259 A 
ATOM     23  O   UNL     1      -2.329  -0.266   0.024  0.00  0.00    -0.267 OA
ATOM     24  C   UNL     1       0.002  -0.004   0.002  0.00  0.00    +0.065 A 
ATOM     25  C   UNL     1      -0.017   1.389   0.010  0.00  0.00    +0.015 A 
ATOM     26  C   UNL     1       1.173   2.084   0.002  0.00  0.00    +0.001 A 
ATOM     27  C   UNL     1       2.386   1.408  -0.014  0.00  0.00    +0.002 A 
ATOM     28  C   UNL     1       2.426   0.032  -0.021  0.00  0.00    +0.028 A 
ATOM     29  C   UNL     1       1.234  -0.695  -0.013  0.00  0.00    +0.078 A 
ATOM     30  N   UNL     1       1.227  -2.051  -0.020  0.00  0.00    -0.233 NA
ENDBRANCH  18  19
ENDBRANCH   1  18
TORSDOF 7
