REMARK  Name = ZINC44440968
REMARK  4 active torsions:
REMARK  status: ('A' for Active; 'I' for Inactive)
REMARK    1  A    between atoms: C_8  and  C_11
REMARK    2  A    between atoms: C_11  and  C_12
REMARK    3  A    between atoms: N_14  and  C_15
REMARK    4  A    between atoms: C_17  and  C_20
REMARK                            x       y       z     vdW  Elec       q    Type
REMARK                         _______ _______ _______ _____ _____    ______ ____
ROOT
ATOM      1  C   UNL     1      -0.183  -5.276   1.124  0.00  0.00    +0.225 C 
ATOM      2  O   UNL     1      -0.193  -4.332   1.886  0.00  0.00    -0.275 OA
ATOM      3  N   UNL     1      -1.022  -6.312   1.323  0.00  0.00    -0.254 N 
ATOM      4  H   UNL     1      -1.013  -7.066   0.714  0.00  0.00    +0.158 HD
ENDROOT
BRANCH   3   5
ATOM      5  C   UNL     1      -1.898  -6.298   2.399  0.00  0.00    +0.225 A 
ATOM      6  C   UNL     1      -2.784  -7.273   2.714  0.00  0.00    +0.098 A 
ATOM      7  C   UNL     1      -3.480  -6.869   3.877  0.00  0.00    +0.122 A 
ATOM      8  N   UNL     1      -3.017  -5.692   4.236  0.00  0.00    -0.076 NA
ATOM      9  O   UNL     1      -2.010  -5.319   3.313  0.00  0.00    -0.339 OA
BRANCH   7  10
ATOM     10  C   UNL     1      -4.540  -7.635   4.567  0.00  0.00    +0.041 A 
ATOM     11  C   UNL     1      -5.255  -7.303   5.686  0.00  0.00    +0.018 A 
ATOM     12  C   UNL     1      -6.204  -8.184   6.152  0.00  0.00    +0.008 A 
ATOM     13  C   UNL     1      -6.403  -9.353   5.489  0.00  0.00    +0.046 A 
ATOM     14  S   UNL     1      -5.227  -9.230   4.152  0.00  0.00    -0.095 S 
ENDBRANCH   7  10
ENDBRANCH   3   5
BRANCH   1  15
ATOM     15  C   UNL     1       0.769  -5.290  -0.045  0.00  0.00    +0.152 C 
BRANCH  15  23
ATOM     16  C   UNL     1      -0.016   1.344   0.009  0.00  0.00    +0.019 A 
ATOM     17  C   UNL     1       1.322   1.786  -0.001  0.00  0.00    +0.019 A 
ATOM     18  C   UNL     1       2.110   0.692  -0.014  0.00  0.00    +0.093 A 
ATOM     19  N   UNL     1       1.306  -0.413  -0.013  0.00  0.00    -0.302 N 
ATOM     20  C   UNL     1       0.002  -0.004   0.002  0.00  0.00    +0.093 A 
ATOM     21  C   UNL     1       1.743  -1.736  -0.024  0.00  0.00    +0.177 A 
ATOM     22  N   UNL     1       1.021  -2.835  -0.029  0.00  0.00    -0.227 NA
ATOM     23  C   UNL     1       1.589  -4.026  -0.040  0.00  0.00    +0.059 A 
ATOM     24  C   UNL     1       2.945  -4.061  -0.047  0.00  0.00    +0.072 A 
ATOM     25  S   UNL     1       3.323  -2.316  -0.044  0.00  0.00    -0.057 S 
ENDBRANCH  15  23
ENDBRANCH   1  15
TORSDOF 4
