REMARK  Name = ZINC42796241
REMARK  2 active torsions:
REMARK  status: ('A' for Active; 'I' for Inactive)
REMARK    1  A    between atoms: C_1  and  C_2
REMARK    2  A    between atoms: C_13  and  N_19
REMARK                            x       y       z     vdW  Elec       q    Type
REMARK                         _______ _______ _______ _____ _____    ______ ____
ROOT
ATOM      1  C   UNL     1       0.809   1.519   0.276  0.00  0.00    +0.033 C 
ATOM      2  C   UNL     1       0.609   0.004   0.187  0.00  0.00    +0.103 C 
ATOM      3  C   UNL     1       1.397  -0.552  -0.997  0.00  0.00    -0.017 A 
ATOM      4  C   UNL     1       1.015  -0.367  -2.325  0.00  0.00    +0.013 A 
ATOM      5  C   UNL     1       1.765  -0.886  -3.324  0.00  0.00    +0.046 A 
ATOM      6  S   UNL     1       3.082  -1.683  -2.419  0.00  0.00    -0.101 S 
ATOM      7  C   UNL     1       2.534  -1.269  -0.784  0.00  0.00    -0.004 A 
ATOM      8  C   UNL     1       3.164  -1.623   0.524  0.00  0.00    +0.061 C 
ATOM      9  C   UNL     1       2.570  -0.723   1.617  0.00  0.00    +0.112 C 
ATOM     10  N   UNL     1       1.116  -0.638   1.407  0.00  0.00    -0.306 N 
ATOM     11  C   UNL     1       0.235  -1.158   2.348  0.00  0.00    +0.154 A 
ATOM     12  C   UNL     1      -0.272  -2.443   2.182  0.00  0.00    +0.166 A 
ATOM     13  C   UNL     1      -1.148  -2.949   3.125  0.00  0.00    +0.039 A 
ATOM     14  C   UNL     1      -1.490  -2.150   4.208  0.00  0.00    +0.042 A 
ATOM     15  C   UNL     1      -0.949  -0.882   4.311  0.00  0.00    +0.131 A 
ATOM     16  N   UNL     1      -0.111  -0.427   3.397  0.00  0.00    -0.218 NA
ATOM     17 CL   UNL     1      -1.372   0.123   5.662  0.00  0.00    -0.062 Cl
ENDROOT
BRANCH  12  18
ATOM     18  N   UNL     1       0.121  -3.258   1.010  0.00  0.00    +0.060 N 
ATOM     19  O   UNL     1      -0.232  -4.411   0.931  0.00  0.00    -0.126 OA
ATOM     20  O   UNL     1       0.796  -2.770   0.134  0.00  0.00    -0.126 OA
ENDBRANCH  12  18
TORSDOF 1
