REMARK  Name = ZINC55554434
REMARK  3 active torsions:
REMARK  status: ('A' for Active; 'I' for Inactive)
REMARK    1  A    between atoms: C_6  and  O_7
REMARK    2  A    between atoms: O_7  and  C_8
REMARK    3  A    between atoms: C_8  and  C_9
REMARK                            x       y       z     vdW  Elec       q    Type
REMARK                         _______ _______ _______ _____ _____    ______ ____
ROOT
ATOM      1  C   UNL     1      -2.375   0.063   0.026  0.00  0.00    +0.324 C 
ENDROOT
BRANCH   1   2
ATOM      2  C   UNL     1      -3.558  -0.871   0.032  0.00  0.00    +0.256 C 
ATOM      3  O   UNL     1      -3.383  -2.071   0.024  0.00  0.00    -0.272 OA
ATOM      4  N   UNL     1      -4.810  -0.373   0.047  0.00  0.00    -0.262 N 
ATOM      5  C   UNL     1      -5.897  -1.231   0.053  0.00  0.00    +0.166 A 
ATOM      6  N   UNL     1      -5.910  -2.544   0.052  0.00  0.00    -0.225 NA
ATOM      7  C   UNL     1      -7.056  -3.259   0.059  0.00  0.00    +0.080 A 
ATOM      8  C   UNL     1      -7.207  -4.665   0.059  0.00  0.00    +0.030 A 
ATOM      9  C   UNL     1      -8.453  -5.235   0.066  0.00  0.00    +0.022 A 
ATOM     10  C   UNL     1      -9.605  -4.460   0.075  0.00  0.00    +0.042 A 
ATOM     11  C   UNL     1      -9.494  -3.081   0.076  0.00  0.00    +0.037 A 
ATOM     12  C   UNL     1      -8.250  -2.502   0.068  0.00  0.00    +0.042 A 
ATOM     13  S   UNL     1      -7.639  -0.834   0.072  0.00  0.00    -0.052 S 
ATOM     14 CL   UNL     1     -11.169  -5.214   0.084  0.00  0.00    -0.084 Cl
ATOM     15  H   UNL     1      -4.950   0.587   0.054  0.00  0.00    +0.157 HD
ENDBRANCH   1   2
BRANCH   1  16
ATOM     16  O   UNL     1      -1.166  -0.700   0.010  0.00  0.00    -0.483 OA
BRANCH  16  22
ATOM     17  C   UNL     1      -0.017   1.383   0.010  0.00  0.00    +0.047 A 
ATOM     18  C   UNL     1       1.169   2.090   0.002  0.00  0.00    +0.027 A 
ATOM     19  C   UNL     1       2.381   1.413  -0.013  0.00  0.00    +0.037 A 
ATOM     20  C   UNL     1       2.399   0.024  -0.020  0.00  0.00    -0.022 A 
ATOM     21  C   UNL     1       1.213  -0.682  -0.013  0.00  0.00    +0.051 A 
ATOM     22  C   UNL     1       0.002  -0.004   0.002  0.00  0.00    +0.122 A 
ATOM     23  C   UNL     1       3.715  -0.709  -0.035  0.00  0.00    +0.046 C 
ATOM     24  C   UNL     1       4.736   0.091  -0.845  0.00  0.00    +0.101 C 
ATOM     25  C   UNL     1       4.729   1.529  -0.402  0.00  0.00    +0.218 C 
ATOM     26  O   UNL     1       5.767   2.157  -0.389  0.00  0.00    -0.275 OA
ATOM     27  N   UNL     1       3.586   2.126  -0.020  0.00  0.00    -0.285 N 
ATOM     28  H   UNL     1       3.596   3.057   0.251  0.00  0.00    +0.155 HD
ENDBRANCH  16  22
ENDBRANCH   1  16
TORSDOF 3
