REMARK  Name = ZINC14406094
REMARK  9 active torsions:
REMARK  status: ('A' for Active; 'I' for Inactive)
REMARK    1  A    between atoms: C_1  and  C_2
REMARK    2  A    between atoms: C_2  and  C_3
REMARK    3  A    between atoms: C_3  and  C_4
REMARK    4  A    between atoms: C_4  and  C_5
REMARK    5  A    between atoms: C_5  and  C_7
REMARK    6  A    between atoms: C_5  and  N_20
REMARK    7  A    between atoms: N_9  and  C_10
REMARK    8  A    between atoms: C_13  and  C_16
REMARK    9  A    between atoms: N_18  and  C_19
REMARK                            x       y       z     vdW  Elec       q    Type
REMARK                         _______ _______ _______ _____ _____    ______ ____
ROOT
ATOM      1  C   UNL     1      -2.493  -0.089   0.169  0.00  0.00    +0.158 C 
ENDROOT
BRANCH   1   2
ATOM      2  N   UNL     1      -1.267  -0.874   0.333  0.00  0.00    -0.316 N 
ATOM      3  C   UNL     1      -0.042  -0.243   0.350  0.00  0.00    +0.150 C 
ATOM      4  N   UNL     1       0.033   1.044   0.222  0.00  0.00    -0.113 NA
ATOM      5  S   UNL     1       1.664   1.415   0.293  0.00  0.00    +0.101 S 
ATOM      6  O   UNL     1       2.058   1.882  -0.990  0.00  0.00    -0.146 OA
ATOM      7  O   UNL     1       1.891   2.139   1.495  0.00  0.00    -0.146 OA
ATOM      8  C   UNL     1       2.336  -0.211   0.507  0.00  0.00    +0.123 A 
ATOM      9  C   UNL     1       1.194  -1.023   0.514  0.00  0.00    +0.043 A 
ATOM     10  C   UNL     1       1.385  -2.404   0.669  0.00  0.00    +0.013 A 
ATOM     11  C   UNL     1       2.655  -2.919   0.808  0.00  0.00    +0.001 A 
ATOM     12  C   UNL     1       3.764  -2.091   0.797  0.00  0.00    +0.002 A 
ATOM     13  C   UNL     1       3.593  -0.722   0.644  0.00  0.00    +0.030 A 
ATOM     14  H   UNL     1      -1.318  -1.838   0.430  0.00  0.00    +0.148 HD
ENDBRANCH   1   2
BRANCH   1  15
ATOM     15  C   UNL     1      -3.573  -0.961  -0.418  0.00  0.00    +0.237 C 
ATOM     16  O   UNL     1      -3.342  -2.123  -0.674  0.00  0.00    -0.273 OA
ATOM     17  N   UNL     1      -4.796  -0.448  -0.658  0.00  0.00    -0.284 N 
ATOM     18  H   UNL     1      -5.005   0.458  -0.383  0.00  0.00    +0.155 HD
BRANCH  17  19
ATOM     19  C   UNL     1      -5.762  -1.222  -1.302  0.00  0.00    +0.033 A 
ATOM     20  C   UNL     1      -5.380  -2.139  -2.275  0.00  0.00    +0.024 A 
ATOM     21  C   UNL     1      -6.331  -2.908  -2.909  0.00  0.00    +0.015 A 
ATOM     22  C   UNL     1      -7.681  -2.757  -2.582  0.00  0.00    +0.037 A 
ATOM     23  C   UNL     1      -8.061  -1.831  -1.607  0.00  0.00    +0.015 A 
ATOM     24  C   UNL     1      -7.105  -1.069  -0.973  0.00  0.00    +0.024 A 
BRANCH  22  25
ATOM     25  C   UNL     1      -8.703  -3.576  -3.263  0.00  0.00    +0.244 C 
ATOM     26  O   UNL     1      -9.877  -3.444  -2.976  0.00  0.00    -0.270 OA
ATOM     27  N   UNL     1      -8.335  -4.469  -4.202  0.00  0.00    -0.314 N 
ATOM     28  C   UNL     1      -9.349  -5.282  -4.878  0.00  0.00    +0.128 C 
ATOM     29  H   UNL     1      -7.398  -4.574  -4.431  0.00  0.00    +0.149 HD
ENDBRANCH  22  25
ENDBRANCH  17  19
ENDBRANCH   1  15
BRANCH   1  30
ATOM     30  C   UNL     1      -2.948   0.438   1.532  0.00  0.00    +0.032 C 
BRANCH  30  31
ATOM     31  C   UNL     1      -1.907   1.421   2.072  0.00  0.00    +0.002 C 
BRANCH  31  33
ATOM     32  C   UNL     1      -1.320   2.930   3.974  0.00  0.00    +0.004 C 
ATOM     33  C   UNL     1      -2.361   1.947   3.434  0.00  0.00    -0.003 C 
ENDBRANCH  31  33
ENDBRANCH  30  31
ENDBRANCH   1  30
TORSDOF 7
