REMARK  Name = ZINC13124246
REMARK  4 active torsions:
REMARK  status: ('A' for Active; 'I' for Inactive)
REMARK    1  A    between atoms: C_7  and  N_12
REMARK    2  A    between atoms: C_8  and  O_11
REMARK    3  A    between atoms: N_13  and  C_14
REMARK    4  A    between atoms: C_17  and  C_22
REMARK                            x       y       z     vdW  Elec       q    Type
REMARK                         _______ _______ _______ _____ _____    ______ ____
ROOT
ATOM      1  N   UNL     1       0.762  -3.163  -0.022  0.00  0.00    -0.143 NA
ATOM      2  N   UNL     1       1.238  -4.361  -0.033  0.00  0.00    -0.143 NA
ENDROOT
BRANCH   1   9
ATOM      3  C   UNL     1      -0.017   1.374   0.010  0.00  0.00    +0.001 A 
ATOM      4  C   UNL     1       1.172   2.089   0.002  0.00  0.00    +0.002 A 
ATOM      5  C   UNL     1       2.385   1.435  -0.013  0.00  0.00    +0.026 A 
ATOM      6  C   UNL     1       2.425   0.045  -0.021  0.00  0.00    +0.051 A 
ATOM      7  C   UNL     1       1.222  -0.677  -0.013  0.00  0.00    +0.031 A 
ATOM      8  C   UNL     1       0.002  -0.004   0.002  0.00  0.00    +0.012 A 
ATOM      9  C   UNL     1       1.599  -2.103  -0.025  0.00  0.00    +0.154 A 
ATOM     10  C   UNL     1       2.983  -2.138  -0.039  0.00  0.00    +0.219 A 
ATOM     11  N   UNL     1       3.466  -0.866  -0.037  0.00  0.00    -0.324 N 
ATOM     12  H   UNL     1       4.407  -0.631  -0.045  0.00  0.00    +0.169 HD
BRANCH  10  13
ATOM     13  O   UNL     1       3.738  -3.261  -0.052  0.00  0.00    -0.492 OA
ATOM     14  H   UNL     1       3.948  -3.583  -0.939  0.00  0.00    +0.294 HD
ENDBRANCH  10  13
ENDBRANCH   1   9
BRANCH   2  15
ATOM     15  C   UNL     1       0.391  -5.434  -0.030  0.00  0.00    +0.162 A 
ATOM     16  C   UNL     1      -0.994  -5.236  -0.020  0.00  0.00    +0.189 A 
ATOM     17  C   UNL     1      -1.845  -6.326  -0.018  0.00  0.00    +0.175 A 
ATOM     18  C   UNL     1      -1.330  -7.612  -0.025  0.00  0.00    +0.131 A 
ATOM     19  C   UNL     1       0.040  -7.816  -0.034  0.00  0.00    +0.175 A 
ATOM     20  C   UNL     1       0.904  -6.735  -0.042  0.00  0.00    +0.189 A 
ATOM     21  F   UNL     1       2.240  -6.936  -0.056  0.00  0.00    -0.200 F 
ATOM     22  F   UNL     1       0.534  -9.073  -0.040  0.00  0.00    -0.202 F 
ATOM     23  F   UNL     1      -3.183  -6.136  -0.008  0.00  0.00    -0.202 F 
ATOM     24  F   UNL     1      -1.498  -3.982  -0.013  0.00  0.00    -0.200 F 
BRANCH  18  25
ATOM     25  C   UNL     1      -2.264  -8.794  -0.022  0.00  0.00    +0.423 C 
ATOM     26  F   UNL     1      -2.562  -9.156  -1.340  0.00  0.00    -0.166 F 
ATOM     27  F   UNL     1      -1.653  -9.870   0.631  0.00  0.00    -0.166 F 
ATOM     28  F   UNL     1      -3.445  -8.454   0.646  0.00  0.00    -0.166 F 
ENDBRANCH  18  25
ENDBRANCH   2  15
TORSDOF 4
