REMARK  Name = ZINC16121592
REMARK  7 active torsions:
REMARK  status: ('A' for Active; 'I' for Inactive)
REMARK    1  A    between atoms: C_1  and  C_2
REMARK    2  A    between atoms: C_5  and  N_8
REMARK    3  A    between atoms: N_13  and  C_14
REMARK    4  A    between atoms: C_14  and  C_15
REMARK    5  A    between atoms: C_15  and  O_16
REMARK    6  A    between atoms: O_16  and  C_17
REMARK    7  A    between atoms: N_19  and  C_20
REMARK                            x       y       z     vdW  Elec       q    Type
REMARK                         _______ _______ _______ _____ _____    ______ ____
ROOT
ATOM      1  N   UNL     1       0.076  -4.150   0.021  0.00  0.00    -0.270 N 
ATOM      2  C   UNL     1      -0.004  -4.954  -1.058  0.00  0.00    +0.143 C 
ATOM      3  S   UNL     1      -0.147  -4.385  -2.666  0.00  0.00    -0.018 S 
ATOM      4  N   UNL     1       0.043  -6.248  -0.726  0.00  0.00    -0.287 N 
ATOM      5  C   UNL     1       0.155  -6.430   0.567  0.00  0.00    +0.090 C 
ATOM      6  N   UNL     1       0.227  -7.617   1.222  0.00  0.00    -0.331 N 
ATOM      7  C   UNL     1       0.193  -5.049   1.177  0.00  0.00    +0.092 C 
ATOM      8  C   UNL     1       1.514  -4.818   1.902  0.00  0.00    +0.034 C 
ATOM      9  C   UNL     1       1.541  -3.401   2.479  0.00  0.00    +0.003 C 
ATOM     10  C   UNL     1       0.370  -3.224   3.448  0.00  0.00    +0.000 C 
ATOM     11  C   UNL     1      -0.949  -3.436   2.702  0.00  0.00    +0.003 C 
ATOM     12  C   UNL     1      -0.985  -4.854   2.126  0.00  0.00    +0.034 C 
ATOM     13  H   UNL     1       0.310  -7.633   2.189  0.00  0.00    +0.147 HD
ATOM     14  H   UNL     1      -0.002  -6.972  -1.371  0.00  0.00    +0.155 HD
ENDROOT
BRANCH   1  19
ATOM     15  C   UNL     1       0.003   1.522   0.082  0.00  0.00    +0.044 C 
ATOM     16  C   UNL     1       0.022   0.015   0.066  0.00  0.00    -0.050 A 
ATOM     17  C   UNL     1      -0.075  -0.663  -1.135  0.00  0.00    +0.005 A 
ATOM     18  C   UNL     1      -0.057  -2.044  -1.154  0.00  0.00    +0.024 A 
ATOM     19  C   UNL     1       0.059  -2.752   0.036  0.00  0.00    +0.036 A 
ATOM     20  C   UNL     1       0.156  -2.067   1.241  0.00  0.00    +0.024 A 
ATOM     21  C   UNL     1       0.143  -0.686   1.251  0.00  0.00    +0.005 A 
ENDBRANCH   1  19
BRANCH   6  22
ATOM     22  C   UNL     1       0.181  -8.873   0.470  0.00  0.00    +0.143 C 
BRANCH  22  23
ATOM     23  C   UNL     1       0.280 -10.052   1.441  0.00  0.00    +0.252 C 
BRANCH  23  24
ATOM     24  O   UNL     1      -0.873 -10.073   2.284  0.00  0.00    -0.449 OA
BRANCH  24  25
ATOM     25  C   UNL     1      -0.942 -11.057   3.201  0.00  0.00    +0.405 C 
ATOM     26  O   UNL     1      -0.046 -11.874   3.283  0.00  0.00    -0.226 OA
ATOM     27  N   UNL     1      -2.003 -11.134   4.028  0.00  0.00    -0.251 N 
ATOM     28  H   UNL     1      -2.754 -10.531   3.912  0.00  0.00    +0.158 HD
BRANCH  27  29
ATOM     29  C   UNL     1      -2.023 -12.086   5.054  0.00  0.00    +0.038 A 
ATOM     30  C   UNL     1      -3.219 -12.691   5.419  0.00  0.00    +0.025 A 
ATOM     31  C   UNL     1      -3.236 -13.630   6.432  0.00  0.00    +0.023 A 
ATOM     32  C   UNL     1      -2.063 -13.968   7.084  0.00  0.00    +0.059 A 
ATOM     33  C   UNL     1      -0.869 -13.367   6.722  0.00  0.00    +0.061 A 
ATOM     34  C   UNL     1      -0.846 -12.431   5.706  0.00  0.00    +0.044 A 
ATOM     35 CL   UNL     1       0.600 -13.794   7.542  0.00  0.00    -0.082 Cl
ATOM     36 CL   UNL     1      -2.089 -15.149   8.357  0.00  0.00    -0.082 Cl
ENDBRANCH  27  29
ENDBRANCH  24  25
ENDBRANCH  23  24
ENDBRANCH  22  23
ENDBRANCH   6  22
TORSDOF 6
