REMARK  Name = ZINC39677269
REMARK  8 active torsions:
REMARK  status: ('A' for Active; 'I' for Inactive)
REMARK    1  A    between atoms: C_1  and  C_2
REMARK    2  A    between atoms: C_6  and  C_7
REMARK    3  A    between atoms: C_7  and  N_8
REMARK    4  A    between atoms: C_9  and  C_11
REMARK    5  A    between atoms: C_22  and  C_24
REMARK    6  A    between atoms: C_24  and  C_25
REMARK    7  A    between atoms: C_25  and  C_26
REMARK    8  A    between atoms: C_26  and  C_27
REMARK                            x       y       z     vdW  Elec       q    Type
REMARK                         _______ _______ _______ _____ _____    ______ ____
ROOT
ATOM      1  C   UNL     1      -3.007   0.580   4.784  0.00  0.00    +0.100 C 
ATOM      2  C   UNL     1      -3.754  -0.770   4.703  0.00  0.00    +0.121 C 
ATOM      3  N   UNL     1      -3.618  -1.355   6.058  0.00  0.00    -0.300 N 
ATOM      4  C   UNL     1      -3.773  -0.201   6.975  0.00  0.00    +0.115 C 
ATOM      5  C   UNL     1      -3.025   0.952   6.277  0.00  0.00    -0.004 C 
ATOM      6  C   UNL     1      -3.770   2.267   6.484  0.00  0.00    -0.010 C 
ATOM      7  C   UNL     1      -3.723   2.646   7.968  0.00  0.00    -0.082 C 
ATOM      8  N   UNL     1      -2.326   2.778   8.397  0.00  0.00    +0.379 N 
ATOM      9  C   UNL     1      -1.642   1.485   8.281  0.00  0.00    -0.082 C 
ATOM     10  C   UNL     1      -1.600   1.057   6.812  0.00  0.00    -0.010 C 
ATOM     11  C   UNL     1      -3.403  -2.646   6.383  0.00  0.00    +0.216 C 
ATOM     12  O   UNL     1      -3.314  -2.971   7.548  0.00  0.00    -0.276 OA
ATOM     13  H   UNL     1      -1.859   3.457   7.815  0.00  0.00    -0.086 HD
ATOM     14  H   UNL     1      -2.299   3.087   9.357  0.00  0.00    -0.086 HD
ENDROOT
BRANCH   1  16
ATOM     15  N   UNL     1      -0.947   1.474   3.748  0.00  0.00    -0.310 N 
ATOM     16  C   UNL     1      -1.589   0.425   4.299  0.00  0.00    +0.218 C 
ATOM     17  O   UNL     1      -1.025  -0.643   4.404  0.00  0.00    -0.275 OA
ATOM     18  H   UNL     1      -1.398   2.329   3.663  0.00  0.00    +0.149 HD
BRANCH  15  19
ATOM     19  C   UNL     1       0.431   1.324   3.276  0.00  0.00    +0.147 C 
BRANCH  19  25
ATOM     20  C   UNL     1       1.850   3.577   4.808  0.00  0.00    +0.044 C 
ATOM     21  C   UNL     1       1.542   3.657   3.335  0.00  0.00    -0.039 A 
ATOM     22  C   UNL     1       1.902   4.773   2.603  0.00  0.00    +0.011 A 
ATOM     23  C   UNL     1       1.610   4.813   1.280  0.00  0.00    +0.046 A 
ATOM     24  S   UNL     1       0.802   3.241   1.032  0.00  0.00    -0.100 S 
ATOM     25  C   UNL     1       0.913   2.634   2.707  0.00  0.00    +0.010 A 
ENDBRANCH  19  25
ENDBRANCH  15  19
ENDBRANCH   1  16
BRANCH  11  26
ATOM     26  C   UNL     1      -3.272  -3.684   5.298  0.00  0.00    +0.096 C 
BRANCH  26  27
ATOM     27  C   UNL     1      -3.034  -5.056   5.932  0.00  0.00    +0.014 C 
BRANCH  27  28
ATOM     28  C   UNL     1      -2.901  -6.110   4.831  0.00  0.00    +0.035 C 
BRANCH  28  29
ATOM     29  C   UNL     1      -2.666  -7.462   5.456  0.00  0.00    -0.047 A 
ATOM     30  C   UNL     1      -1.377  -7.891   5.710  0.00  0.00    +0.003 A 
ATOM     31  C   UNL     1      -1.162  -9.131   6.282  0.00  0.00    +0.000 A 
ATOM     32  C   UNL     1      -2.236  -9.941   6.601  0.00  0.00    +0.000 A 
ATOM     33  C   UNL     1      -3.525  -9.511   6.348  0.00  0.00    +0.000 A 
ATOM     34  C   UNL     1      -3.740  -8.269   5.779  0.00  0.00    +0.003 A 
ENDBRANCH  28  29
ENDBRANCH  27  28
ENDBRANCH  26  27
ENDBRANCH  11  26
TORSDOF 7
