REMARK  Name = ZINC47884531
REMARK  7 active torsions:
REMARK  status: ('A' for Active; 'I' for Inactive)
REMARK    1  A    between atoms: C_1  and  C_2
REMARK    2  A    between atoms: C_2  and  C_4
REMARK    3  A    between atoms: C_2  and  S_17
REMARK    4  A    between atoms: N_6  and  C_7
REMARK    5  A    between atoms: C_9  and  N_14
REMARK    6  A    between atoms: S_17  and  C_18
REMARK    7  A    between atoms: C_21  and  O_24
REMARK                            x       y       z     vdW  Elec       q    Type
REMARK                         _______ _______ _______ _____ _____    ______ ____
ROOT
ATOM      1  C   UNL     1       0.394  -0.785   1.451  0.00  0.00    +0.230 C 
ATOM      2  O   UNL     1      -0.376  -1.194   2.294  0.00  0.00    -0.274 OA
ATOM      3  N   UNL     1       1.721  -0.812   1.680  0.00  0.00    -0.283 N 
ATOM      4  H   UNL     1       2.332  -0.412   1.041  0.00  0.00    +0.155 HD
ENDROOT
BRANCH   3   5
ATOM      5  C   UNL     1       2.219  -1.419   2.839  0.00  0.00    +0.054 A 
ATOM      6  C   UNL     1       1.446  -2.344   3.527  0.00  0.00    +0.057 A 
ATOM      7  C   UNL     1       1.940  -2.941   4.671  0.00  0.00    +0.128 A 
ATOM      8  C   UNL     1       3.203  -2.618   5.131  0.00  0.00    +0.034 A 
ATOM      9  C   UNL     1       3.976  -1.697   4.449  0.00  0.00    +0.024 A 
ATOM     10  C   UNL     1       3.490  -1.100   3.301  0.00  0.00    +0.062 A 
ATOM     11 CL   UNL     1       4.464   0.051   2.440  0.00  0.00    -0.082 Cl
BRANCH   7  12
ATOM     12  N   UNL     1       1.116  -3.927   5.405  0.00  0.00    +0.056 N 
ATOM     13  O   UNL     1       0.011  -4.210   5.003  0.00  0.00    -0.126 OA
ATOM     14  O   UNL     1       1.547  -4.450   6.406  0.00  0.00    -0.126 OA
ENDBRANCH   7  12
ENDBRANCH   3   5
BRANCH   1  16
ATOM     15  C   UNL     1      -0.150   1.285   0.197  0.00  0.00    +0.029 C 
ATOM     16  C   UNL     1      -0.135  -0.244   0.147  0.00  0.00    +0.134 C 
BRANCH  16  17
ATOM     17  S   UNL     1      -1.821  -0.857  -0.122  0.00  0.00    -0.113 S 
BRANCH  17  18
ATOM     18  C   UNL     1      -1.611  -2.589  -0.370  0.00  0.00    +0.009 A 
ATOM     19  C   UNL     1      -0.333  -3.132  -0.435  0.00  0.00    +0.018 A 
ATOM     20  C   UNL     1      -0.170  -4.489  -0.629  0.00  0.00    +0.046 A 
ATOM     21  C   UNL     1      -1.280  -5.311  -0.760  0.00  0.00    +0.117 A 
ATOM     22  C   UNL     1      -2.555  -4.770  -0.696  0.00  0.00    +0.046 A 
ATOM     23  C   UNL     1      -2.721  -3.414  -0.496  0.00  0.00    +0.018 A 
BRANCH  21  24
ATOM     24  O   UNL     1      -1.117  -6.647  -0.951  0.00  0.00    -0.507 OA
ATOM     25  H   UNL     1      -1.079  -7.160  -0.133  0.00  0.00    +0.292 HD
ENDBRANCH  21  24
ENDBRANCH  17  18
ENDBRANCH  16  17
ENDBRANCH   1  16
TORSDOF 6
