REMARK  Name = ZINC63885788
REMARK  5 active torsions:
REMARK  status: ('A' for Active; 'I' for Inactive)
REMARK    1  A    between atoms: C_7  and  C_25
REMARK    2  A    between atoms: C_9  and  N_12
REMARK    3  A    between atoms: C_13  and  C_15
REMARK    4  A    between atoms: C_15  and  S_16
REMARK    5  A    between atoms: S_16  and  C_17
REMARK                            x       y       z     vdW  Elec       q    Type
REMARK                         _______ _______ _______ _____ _____    ______ ____
ROOT
ATOM      1  N   UNL     1       1.752  -3.151   3.600  0.00  0.00    -0.302 N 
ATOM      2  C   UNL     1       2.463  -4.268   3.847  0.00  0.00    +0.224 C 
ATOM      3  O   UNL     1       3.363  -4.592   3.101  0.00  0.00    -0.275 OA
ATOM      4  H   UNL     1       1.032  -2.892   4.197  0.00  0.00    +0.150 HD
ENDROOT
BRANCH   1  12
ATOM      5  C   UNL     1      -0.019   1.524   0.010  0.00  0.00    +0.005 C 
ATOM      6  C   UNL     1       1.418   2.055  -0.000  0.00  0.00    +0.005 C 
ATOM      7  C   UNL     1       2.064   1.740   1.354  0.00  0.00    +0.042 C 
ATOM      8  C   UNL     1       1.800   0.300   1.694  0.00  0.00    -0.013 C 
ATOM      9  C   UNL     1       0.899  -0.499   1.135  0.00  0.00    -0.046 C 
ATOM     10  C   UNL     1       0.002  -0.004   0.002  0.00  0.00    +0.032 C 
ATOM     11  C   UNL     1       0.784  -1.903   1.672  0.00  0.00    +0.132 C 
ATOM     12  C   UNL     1       2.065  -2.326   2.430  0.00  0.00    +0.151 C 
ATOM     13  S   UNL     1       2.663  -0.654   2.920  0.00  0.00    -0.106 S 
BRANCH  11  14
ATOM     14  C   UNL     1      -0.390  -1.976   2.615  0.00  0.00    +0.220 C 
ATOM     15  O   UNL     1      -1.061  -0.988   2.825  0.00  0.00    -0.275 OA
ATOM     16  N   UNL     1      -0.695  -3.139   3.224  0.00  0.00    -0.329 N 
ATOM     17  H   UNL     1      -0.158  -3.929   3.055  0.00  0.00    +0.145 HD
ATOM     18  H   UNL     1      -1.450  -3.186   3.830  0.00  0.00    +0.145 HD
ENDBRANCH  11  14
ENDBRANCH   1  12
BRANCH   2  19
ATOM     19  C   UNL     1       2.140  -5.116   5.050  0.00  0.00    +0.172 C 
BRANCH  19  20
ATOM     20  S   UNL     1       3.264  -6.539   5.107  0.00  0.00    -0.079 S 
BRANCH  20  21
ATOM     21  C   UNL     1       2.765  -7.420   6.549  0.00  0.00    +0.182 C 
ATOM     22  N   UNL     1       1.757  -6.924   7.247  0.00  0.00    -0.155 NA
ATOM     23  C   UNL     1       1.306  -7.517   8.351  0.00  0.00    +0.245 C 
ATOM     24  O   UNL     1       0.378  -7.054   8.985  0.00  0.00    -0.273 OA
ATOM     25  C   UNL     1       2.000  -8.796   8.785  0.00  0.00    +0.169 C 
ATOM     26  C   UNL     1       3.143  -9.264   7.903  0.00  0.00    +0.104 C 
ATOM     27  N   UNL     1       3.431  -8.536   6.848  0.00  0.00    -0.213 NA
ATOM     28  N   UNL     1       3.834 -10.388   8.190  0.00  0.00    -0.346 N 
ATOM     29  H   UNL     1       3.603 -10.914   8.972  0.00  0.00    +0.143 HD
ATOM     30  H   UNL     1       4.561 -10.671   7.614  0.00  0.00    +0.143 HD
ENDBRANCH  20  21
ENDBRANCH  19  20
ENDBRANCH   2  19
TORSDOF 5
