REMARK  Name = ZINC27831713
REMARK  7 active torsions:
REMARK  status: ('A' for Active; 'I' for Inactive)
REMARK    1  A    between atoms: C_1  and  C_2
REMARK    2  A    between atoms: C_5  and  C_8
REMARK    3  A    between atoms: C_14  and  C_16
REMARK    4  A    between atoms: C_22  and  O_34
REMARK    5  A    between atoms: N_26  and  C_27
REMARK    6  A    between atoms: C_30  and  C_33
REMARK    7  A    between atoms: O_34  and  C_35
REMARK                            x       y       z     vdW  Elec       q    Type
REMARK                         _______ _______ _______ _____ _____    ______ ____
ROOT
ATOM      1  C   UNL     1      -3.455  -1.384   0.025  0.00  0.00    +0.098 A 
ATOM      2  C   UNL     1      -3.246  -2.757   0.016  0.00  0.00    +0.030 A 
ATOM      3  C   UNL     1      -4.430  -3.618   0.040  0.00  0.00    +0.022 A 
ATOM      4  C   UNL     1      -4.316  -4.989   0.307  0.00  0.00    +0.012 A 
ATOM      5  C   UNL     1      -5.435  -5.773   0.327  0.00  0.00    +0.004 A 
ATOM      6  C   UNL     1      -6.686  -5.225   0.084  0.00  0.00    +0.049 A 
ATOM      7  C   UNL     1      -6.823  -3.874  -0.185  0.00  0.00    +0.163 A 
ATOM      8  C   UNL     1      -5.695  -3.058  -0.211  0.00  0.00    +0.179 A 
ATOM      9  O   UNL     1      -5.807  -1.733  -0.476  0.00  0.00    -0.435 OA
ATOM     10  C   UNL     1      -4.856  -0.917   0.047  0.00  0.00    +0.212 A 
ATOM     11  N   UNL     1      -5.173   0.252   0.559  0.00  0.00    -0.325 N 
ATOM     12  H   UNL     1      -4.405   0.861   1.058  0.00  0.00    +0.169 HD
ENDROOT
BRANCH   1  19
ATOM     13  C   UNL     1       2.181   0.745  -0.064  0.00  0.00    +0.080 A 
ATOM     14  C   UNL     1       1.742   2.040  -0.058  0.00  0.00    +0.076 A 
ATOM     15  S   UNL     1      -0.029   1.789  -0.029  0.00  0.00    -0.060 S 
ATOM     16  C   UNL     1      -0.001   0.002  -0.029  0.00  0.00    +0.165 A 
ATOM     17  N   UNL     1       1.296  -0.241  -0.050  0.00  0.00    -0.225 NA
ATOM     18  N   UNL     1      -1.062  -0.893  -0.013  0.00  0.00    -0.261 N 
ATOM     19  C   UNL     1      -2.330  -0.435   0.007  0.00  0.00    +0.255 C 
ATOM     20  O   UNL     1      -2.544   0.763   0.011  0.00  0.00    -0.270 OA
ATOM     21  H   UNL     1      -0.869  -1.976  -0.016  0.00  0.00    +0.157 HD
BRANCH  13  26
ATOM     22  C   UNL     1       7.822  -0.411  -0.152  0.00  0.00    +0.044 C 
ATOM     23  C   UNL     1       6.345  -0.108  -0.129  0.00  0.00    -0.050 A 
ATOM     24  C   UNL     1       5.430  -1.145  -0.113  0.00  0.00    +0.004 A 
ATOM     25  C   UNL     1       4.077  -0.874  -0.092  0.00  0.00    +0.010 A 
ATOM     26  C   UNL     1       3.633   0.447  -0.087  0.00  0.00    +0.001 A 
ATOM     27  C   UNL     1       4.561   1.488  -0.108  0.00  0.00    +0.010 A 
ATOM     28  C   UNL     1       5.911   1.205  -0.123  0.00  0.00    +0.004 A 
ENDBRANCH  13  26
ENDBRANCH   1  19
BRANCH  11  29
ATOM     29  C   UNL     1      -6.458   0.711   0.472  0.00  0.00    +0.042 A 
ATOM     30  C   UNL     1      -6.883   1.398  -0.668  0.00  0.00    +0.026 A 
ATOM     31  C   UNL     1      -8.182   1.854  -0.751  0.00  0.00    +0.005 A 
ATOM     32  C   UNL     1      -9.061   1.641   0.295  0.00  0.00    -0.050 A 
ATOM     33  C   UNL     1      -8.647   0.966   1.430  0.00  0.00    +0.005 A 
ATOM     34  C   UNL     1      -7.352   0.500   1.525  0.00  0.00    +0.026 A 
ATOM     35  C   UNL     1     -10.478   2.147   0.199  0.00  0.00    +0.044 C 
ENDBRANCH  11  29
BRANCH   7  36
ATOM     36  O   UNL     1      -8.053  -3.346  -0.423  0.00  0.00    -0.491 OA
ATOM     37  C   UNL     1      -9.164  -4.245  -0.380  0.00  0.00    +0.277 C 
ENDBRANCH   7  36
TORSDOF 4
