REMARK  Name = ZINC09177046
REMARK  7 active torsions:
REMARK  status: ('A' for Active; 'I' for Inactive)
REMARK    1  A    between atoms: C_1  and  C_2
REMARK    2  A    between atoms: C_2  and  O_3
REMARK    3  A    between atoms: O_3  and  C_4
REMARK    4  A    between atoms: C_7  and  C_9
REMARK    5  A    between atoms: C_13  and  N_14
REMARK    6  A    between atoms: C_15  and  C_17
REMARK    7  A    between atoms: C_27  and  C_31
REMARK                            x       y       z     vdW  Elec       q    Type
REMARK                         _______ _______ _______ _____ _____    ______ ____
ROOT
ATOM      1  C   UNL     1       1.258  -4.096  -0.085  0.00  0.00    +0.069 A 
ATOM      2  C   UNL     1       0.941  -2.684   0.053  0.00  0.00    -0.023 A 
ATOM      3  C   UNL     1       1.008  -1.966  -1.089  0.00  0.00    -0.004 A 
ATOM      4  S   UNL     1       1.484  -3.133  -2.332  0.00  0.00    -0.077 S 
ATOM      5  C   UNL     1       1.592  -4.558  -1.352  0.00  0.00    +0.085 A 
ATOM      6  C   UNL     1       0.736  -0.502  -1.252  0.00  0.00    +0.046 C 
ATOM      7  C   UNL     1       0.002  -0.004   0.002  0.00  0.00    -0.009 C 
ATOM      8  C   UNL     1       0.742  -0.514   1.242  0.00  0.00    +0.008 C 
ATOM      9  C   UNL     1       0.557  -2.027   1.373  0.00  0.00    +0.037 C 
ATOM     10  C   UNL     1      -0.019   1.526   0.010  0.00  0.00    +0.008 C 
ENDROOT
BRANCH   1  14
ATOM     11  C   UNL     1       2.307  -6.011   2.873  0.00  0.00    +0.407 C 
ATOM     12  O   UNL     1       1.281  -6.594   3.160  0.00  0.00    -0.226 OA
ATOM     13  N   UNL     1       2.336  -5.181   1.811  0.00  0.00    -0.217 N 
ATOM     14  C   UNL     1       1.227  -4.998   1.069  0.00  0.00    +0.255 C 
ATOM     15  O   UNL     1       0.199  -5.582   1.357  0.00  0.00    -0.270 OA
ATOM     16  H   UNL     1       3.156  -4.716   1.582  0.00  0.00    +0.161 HD
BRANCH  11  17
ATOM     17  O   UNL     1       3.416  -6.194   3.614  0.00  0.00    -0.450 OA
BRANCH  17  19
ATOM     18  C   UNL     1       4.661  -7.182   5.460  0.00  0.00    +0.048 C 
ATOM     19  C   UNL     1       3.311  -7.102   4.743  0.00  0.00    +0.230 C 
ENDBRANCH  17  19
ENDBRANCH  11  17
ENDBRANCH   1  14
BRANCH   5  20
ATOM     20  N   UNL     1       1.931  -5.844  -1.737  0.00  0.00    -0.275 N 
ATOM     21  C   UNL     1       2.228  -6.105  -3.026  0.00  0.00    +0.249 C 
ATOM     22  O   UNL     1       2.200  -5.211  -3.849  0.00  0.00    -0.270 OA
ATOM     23  H   UNL     1       1.953  -6.557  -1.080  0.00  0.00    +0.156 HD
BRANCH  21  24
ATOM     24  C   UNL     1       2.589  -7.475  -3.437  0.00  0.00    +0.041 A 
ATOM     25  C   UNL     1       2.622  -8.504  -2.492  0.00  0.00    +0.017 A 
ATOM     26  C   UNL     1       2.958  -9.783  -2.877  0.00  0.00    +0.050 A 
ATOM     27  C   UNL     1       3.265 -10.055  -4.204  0.00  0.00    +0.166 A 
ATOM     28  C   UNL     1       3.234  -9.032  -5.152  0.00  0.00    +0.167 A 
ATOM     29  C   UNL     1       2.892  -7.749  -4.773  0.00  0.00    +0.062 A 
ATOM     30  O   UNL     1       3.572  -9.555  -6.368  0.00  0.00    -0.453 OA
ATOM     31  C   UNL     1       3.410 -10.979  -6.231  0.00  0.00    +0.466 C 
ATOM     32  O   UNL     1       3.622 -11.215  -4.827  0.00  0.00    -0.453 OA
ENDBRANCH  21  24
ENDBRANCH   5  20
TORSDOF 5
