REMARK  Name = ZINC13363527
REMARK  8 active torsions:
REMARK  status: ('A' for Active; 'I' for Inactive)
REMARK    1  A    between atoms: C_1  and  C_2
REMARK    2  A    between atoms: C_5  and  C_9
REMARK    3  A    between atoms: C_7  and  C_8
REMARK    4  A    between atoms: C_12  and  S_14
REMARK    5  A    between atoms: S_14  and  C_15
REMARK    6  A    between atoms: C_15  and  C_16
REMARK    7  A    between atoms: C_22  and  C_30
REMARK    8  A    between atoms: C_23  and  C_27
REMARK                            x       y       z     vdW  Elec       q    Type
REMARK                         _______ _______ _______ _____ _____    ______ ____
ROOT
ATOM      1  C   UNL     1       0.123  -9.121  -0.435  0.00  0.00    +0.153 C 
ENDROOT
BRANCH   1   2
ATOM      2  C   UNL     1       0.141 -10.444  -1.156  0.00  0.00    +0.121 A 
ATOM      3  N   UNL     1       0.149 -11.589  -0.430  0.00  0.00    -0.310 N 
ATOM      4  H   UNL     1       0.145 -11.537   0.539  0.00  0.00    +0.170 HD
ATOM      5  C   UNL     1       0.164 -12.797  -1.026  0.00  0.00    +0.260 A 
ATOM      6  O   UNL     1       0.171 -13.820  -0.364  0.00  0.00    -0.267 OA
ATOM      7  C   UNL     1       0.171 -12.850  -2.506  0.00  0.00    +0.076 A 
ATOM      8  C   UNL     1       0.185 -13.963  -3.346  0.00  0.00    -0.015 A 
ATOM      9  C   UNL     1       0.189 -13.784  -4.711  0.00  0.00    +0.106 A 
ATOM     10  S   UNL     1       0.172 -12.007  -4.874  0.00  0.00    -0.062 S 
ATOM     11  C   UNL     1       0.161 -11.590  -3.148  0.00  0.00    +0.116 A 
ATOM     12  N   UNL     1       0.141 -10.455  -2.462  0.00  0.00    -0.226 NA
ATOM     13  C   UNL     1       0.197 -15.353  -2.764  0.00  0.00    +0.046 C 
BRANCH   9  14
ATOM     14  C   UNL     1       0.203 -14.767  -5.734  0.00  0.00    +0.393 C 
ATOM     15  O   UNL     1       0.214 -15.956  -5.440  0.00  0.00    -0.240 OA
ATOM     16  O   UNL     1       0.204 -14.426  -6.911  0.00  0.00    -0.240 OA
ENDBRANCH   9  14
ENDBRANCH   1   2
BRANCH   1  17
ATOM     17  S   UNL     1       0.107  -7.772  -1.648  0.00  0.00    -0.058 S 
BRANCH  17  21
ATOM     18  C   UNL     1       0.061  -4.250  -0.021  0.00  0.00    +0.249 A 
ATOM     19  N   UNL     1       0.071  -5.032   1.031  0.00  0.00    -0.106 NA
ATOM     20  N   UNL     1       0.087  -6.261   0.650  0.00  0.00    -0.101 NA
ATOM     21  C   UNL     1       0.087  -6.312  -0.662  0.00  0.00    +0.278 A 
ATOM     22  O   UNL     1       0.066  -5.045  -1.115  0.00  0.00    -0.411 OA
BRANCH  18  27
ATOM     23  C   UNL     1      -0.018   1.503   0.010  0.00  0.00    +0.044 C 
ATOM     24  C   UNL     1       0.002  -0.004   0.002  0.00  0.00    -0.047 A 
ATOM     25  C   UNL     1       0.006  -0.686  -1.202  0.00  0.00    +0.004 A 
ATOM     26  C   UNL     1       0.025  -2.065  -1.217  0.00  0.00    +0.013 A 
ATOM     27  C   UNL     1       0.041  -2.773  -0.013  0.00  0.00    +0.039 A 
ATOM     28  C   UNL     1       0.037  -2.079   1.198  0.00  0.00    +0.016 A 
ATOM     29  C   UNL     1       0.023  -0.699   1.198  0.00  0.00    -0.047 A 
ATOM     30  C   UNL     1       0.025   0.052   2.504  0.00  0.00    +0.044 C 
ENDBRANCH  18  27
ENDBRANCH  17  21
ENDBRANCH   1  17
TORSDOF 5
