REMARK  Name = ZINC20190614
REMARK  15 active torsions:
REMARK  status: ('A' for Active; 'I' for Inactive)
REMARK    1  A    between atoms: C_1  and  C_2
REMARK    2  A    between atoms: C_2  and  S_3
REMARK    3  A    between atoms: S_3  and  C_4
REMARK    4  A    between atoms: C_4  and  C_5
REMARK    5  A    between atoms: C_5  and  O_6
REMARK    6  A    between atoms: O_6  and  C_7
REMARK    7  A    between atoms: C_7  and  C_9
REMARK    8  A    between atoms: C_10  and  C_36
REMARK    9  A    between atoms: C_14  and  C_16
REMARK   10  A    between atoms: C_19  and  O_22
REMARK   11  A    between atoms: O_22  and  C_23
REMARK   12  A    between atoms: C_26  and  C_32
REMARK   13  A    between atoms: C_28  and  C_31
REMARK   14  A    between atoms: C_32  and  O_34
REMARK   15  A    between atoms: O_34  and  C_35
REMARK                            x       y       z     vdW  Elec       q    Type
REMARK                         _______ _______ _______ _____ _____    ______ ____
ROOT
ATOM      1  C   UNL     1      -4.718  -1.887  -3.453  0.00  0.00    +0.065 C 
ATOM      2  C   UNL     1      -4.838  -3.112  -2.913  0.00  0.00    +0.016 C 
ATOM      3  N   UNL     1      -3.963  -3.533  -1.950  0.00  0.00    -0.321 N 
ATOM      4  C   UNL     1      -3.220  -2.629  -1.240  0.00  0.00    +0.016 C 
ATOM      5  C   UNL     1      -3.027  -1.379  -1.712  0.00  0.00    +0.025 C 
ATOM      6  C   UNL     1      -3.623  -0.953  -3.030  0.00  0.00    +0.092 C 
ATOM      7  C   UNL     1      -2.265  -0.442  -0.993  0.00  0.00    +0.176 C 
ATOM      8  O   UNL     1      -2.127   0.681  -1.437  0.00  0.00    -0.291 OA
ATOM      9  C   UNL     1      -1.618  -0.803   0.317  0.00  0.00    +0.171 C 
ATOM     10  C   UNL     1      -1.320  -2.306   0.326  0.00  0.00    +0.013 C 
ATOM     11  C   UNL     1      -2.627  -3.062   0.078  0.00  0.00    +0.055 C 
ATOM     12  C   UNL     1      -0.744  -2.707   1.686  0.00  0.00    +0.009 C 
ATOM     13  C   UNL     1      -5.945  -4.027  -3.370  0.00  0.00    +0.061 C 
ATOM     14  H   UNL     1      -3.851  -4.607  -1.741  0.00  0.00    +0.152 HD
ENDROOT
BRANCH   6  15
ATOM     15  C   UNL     1      -2.544  -0.947  -4.082  0.00  0.00    -0.035 A 
ATOM     16  C   UNL     1      -1.859  -2.111  -4.374  0.00  0.00    +0.008 A 
ATOM     17  C   UNL     1      -0.873  -2.109  -5.342  0.00  0.00    +0.046 A 
ATOM     18  C   UNL     1      -0.563  -0.935  -6.012  0.00  0.00    +0.120 A 
ATOM     19  C   UNL     1      -1.248   0.234  -5.713  0.00  0.00    +0.046 A 
ATOM     20  C   UNL     1      -2.237   0.225  -4.748  0.00  0.00    +0.008 A 
BRANCH  18  21
ATOM     21  O   UNL     1       0.410  -0.929  -6.961  0.00  0.00    -0.495 OA
ATOM     22  C   UNL     1       1.074  -2.169  -7.217  0.00  0.00    +0.277 C 
ENDBRANCH  18  21
ENDBRANCH   6  15
BRANCH   1  23
ATOM     23  C   UNL     1      -5.642  -1.472  -4.441  0.00  0.00    +0.338 C 
ATOM     24  O   UNL     1      -6.508  -0.664  -4.162  0.00  0.00    -0.245 OA
BRANCH  23  25
ATOM     25  O   UNL     1      -5.562  -1.971  -5.692  0.00  0.00    -0.460 OA
BRANCH  25  26
ATOM     26  C   UNL     1      -6.527  -1.507  -6.638  0.00  0.00    +0.243 C 
BRANCH  26  27
ATOM     27  C   UNL     1      -6.279  -2.179  -7.990  0.00  0.00    +0.110 C 
BRANCH  27  28
ATOM     28  S   UNL     1      -7.504  -1.590  -9.192  0.00  0.00    -0.158 S 
BRANCH  28  30
ATOM     29  C   UNL     1      -8.047  -2.059 -11.831  0.00  0.00    +0.015 C 
ATOM     30  C   UNL     1      -7.078  -2.469 -10.720  0.00  0.00    +0.066 C 
ENDBRANCH  28  30
ENDBRANCH  27  28
ENDBRANCH  26  27
ENDBRANCH  25  26
ENDBRANCH  23  25
ENDBRANCH   1  23
BRANCH   9  31
ATOM     31  C   UNL     1      -0.333  -0.033   0.474  0.00  0.00    +0.318 C 
ATOM     32  O   UNL     1       0.716  -0.623   0.583  0.00  0.00    -0.250 OA
BRANCH  31  33
ATOM     33  O   UNL     1      -0.353   1.309   0.493  0.00  0.00    -0.467 OA
ATOM     34  C   UNL     1       0.923   1.986   0.648  0.00  0.00    +0.280 C 
ENDBRANCH  31  33
ENDBRANCH   9  31
TORSDOF 10
