REMARK  Name = ZINC39447670
REMARK  5 active torsions:
REMARK  status: ('A' for Active; 'I' for Inactive)
REMARK    1  A    between atoms: C_1  and  C_2
REMARK    2  A    between atoms: C_8  and  C_10
REMARK    3  A    between atoms: N_12  and  C_13
REMARK    4  A    between atoms: C_13  and  C_14
REMARK    5  A    between atoms: C_19  and  N_20
REMARK                            x       y       z     vdW  Elec       q    Type
REMARK                         _______ _______ _______ _____ _____    ______ ____
ROOT
ATOM      1  C   UNL     1      -1.171  -0.449   4.425  0.00  0.00    +0.143 C 
ENDROOT
BRANCH   1   2
ATOM      2  C   UNL     1      -1.182  -0.897   5.864  0.00  0.00    +0.012 A 
ATOM      3  C   UNL     1      -1.984  -1.953   6.263  0.00  0.00    +0.010 A 
ATOM      4  C   UNL     1      -1.963  -2.332   7.598  0.00  0.00    +0.020 A 
ATOM      5  C   UNL     1      -1.149  -1.651   8.482  0.00  0.00    +0.113 A 
ATOM      6  N   UNL     1      -0.396  -0.649   8.072  0.00  0.00    -0.237 NA
ATOM      7  C   UNL     1      -0.384  -0.261   6.806  0.00  0.00    +0.144 A 
BRANCH   7   8
ATOM      8  N   UNL     1       0.435   0.801   6.416  0.00  0.00    -0.283 N 
ATOM      9  C   UNL     1       0.034   1.940   5.782  0.00  0.00    +0.206 A 
ATOM     10  N   UNL     1       1.057   2.716   5.569  0.00  0.00    -0.235 NA
ATOM     11  C   UNL     1       2.184   2.130   6.051  0.00  0.00    +0.089 A 
ATOM     12  C   UNL     1       1.802   0.897   6.606  0.00  0.00    +0.075 A 
ATOM     13  C   UNL     1       2.755   0.073   7.184  0.00  0.00    +0.028 A 
ATOM     14  C   UNL     1       4.076   0.468   7.216  0.00  0.00    +0.002 A 
ATOM     15  C   UNL     1       4.458   1.686   6.672  0.00  0.00    +0.002 A 
ATOM     16  C   UNL     1       3.527   2.514   6.087  0.00  0.00    +0.030 A 
ENDBRANCH   7   8
ENDBRANCH   1   2
BRANCH   1  19
ATOM     17  C   UNL     1       0.304  -0.597   2.491  0.00  0.00    +0.229 C 
ATOM     18  O   UNL     1      -0.517   0.028   1.854  0.00  0.00    -0.275 OA
ATOM     19  N   UNL     1       0.073  -0.887   3.787  0.00  0.00    -0.310 N 
ATOM     20  H   UNL     1       0.730  -1.387   4.297  0.00  0.00    +0.149 HD
BRANCH  17  28
ATOM     21  C   UNL     1       2.029   1.467   1.419  0.00  0.00    +0.040 C 
ATOM     22  C   UNL     1       2.078   0.041   0.933  0.00  0.00    -0.050 C 
ATOM     23  C   UNL     1       2.562  -0.206  -0.274  0.00  0.00    +0.023 C 
ATOM     24  C   UNL     1       2.612  -1.596  -0.772  0.00  0.00    +0.026 C 
ATOM     25  N   UNL     1       1.836  -2.567  -0.128  0.00  0.00    -0.285 N 
ATOM     26  C   UNL     1       1.320  -2.322   1.087  0.00  0.00    +0.233 C 
ATOM     27  O   UNL     1       0.618  -3.166   1.602  0.00  0.00    -0.274 OA
ATOM     28  C   UNL     1       1.583  -1.049   1.834  0.00  0.00    +0.186 C 
ATOM     29  C   UNL     1       3.381  -1.919  -1.815  0.00  0.00    +0.033 C 
ATOM     30  H   UNL     1       1.670  -3.419  -0.560  0.00  0.00    +0.155 HD
ENDBRANCH  17  28
ENDBRANCH   1  19
TORSDOF 4
