REMARK  Name = ZINC30513795
REMARK  8 active torsions:
REMARK  status: ('A' for Active; 'I' for Inactive)
REMARK    1  A    between atoms: C_1  and  C_2
REMARK    2  A    between atoms: C_2  and  C_4
REMARK    3  A    between atoms: C_2  and  N_16
REMARK    4  A    between atoms: N_6  and  C_7
REMARK    5  A    between atoms: C_11  and  N_13
REMARK    6  A    between atoms: N_16  and  C_17
REMARK    7  A    between atoms: C_17  and  C_18
REMARK    8  A    between atoms: C_18  and  N_23
REMARK                            x       y       z     vdW  Elec       q    Type
REMARK                         _______ _______ _______ _____ _____    ______ ____
ROOT
ATOM      1  C   UNL     1       0.287   7.828   1.507  0.00  0.00    -0.004 C 
ATOM      2  C   UNL     1       1.059   7.432   0.247  0.00  0.00    +0.013 C 
ENDROOT
BRANCH   2   3
ATOM      3  C   UNL     1       1.085   5.931   0.125  0.00  0.00    +0.203 C 
ATOM      4  O   UNL     1       2.146   5.342   0.112  0.00  0.00    -0.277 OA
ATOM      5  N   UNL     1      -0.069   5.242   0.030  0.00  0.00    -0.287 N 
ATOM      6  H   UNL     1      -1.026   5.779  -0.046  0.00  0.00    +0.155 HD
BRANCH   5   7
ATOM      7  C   UNL     1      -0.051   3.842   0.028  0.00  0.00    +0.035 A 
ATOM      8  C   UNL     1       0.907   3.158   0.766  0.00  0.00    +0.023 A 
ATOM      9  C   UNL     1       0.922   1.777   0.762  0.00  0.00    +0.004 A 
ATOM     10  C   UNL     1      -0.015   1.076   0.025  0.00  0.00    +0.033 A 
ATOM     11  C   UNL     1      -0.966   1.754  -0.714  0.00  0.00    +0.128 A 
ATOM     12  C   UNL     1      -0.990   3.135  -0.711  0.00  0.00    +0.056 A 
BRANCH  11  13
ATOM     13  N   UNL     1      -1.963   0.999  -1.506  0.00  0.00    +0.056 N 
ATOM     14  O   UNL     1      -1.945  -0.219  -1.506  0.00  0.00    -0.126 OA
ATOM     15  O   UNL     1      -2.801   1.596  -2.157  0.00  0.00    -0.126 OA
ENDBRANCH  11  13
ENDBRANCH   5   7
ENDBRANCH   2   3
BRANCH   2  16
ATOM     16  N   UNL     1       2.434   7.941   0.334  0.00  0.00    +0.388 N 
ATOM     17  H   UNL     1       2.774   7.900   1.379  0.00  0.00    -0.085 HD
ATOM     18  H   UNL     1       3.094   7.323  -0.291  0.00  0.00    -0.085 HD
BRANCH  16  19
ATOM     19  C   UNL     1       2.511   9.332  -0.131  0.00  0.00    -0.059 C 
BRANCH  19  20
ATOM     20  C   UNL     1       3.955   9.826  -0.025  0.00  0.00    +0.007 C 
ATOM     21  C   UNL     1       4.415   9.805   1.447  0.00  0.00    +0.020 C 
ATOM     22  C   UNL     1       5.303  11.066   1.586  0.00  0.00    +0.002 C 
ATOM     23  C   UNL     1       4.560  12.106   0.711  0.00  0.00    +0.002 C 
ATOM     24  C   UNL     1       4.048  11.289  -0.494  0.00  0.00    +0.020 C 
BRANCH  20  25
ATOM     25  N   UNL     1       4.837   8.980  -0.841  0.00  0.00    -0.297 NA
ATOM     26  C   UNL     1       4.543   9.136  -2.267  0.00  0.00    +0.095 C 
ATOM     27  C   UNL     1       5.727   8.632  -3.100  0.00  0.00    +0.084 C 
ATOM     28  S   UNL     1       5.966   6.863  -2.744  0.00  0.00    -0.158 S 
ATOM     29  C   UNL     1       6.001   6.822  -0.925  0.00  0.00    +0.084 C 
ATOM     30  C   UNL     1       4.778   7.584  -0.402  0.00  0.00    +0.095 C 
ENDBRANCH  20  25
ENDBRANCH  19  20
ENDBRANCH  16  19
ENDBRANCH   2  16
TORSDOF 7
