REMARK  Name = ZINC67460710
REMARK  6 active torsions:
REMARK  status: ('A' for Active; 'I' for Inactive)
REMARK    1  A    between atoms: C_1  and  N_2
REMARK    2  A    between atoms: C_7  and  N_12
REMARK    3  A    between atoms: N_15  and  C_16
REMARK    4  A    between atoms: C_16  and  C_17
REMARK    5  A    between atoms: N_22  and  C_23
REMARK    6  A    between atoms: C_23  and  C_24
REMARK                            x       y       z     vdW  Elec       q    Type
REMARK                         _______ _______ _______ _____ _____    ______ ____
ROOT
ATOM      1  N   UNL     1       1.018  -4.256  -1.118  0.00  0.00    -0.292 N 
ATOM      2  C   UNL     1       0.658  -5.157  -0.183  0.00  0.00    +0.300 C 
ATOM      3  O   UNL     1      -0.473  -5.152   0.263  0.00  0.00    -0.253 OA
ATOM      4  N   UNL     1       1.552  -6.065   0.258  0.00  0.00    -0.301 N 
ATOM      5  H   UNL     1       1.921  -4.261  -1.474  0.00  0.00    +0.151 HD
ATOM      6  H   UNL     1       2.454  -6.069  -0.098  0.00  0.00    +0.150 HD
ENDROOT
BRANCH   1  13
ATOM      7  C   UNL     1      -0.018   1.461   0.010  0.00  0.00    +0.172 C 
ATOM      8  N   UNL     1       0.002  -0.004   0.002  0.00  0.00    -0.271 N 
ATOM      9  C   UNL     1       0.008  -0.789  -1.088  0.00  0.00    +0.044 A 
ATOM     10  C   UNL     1       0.030  -2.081  -0.670  0.00  0.00    +0.013 A 
ATOM     11  C   UNL     1       0.036  -2.082   0.723  0.00  0.00    +0.140 A 
ATOM     12  N   UNL     1       0.025  -0.837   1.131  0.00  0.00    -0.179 NA
ATOM     13  C   UNL     1       0.047  -3.270  -1.598  0.00  0.00    +0.108 C 
ATOM     14  C   UNL     1       0.448  -2.786  -2.997  0.00  0.00    +0.027 C 
ATOM     15  C   UNL     1      -0.411  -1.580  -3.387  0.00  0.00    +0.008 C 
ATOM     16  C   UNL     1      -0.009  -0.369  -2.536  0.00  0.00    +0.055 C 
ENDBRANCH   1  13
BRANCH   4  17
ATOM     17  C   UNL     1       1.160  -7.044   1.275  0.00  0.00    +0.090 C 
BRANCH  17  18
ATOM     18  C   UNL     1       2.351  -7.950   1.596  0.00  0.00    -0.051 C 
ATOM     19  C   UNL     1       2.003  -8.873   2.782  0.00  0.00    -0.016 C 
ATOM     20  C   UNL     1       3.331  -8.929   3.583  0.00  0.00    -0.020 C 
ATOM     21  C   UNL     1       3.873  -7.490   3.391  0.00  0.00    -0.078 C 
ATOM     22  N   UNL     1       3.509  -7.131   2.000  0.00  0.00    +0.383 N 
ATOM     23  H   UNL     1       3.266  -6.153   1.953  0.00  0.00    -0.081 HD
BRANCH  22  24
ATOM     24  C   UNL     1       4.642  -7.401   1.104  0.00  0.00    -0.075 C 
BRANCH  24  25
ATOM     25  C   UNL     1       5.799  -6.461   1.448  0.00  0.00    -0.028 C 
ATOM     26  C   UNL     1       5.387  -5.017   1.156  0.00  0.00    +0.002 C 
ATOM     27  C   UNL     1       6.544  -4.077   1.500  0.00  0.00    +0.000 C 
ATOM     28  C   UNL     1       7.765  -4.440   0.652  0.00  0.00    +0.000 C 
ATOM     29  C   UNL     1       8.177  -5.884   0.945  0.00  0.00    +0.000 C 
ATOM     30  C   UNL     1       7.020  -6.824   0.601  0.00  0.00    +0.002 C 
ENDBRANCH  24  25
ENDBRANCH  22  24
ENDBRANCH  17  18
ENDBRANCH   4  17
TORSDOF 5
