REMARK  Name = ZINC04150187
REMARK  5 active torsions:
REMARK  status: ('A' for Active; 'I' for Inactive)
REMARK    1  A    between atoms: C_1  and  C_2
REMARK    2  A    between atoms: C_2  and  C_3
REMARK    3  A    between atoms: C_3  and  C_4
REMARK    4  A    between atoms: C_11  and  N_28
REMARK    5  A    between atoms: C_12  and  C_26
REMARK                            x       y       z     vdW  Elec       q    Type
REMARK                         _______ _______ _______ _____ _____    ______ ____
ROOT
ATOM      1  C   UNL     1      -1.413  -2.041   0.005  0.00  0.00    +0.071 A 
ATOM      2  C   UNL     1      -1.407  -2.849  -1.123  0.00  0.00    +0.057 A 
ATOM      3  C   UNL     1      -1.387  -4.153  -0.710  0.00  0.00    +0.223 A 
ATOM      4  N   UNL     1      -1.381  -4.153   0.632  0.00  0.00    -0.246 N 
ATOM      5  H   UNL     1      -1.368  -4.937   1.203  0.00  0.00    +0.192 HD
ATOM      6  N   UNL     1      -1.392  -2.817   1.062  0.00  0.00    -0.176 NA
ATOM      7  O   UNL     1      -1.375  -5.195  -1.579  0.00  0.00    -0.423 OA
ATOM      8  C   UNL     1      -1.113  -4.931  -2.874  0.00  0.00    +0.201 C 
ATOM      9  C   UNL     1      -1.115  -3.686  -3.404  0.00  0.00    +0.106 C 
ATOM     10  C   UNL     1      -1.419  -2.463  -2.578  0.00  0.00    +0.093 C 
ATOM     11  C   UNL     1      -2.751  -1.889  -2.959  0.00  0.00    -0.019 A 
ATOM     12  C   UNL     1      -4.012  -2.446  -2.922  0.00  0.00    +0.006 A 
ATOM     13  C   UNL     1      -5.070  -1.648  -3.345  0.00  0.00    +0.000 A 
ATOM     14  C   UNL     1      -4.871  -0.355  -3.784  0.00  0.00    +0.001 A 
ATOM     15  C   UNL     1      -3.609   0.217  -3.827  0.00  0.00    +0.009 A 
ATOM     16  C   UNL     1      -2.536  -0.573  -3.405  0.00  0.00    -0.013 A 
ATOM     17  C   UNL     1      -1.108  -0.265  -3.336  0.00  0.00    -0.013 A 
ATOM     18  C   UNL     1      -0.413  -1.384  -2.844  0.00  0.00    -0.019 A 
ATOM     19  C   UNL     1       0.956  -1.372  -2.676  0.00  0.00    +0.006 A 
ATOM     20  C   UNL     1       1.626  -0.201  -3.014  0.00  0.00    +0.000 A 
ATOM     21  C   UNL     1       0.954   0.904  -3.496  0.00  0.00    +0.001 A 
ATOM     22  C   UNL     1      -0.421   0.906  -3.671  0.00  0.00    +0.009 A 
ENDROOT
BRANCH   8  23
ATOM     23  N   UNL     1      -0.826  -5.986  -3.705  0.00  0.00    -0.328 N 
ATOM     24  H   UNL     1      -0.816  -6.890  -3.354  0.00  0.00    +0.145 HD
ATOM     25  H   UNL     1      -0.633  -5.827  -4.642  0.00  0.00    +0.145 HD
ENDBRANCH   8  23
BRANCH   9  26
ATOM     26  C   UNL     1      -0.818  -3.525  -4.795  0.00  0.00    +0.101 C 
ATOM     27  N   UNL     1      -0.582  -3.397  -5.899  0.00  0.00    -0.191 NA
ENDBRANCH   9  26
BRANCH   1  28
ATOM     28  C   UNL     1      -1.433  -0.534   0.013  0.00  0.00    +0.057 C 
BRANCH  28  30
ATOM     29  C   UNL     1      -0.019   1.526   0.010  0.00  0.00    +0.004 C 
ATOM     30  C   UNL     1       0.002  -0.004   0.002  0.00  0.00    +0.003 C 
ENDBRANCH  28  30
ENDBRANCH   1  28
TORSDOF 4
