REMARK  Name = ZINC13951335
REMARK  13 active torsions:
REMARK  status: ('A' for Active; 'I' for Inactive)
REMARK    1  A    between atoms: C_1  and  C_2
REMARK    2  A    between atoms: C_2  and  O_3
REMARK    3  A    between atoms: O_3  and  C_4
REMARK    4  A    between atoms: C_4  and  C_5
REMARK    5  A    between atoms: C_5  and  N_6
REMARK    6  A    between atoms: C_8  and  O_37
REMARK    7  A    between atoms: N_15  and  C_16
REMARK    8  A    between atoms: C_16  and  C_18
REMARK    9  A    between atoms: C_21  and  S_24
REMARK   10  A    between atoms: S_24  and  N_27
REMARK   11  A    between atoms: C_29  and  C_36
REMARK   12  A    between atoms: C_32  and  C_35
REMARK   13  A    between atoms: O_37  and  C_38
REMARK                            x       y       z     vdW  Elec       q    Type
REMARK                         _______ _______ _______ _____ _____    ______ ____
ROOT
ATOM      1  C   UNL     1       4.737  -4.521  -1.033  0.00  0.00    +0.269 C 
ATOM      2  O   UNL     1       5.838  -3.998  -1.039  0.00  0.00    -0.268 OA
ENDROOT
BRANCH   1  12
ATOM      3  N   UNL     1       2.868  -1.809  -2.493  0.00  0.00    -0.316 N 
ATOM      4  C   UNL     1       3.209  -0.544  -2.939  0.00  0.00    +0.100 A 
ATOM      5  C   UNL     1       2.387   0.453  -3.494  0.00  0.00    +0.145 A 
ATOM      6  C   UNL     1       2.921   1.665  -3.882  0.00  0.00    +0.048 A 
ATOM      7  C   UNL     1       4.272   1.931  -3.736  0.00  0.00    +0.005 A 
ATOM      8  C   UNL     1       5.100   0.965  -3.192  0.00  0.00    +0.017 A 
ATOM      9  C   UNL     1       4.570  -0.244  -2.804  0.00  0.00    +0.042 A 
ATOM     10  S   UNL     1       5.239  -1.721  -2.084  0.00  0.00    -0.052 S 
ATOM     11  C   UNL     1       3.825  -2.623  -1.980  0.00  0.00    +0.167 A 
ATOM     12  N   UNL     1       3.678  -3.856  -1.505  0.00  0.00    -0.152 NA
BRANCH   5  13
ATOM     13  O   UNL     1       1.057   0.221  -3.651  0.00  0.00    -0.493 OA
ATOM     14  C   UNL     1       0.277   1.274  -4.221  0.00  0.00    +0.277 C 
ENDBRANCH   5  13
BRANCH   3  15
ATOM     15  C   UNL     1       1.478  -2.265  -2.569  0.00  0.00    +0.152 C 
BRANCH  15  16
ATOM     16  C   UNL     1       0.746  -1.888  -1.280  0.00  0.00    +0.181 C 
BRANCH  16  17
ATOM     17  O   UNL     1       0.671  -0.465  -1.174  0.00  0.00    -0.378 OA
BRANCH  17  19
ATOM     18  C   UNL     1      -0.019   1.526   0.010  0.00  0.00    +0.034 C 
ATOM     19  C   UNL     1       0.002  -0.004   0.002  0.00  0.00    +0.156 C 
ENDBRANCH  17  19
ENDBRANCH  16  17
ENDBRANCH  15  16
ENDBRANCH   3  15
ENDBRANCH   1  12
BRANCH   1  20
ATOM     20  C   UNL     1       4.573  -5.895  -0.504  0.00  0.00    +0.039 A 
ATOM     21  C   UNL     1       3.316  -6.499  -0.502  0.00  0.00    +0.015 A 
ATOM     22  C   UNL     1       3.170  -7.779  -0.008  0.00  0.00    +0.029 A 
ATOM     23  C   UNL     1       4.267  -8.463   0.485  0.00  0.00    +0.106 A 
ATOM     24  C   UNL     1       5.516  -7.869   0.486  0.00  0.00    +0.029 A 
ATOM     25  C   UNL     1       5.676  -6.592  -0.011  0.00  0.00    +0.015 A 
BRANCH  23  26
ATOM     26  S   UNL     1       4.072 -10.097   1.115  0.00  0.00    +0.061 S 
ATOM     27  O   UNL     1       5.147 -10.315   2.018  0.00  0.00    -0.153 OA
ATOM     28  O   UNL     1       2.711 -10.222   1.506  0.00  0.00    -0.153 OA
BRANCH  26  29
ATOM     29  N   UNL     1       4.298 -11.140  -0.151  0.00  0.00    -0.176 NA
ATOM     30  C   UNL     1       3.165 -11.559  -0.988  0.00  0.00    +0.112 C 
ATOM     31  C   UNL     1       3.124 -13.090  -1.032  0.00  0.00    +0.002 C 
ATOM     32  C   UNL     1       4.481 -13.619  -1.501  0.00  0.00    +0.009 C 
ATOM     33  C   UNL     1       5.567 -13.193  -0.510  0.00  0.00    +0.002 C 
ATOM     34  C   UNL     1       5.636 -11.659  -0.464  0.00  0.00    +0.112 C 
ATOM     35  C   UNL     1       6.918 -13.750  -0.963  0.00  0.00    +0.009 C 
ATOM     36  C   UNL     1       2.034 -13.544  -2.004  0.00  0.00    +0.009 C 
ENDBRANCH  26  29
ENDBRANCH  23  26
ENDBRANCH   1  20
TORSDOF 9
