REMARK  Name = ZINC32525578
REMARK  8 active torsions:
REMARK  status: ('A' for Active; 'I' for Inactive)
REMARK    1  A    between atoms: C_1  and  C_2
REMARK    2  A    between atoms: C_2  and  O_3
REMARK    3  A    between atoms: O_3  and  C_4
REMARK    4  A    between atoms: C_7  and  N_20
REMARK    5  A    between atoms: C_9  and  S_10
REMARK    6  A    between atoms: S_10  and  N_13
REMARK    7  A    between atoms: C_16  and  C_19
REMARK    8  A    between atoms: C_23  and  C_29
REMARK                            x       y       z     vdW  Elec       q    Type
REMARK                         _______ _______ _______ _____ _____    ______ ____
ROOT
ATOM      1  C   UNL     1       1.532  -4.542  -0.390  0.00  0.00    +0.147 A 
ATOM      2  C   UNL     1       2.523  -3.628  -0.060  0.00  0.00    +0.049 A 
ATOM      3  C   UNL     1       2.215  -2.288   0.063  0.00  0.00    +0.029 A 
ATOM      4  C   UNL     1       0.910  -1.856  -0.132  0.00  0.00    +0.061 A 
ATOM      5  C   UNL     1      -0.082  -2.770  -0.462  0.00  0.00    +0.058 A 
ATOM      6  C   UNL     1       0.229  -4.110  -0.591  0.00  0.00    +0.156 A 
ENDROOT
BRANCH   4   7
ATOM      7  N   UNL     1       0.595  -0.497  -0.002  0.00  0.00    -0.143 N 
ATOM      8  C   UNL     1      -0.611   0.008   0.300  0.00  0.00    +0.243 C 
ATOM      9  O   UNL     1      -1.553  -0.724   0.520  0.00  0.00    -0.273 OA
ATOM     10  C   UNL     1      -0.768   1.498   0.358  0.00  0.00    +0.097 C 
ATOM     11  C   UNL     1       0.636   2.138   0.519  0.00  0.00    +0.201 C 
ATOM     12  S   UNL     1       1.656   0.783  -0.194  0.00  0.00    +0.053 S 
ATOM     13  O   UNL     1       2.767   0.490   0.642  0.00  0.00    -0.155 OA
ATOM     14  O   UNL     1       1.810   0.948  -1.597  0.00  0.00    -0.155 OA
ATOM     15  C   UNL     1      -1.646   1.877   1.552  0.00  0.00    +0.019 C 
ENDBRANCH   4   7
BRANCH   6  16
ATOM     16  S   UNL     1      -1.029  -5.270  -1.009  0.00  0.00    +0.105 S 
ATOM     17  O   UNL     1      -2.243  -4.538  -1.098  0.00  0.00    -0.146 OA
ATOM     18  O   UNL     1      -0.525  -6.044  -2.089  0.00  0.00    -0.146 OA
BRANCH  16  19
ATOM     19  N   UNL     1      -1.191  -6.301   0.277  0.00  0.00    -0.103 NA
ATOM     20  C   UNL     1      -1.632  -5.820   1.500  0.00  0.00    +0.192 A 
ATOM     21  N   UNL     1      -1.739  -6.456   2.651  0.00  0.00    -0.336 N 
ATOM     22  C   UNL     1      -2.183  -5.842   3.731  0.00  0.00    +0.022 A 
ATOM     23  C   UNL     1      -2.530  -4.536   3.635  0.00  0.00    +0.069 A 
ATOM     24  S   UNL     1      -2.180  -4.225   1.911  0.00  0.00    -0.057 S 
ATOM     25  C   UNL     1      -2.301  -6.576   5.042  0.00  0.00    +0.064 C 
ATOM     26  H   UNL     1      -1.455  -7.516   2.722  0.00  0.00    +0.168 HD
ENDBRANCH  16  19
ENDBRANCH   6  16
BRANCH   1  27
ATOM     27  O   UNL     1       1.838  -5.860  -0.517  0.00  0.00    -0.490 OA
BRANCH  27  29
ATOM     28  C   UNL     1       3.356  -7.741  -0.488  0.00  0.00    +0.048 C 
ATOM     29  C   UNL     1       3.173  -6.251  -0.190  0.00  0.00    +0.226 C 
ENDBRANCH  27  29
ENDBRANCH   1  27
TORSDOF 5
