REMARK  Name = ZINC01581467
REMARK  11 active torsions:
REMARK  status: ('A' for Active; 'I' for Inactive)
REMARK    1  A    between atoms: C_1  and  C_2
REMARK    2  A    between atoms: C_2  and  C_3
REMARK    3  A    between atoms: C_2  and  C_4
REMARK    4  A    between atoms: C_2  and  C_5
REMARK    5  A    between atoms: C_7  and  N_17
REMARK    6  A    between atoms: C_9  and  C_12
REMARK    7  A    between atoms: C_10  and  O_11
REMARK    8  A    between atoms: C_12  and  C_13
REMARK    9  A    between atoms: C_12  and  C_14
REMARK   10  A    between atoms: C_12  and  C_15
REMARK   11  A    between atoms: C_18  and  C_20
REMARK                            x       y       z     vdW  Elec       q    Type
REMARK                         _______ _______ _______ _____ _____    ______ ____
ROOT
ATOM      1  C   UNL     1      -3.400  -1.096   0.309  0.00  0.00    +0.002 A 
ATOM      2  C   UNL     1      -2.257  -0.321   0.263  0.00  0.00    +0.032 A 
ATOM      3  C   UNL     1      -2.360   1.060   0.167  0.00  0.00    +0.053 A 
ATOM      4  C   UNL     1      -3.611   1.661   0.105  0.00  0.00    +0.069 A 
ATOM      5  C   UNL     1      -4.753   0.883   0.145  0.00  0.00    +0.020 A 
ATOM      6  C   UNL     1      -4.649  -0.496   0.248  0.00  0.00    +0.126 A 
ATOM      7 CL   UNL     1      -3.740   3.387  -0.024  0.00  0.00    -0.081 Cl
ENDROOT
BRANCH   1   9
ATOM      8  C   UNL     1      -1.813  -2.995   0.470  0.00  0.00    +0.015 C 
ATOM      9  C   UNL     1      -3.289  -2.595   0.420  0.00  0.00    -0.009 C 
ATOM     10  C   UNL     1      -3.988  -3.065   1.697  0.00  0.00    +0.015 C 
ATOM     11  C   UNL     1      -3.953  -3.247  -0.794  0.00  0.00    +0.015 C 
ENDBRANCH   1   9
BRANCH   5  12
ATOM     12  C   UNL     1      -6.110   1.534   0.078  0.00  0.00    -0.008 C 
ATOM     13  C   UNL     1      -6.260   2.265  -1.258  0.00  0.00    +0.016 C 
ATOM     14  C   UNL     1      -7.196   0.462   0.198  0.00  0.00    +0.016 C 
ATOM     15  C   UNL     1      -6.253   2.535   1.226  0.00  0.00    +0.016 C 
ENDBRANCH   5  12
BRANCH   3  16
ATOM     16  N   UNL     1      -1.201   1.847   0.126  0.00  0.00    -0.277 N 
ATOM     17  C   UNL     1      -0.084   1.373  -0.462  0.00  0.00    +0.322 C 
ATOM     18  O   UNL     1      -0.057   0.236  -0.883  0.00  0.00    -0.266 OA
ATOM     19  H   UNL     1      -1.203   2.734   0.520  0.00  0.00    +0.155 HD
BRANCH  17  20
ATOM     20  C   UNL     1       1.128   2.258  -0.600  0.00  0.00    +0.470 C 
ATOM     21  F   UNL     1       2.150   1.551  -1.242  0.00  0.00    -0.162 F 
ATOM     22  F   UNL     1       0.797   3.388  -1.355  0.00  0.00    -0.162 F 
ATOM     23  F   UNL     1       1.562   2.656   0.669  0.00  0.00    -0.162 F 
ENDBRANCH  17  20
ENDBRANCH   3  16
BRANCH   6  24
ATOM     24  O   UNL     1      -5.772  -1.261   0.288  0.00  0.00    -0.506 OA
ATOM     25  H   UNL     1      -6.069  -1.570  -0.579  0.00  0.00    +0.292 HD
ENDBRANCH   6  24
TORSDOF 5
