REMARK  Name = ZINC48756873
REMARK  8 active torsions:
REMARK  status: ('A' for Active; 'I' for Inactive)
REMARK    1  A    between atoms: C_1  and  C_2
REMARK    2  A    between atoms: C_2  and  C_3
REMARK    3  A    between atoms: C_3  and  C_5
REMARK    4  A    between atoms: C_3  and  N_6
REMARK    5  A    between atoms: N_6  and  C_7
REMARK    6  A    between atoms: C_8  and  C_10
REMARK    7  A    between atoms: N_12  and  C_13
REMARK    8  A    between atoms: C_14  and  C_21
REMARK                            x       y       z     vdW  Elec       q    Type
REMARK                         _______ _______ _______ _____ _____    ______ ____
ROOT
ATOM      1  C   UNL     1      -0.935   0.890  -4.048  0.00  0.00    +0.303 C 
ATOM      2  O   UNL     1      -1.809   0.071  -4.244  0.00  0.00    -0.265 OA
ATOM      3  N   UNL     1      -1.143   2.186  -4.354  0.00  0.00    -0.276 N 
ATOM      4  H   UNL     1      -0.474   2.851  -4.129  0.00  0.00    +0.155 HD
ENDROOT
BRANCH   3   5
ATOM      5  C   UNL     1      -2.325   2.571  -4.994  0.00  0.00    +0.055 A 
ATOM      6  C   UNL     1      -2.271   3.331  -6.156  0.00  0.00    -0.027 A 
ATOM      7  C   UNL     1      -3.439   3.711  -6.786  0.00  0.00    +0.020 A 
ATOM      8  C   UNL     1      -4.664   3.335  -6.263  0.00  0.00    +0.020 A 
ATOM      9  C   UNL     1      -4.722   2.579  -5.106  0.00  0.00    +0.037 A 
ATOM     10  C   UNL     1      -3.556   2.190  -4.473  0.00  0.00    +0.063 A 
ATOM     11 CL   UNL     1      -3.629   1.234  -3.026  0.00  0.00    -0.082 Cl
ATOM     12 BR   UNL     1      -6.261   3.857  -7.130  0.00  0.00    -0.050 Br
ATOM     13  C   UNL     1      -0.938   3.741  -6.727  0.00  0.00    +0.046 C 
ENDBRANCH   3   5
BRANCH   1  16
ATOM     14  N   UNL     1       0.618  -0.847  -3.254  0.00  0.00    -0.294 N 
ATOM     15  C   UNL     1      -0.352  -1.855  -3.687  0.00  0.00    +0.132 C 
ATOM     16  C   UNL     1       0.373   0.461  -3.468  0.00  0.00    +0.302 C 
ATOM     17  O   UNL     1       1.215   1.290  -3.190  0.00  0.00    -0.265 OA
BRANCH  14  18
ATOM     18  C   UNL     1       1.856  -1.260  -2.587  0.00  0.00    +0.073 C 
ATOM     19  C   UNL     1       2.659  -2.169  -3.520  0.00  0.00    +0.028 C 
BRANCH  18  21
ATOM     20  C   UNL     1       0.820  -1.076  -0.320  0.00  0.00    +0.005 C 
ATOM     21  C   UNL     1       1.514  -2.021  -1.304  0.00  0.00    +0.019 C 
ENDBRANCH  18  21
ENDBRANCH  14  18
ENDBRANCH   1  16
TORSDOF 4
