REMARK  Name = ZINC31027082
REMARK  5 active torsions:
REMARK  status: ('A' for Active; 'I' for Inactive)
REMARK    1  A    between atoms: C_1  and  C_2
REMARK    2  A    between atoms: C_9  and  C_11
REMARK    3  A    between atoms: N_13  and  N_14
REMARK    4  A    between atoms: N_17  and  C_18
REMARK    5  A    between atoms: C_18  and  C_19
REMARK                            x       y       z     vdW  Elec       q    Type
REMARK                         _______ _______ _______ _____ _____    ______ ____
ROOT
ATOM      1  N   UNL     1       1.978  -7.562   3.418  0.00  0.00    -0.218 N 
ATOM      2  C   UNL     1       2.065  -8.835   2.985  0.00  0.00    +0.316 C 
ATOM      3  O   UNL     1       2.307  -9.730   3.772  0.00  0.00    -0.251 OA
ATOM      4  N   UNL     1       1.885  -9.117   1.679  0.00  0.00    -0.294 N 
ATOM      5  H   UNL     1       2.108  -7.359   4.357  0.00  0.00    +0.174 HD
ATOM      6  H   UNL     1       1.692  -8.403   1.051  0.00  0.00    +0.151 HD
ENDROOT
BRANCH   1   9
ATOM      7  C   UNL     1       1.612  -5.258   2.944  0.00  0.00    +0.267 C 
ATOM      8  O   UNL     1       1.775  -5.003   4.123  0.00  0.00    -0.268 OA
ATOM      9  N   UNL     1       1.699  -6.531   2.511  0.00  0.00    -0.229 N 
ATOM     10  H   UNL     1       1.569  -6.734   1.571  0.00  0.00    +0.173 HD
BRANCH   7  18
ATOM     11  C   UNL     1      -0.019   1.526   0.010  0.00  0.00    +0.008 C 
ATOM     12  C   UNL     1       0.002  -0.004   0.002  0.00  0.00    -0.009 C 
ATOM     13  C   UNL     1       0.716  -0.496  -1.260  0.00  0.00    +0.009 C 
ATOM     14  C   UNL     1       0.494  -2.009  -1.394  0.00  0.00    +0.043 C 
ATOM     15  C   UNL     1       0.790  -2.651  -0.071  0.00  0.00    -0.006 A 
ATOM     16  C   UNL     1       0.909  -2.022   1.133  0.00  0.00    -0.036 A 
ATOM     17  C   UNL     1       1.190  -2.823   2.230  0.00  0.00    +0.024 A 
ATOM     18  C   UNL     1       1.320  -4.179   1.995  0.00  0.00    +0.076 A 
ATOM     19  S   UNL     1       1.042  -4.273   0.236  0.00  0.00    -0.088 S 
ATOM     20  C   UNL     1       0.739  -0.509   1.243  0.00  0.00    +0.039 C 
ENDBRANCH   7  18
ENDBRANCH   1   9
BRANCH   4  21
ATOM     21  C   UNL     1       1.980 -10.501   1.208  0.00  0.00    +0.141 C 
BRANCH  21  22
ATOM     22  C   UNL     1       1.739 -10.543  -0.279  0.00  0.00    -0.027 A 
ATOM     23  C   UNL     1       0.455 -10.703  -0.765  0.00  0.00    +0.009 A 
ATOM     24  C   UNL     1       0.229 -10.742  -2.129  0.00  0.00    +0.050 A 
ATOM     25  C   UNL     1       1.290 -10.621  -3.011  0.00  0.00    +0.166 A 
ATOM     26  C   UNL     1       2.584 -10.460  -2.521  0.00  0.00    +0.167 A 
ATOM     27  C   UNL     1       2.802 -10.416  -1.153  0.00  0.00    +0.054 A 
ATOM     28  O   UNL     1       3.442 -10.365  -3.578  0.00  0.00    -0.453 OA
ATOM     29  C   UNL     1       2.716 -10.879  -4.710  0.00  0.00    +0.466 C 
ATOM     30  O   UNL     1       1.338 -10.628  -4.375  0.00  0.00    -0.453 OA
ENDBRANCH  21  22
ENDBRANCH   4  21
TORSDOF 4
