REMARK  Name = ZINC64000281
REMARK  5 active torsions:
REMARK  status: ('A' for Active; 'I' for Inactive)
REMARK    1  A    between atoms: C_1  and  C_2
REMARK    2  A    between atoms: C_4  and  C_26
REMARK    3  A    between atoms: C_8  and  C_10
REMARK    4  A    between atoms: C_10  and  N_11
REMARK    5  A    between atoms: C_12  and  C_14
REMARK                            x       y       z     vdW  Elec       q    Type
REMARK                         _______ _______ _______ _____ _____    ______ ____
ROOT
ATOM      1  N   UNL     1       1.254  -1.039   3.394  0.00  0.00    -0.311 N 
ATOM      2  C   UNL     1       2.254  -0.816   4.269  0.00  0.00    +0.254 C 
ATOM      3  O   UNL     1       3.162  -0.067   3.975  0.00  0.00    -0.272 OA
ATOM      4  H   UNL     1       0.528  -1.638   3.629  0.00  0.00    +0.149 HD
ENDROOT
BRANCH   2   5
ATOM      5  C   UNL     1       2.245  -1.496   5.614  0.00  0.00    +0.266 C 
ATOM      6  C   UNL     1       2.383  -3.007   5.422  0.00  0.00    +0.090 C 
ATOM      7  C   UNL     1       2.617  -3.682   6.748  0.00  0.00    -0.029 A 
ATOM      8  C   UNL     1       2.345  -5.026   6.898  0.00  0.00    +0.004 A 
ATOM      9  C   UNL     1       2.562  -5.646   8.116  0.00  0.00    +0.000 A 
ATOM     10  C   UNL     1       3.054  -4.928   9.192  0.00  0.00    +0.001 A 
ATOM     11  C   UNL     1       3.330  -3.582   9.056  0.00  0.00    +0.015 A 
ATOM     12  C   UNL     1       3.110  -2.954   7.832  0.00  0.00    +0.062 A 
ATOM     13  C   UNL     1       3.390  -1.509   7.665  0.00  0.00    +0.340 C 
ATOM     14  O   UNL     1       3.653  -0.799   8.615  0.00  0.00    -0.245 OA
ATOM     15  O   UNL     1       3.341  -1.013   6.402  0.00  0.00    -0.448 OA
ENDBRANCH   2   5
BRANCH   1  16
ATOM     16  C   UNL     1       1.263  -0.378   2.087  0.00  0.00    +0.121 C 
BRANCH  16  24
ATOM     17  C   UNL     1      -0.018   1.503   0.010  0.00  0.00    +0.040 C 
ATOM     18  C   UNL     1       0.002  -0.004   0.002  0.00  0.00    -0.058 C 
ATOM     19  C   UNL     1       0.006  -0.695  -1.148  0.00  0.00    +0.020 C 
ATOM     20  C   UNL     1       0.025  -2.103  -1.149  0.00  0.00    +0.031 C 
ATOM     21  N   UNL     1       0.040  -2.837  -0.070  0.00  0.00    -0.185 NA
ATOM     22  C   UNL     1       0.039  -2.309   1.161  0.00  0.00    +0.245 C 
ATOM     23  O   UNL     1       0.054  -3.021   2.144  0.00  0.00    -0.273 OA
ATOM     24  C   UNL     1       0.025  -0.799   1.293  0.00  0.00    +0.120 C 
ATOM     25  C   UNL     1       0.028  -2.807  -2.482  0.00  0.00    +0.063 C 
ENDBRANCH  16  24
ENDBRANCH   1  16
TORSDOF 3
