REMARK  Name = ZINC53123682
REMARK  12 active torsions:
REMARK  status: ('A' for Active; 'I' for Inactive)
REMARK    1  A    between atoms: C_1  and  C_2
REMARK    2  A    between atoms: N_10  and  N_14
REMARK    3  A    between atoms: C_15  and  C_17
REMARK    4  A    between atoms: C_17  and  N_18
REMARK    5  A    between atoms: N_18  and  C_19
REMARK    6  A    between atoms: C_19  and  C_20
REMARK    7  A    between atoms: C_19  and  C_21
REMARK    8  A    between atoms: C_19  and  C_22
REMARK    9  A    between atoms: C_22  and  C_23
REMARK   10  A    between atoms: C_23  and  C_24
REMARK   11  A    between atoms: C_23  and  C_25
REMARK   12  A    between atoms: C_23  and  C_26
REMARK                            x       y       z     vdW  Elec       q    Type
REMARK                         _______ _______ _______ _____ _____    ______ ____
ROOT
ATOM      1  N   UNL     1       3.268  -6.133  -1.122  0.00  0.00    -0.225 N 
ATOM      2  C   UNL     1       3.680  -6.878  -2.167  0.00  0.00    +0.213 C 
ATOM      3  O   UNL     1       3.232  -6.670  -3.274  0.00  0.00    -0.276 OA
ATOM      4  H   UNL     1       3.626  -6.300  -0.236  0.00  0.00    +0.173 HD
ENDROOT
BRANCH   1  14
ATOM      5  C   UNL     1      -2.462  -0.715  -1.978  0.00  0.00    +0.007 C 
ATOM      6  C   UNL     1      -1.859  -2.057  -1.560  0.00  0.00    -0.014 C 
ATOM      7  C   UNL     1      -1.299  -2.770  -2.793  0.00  0.00    +0.006 C 
ATOM      8  C   UNL     1      -0.705  -4.118  -2.375  0.00  0.00    +0.035 C 
ATOM      9  C   UNL     1       0.402  -3.892  -1.351  0.00  0.00    +0.114 C 
ATOM     10  C   UNL     1      -0.137  -3.163  -0.126  0.00  0.00    +0.035 C 
ATOM     11  C   UNL     1      -0.734  -1.818  -0.551  0.00  0.00    +0.006 C 
ATOM     12  C   UNL     1       1.027  -5.208  -0.950  0.00  0.00    +0.263 C 
ATOM     13  O   UNL     1       0.480  -6.147  -0.414  0.00  0.00    -0.271 OA
ATOM     14  N   UNL     1       2.323  -5.117  -1.315  0.00  0.00    -0.137 N 
ATOM     15  C   UNL     1       2.593  -3.937  -1.885  0.00  0.00    +0.326 C 
ATOM     16  O   UNL     1       3.692  -3.620  -2.296  0.00  0.00    -0.251 OA
ATOM     17  N   UNL     1       1.511  -3.138  -1.951  0.00  0.00    -0.284 N 
ATOM     18  H   UNL     1       1.471  -2.243  -2.322  0.00  0.00    +0.151 HD
ENDBRANCH   1  14
BRANCH   2  19
ATOM     19  C   UNL     1       4.697  -7.971  -1.958  0.00  0.00    +0.017 C 
BRANCH  19  20
ATOM     20  N   UNL     1       4.977  -8.630  -3.240  0.00  0.00    +0.388 N 
ATOM     21  H   UNL     1       4.125  -9.029  -3.607  0.00  0.00    -0.084 HD
ATOM     22  H   UNL     1       5.340  -7.954  -3.895  0.00  0.00    -0.084 HD
BRANCH  20  23
ATOM     23  C   UNL     1       5.968  -9.695  -3.037  0.00  0.00    -0.073 C 
ATOM     24  C   UNL     1       7.194  -9.122  -2.324  0.00  0.00    -0.010 C 
ATOM     25  C   UNL     1       5.355 -10.807  -2.183  0.00  0.00    -0.010 C 
BRANCH  23  26
ATOM     26  C   UNL     1       6.388 -10.267  -4.393  0.00  0.00    -0.007 C 
BRANCH  26  27
ATOM     27  C   UNL     1       5.145 -10.502  -5.254  0.00  0.00    -0.039 C 
ATOM     28  C   UNL     1       4.654  -9.167  -5.817  0.00  0.00    +0.010 C 
ATOM     29  C   UNL     1       5.495 -11.444  -6.408  0.00  0.00    +0.010 C 
ATOM     30  C   UNL     1       4.043 -11.131  -4.399  0.00  0.00    +0.010 C 
ENDBRANCH  26  27
ENDBRANCH  23  26
ENDBRANCH  20  23
ENDBRANCH  19  20
ENDBRANCH   2  19
TORSDOF 6
