REMARK  Name = ZINC21691823
REMARK  4 active torsions:
REMARK  status: ('A' for Active; 'I' for Inactive)
REMARK    1  A    between atoms: C_15  and  C_17
REMARK    2  A    between atoms: C_17  and  S_18
REMARK    3  A    between atoms: S_18  and  C_19
REMARK    4  A    between atoms: N_23  and  C_24
REMARK                            x       y       z     vdW  Elec       q    Type
REMARK                         _______ _______ _______ _____ _____    ______ ____
ROOT
ATOM      1  C   UNL     1      -0.234  12.564   3.445  0.00  0.00    +0.078 A 
ATOM      2  C   UNL     1      -0.438  11.271   2.910  0.00  0.00    +0.084 A 
ATOM      3  C   UNL     1      -1.762  10.951   2.534  0.00  0.00    +0.044 A 
ATOM      4  C   UNL     1      -2.805  11.833   2.672  0.00  0.00    +0.066 A 
ATOM      5  C   UNL     1      -2.573  13.093   3.199  0.00  0.00    +0.163 A 
ATOM      6  C   UNL     1      -1.280  13.448   3.584  0.00  0.00    +0.164 A 
ATOM      7  O   UNL     1      -1.035  14.682   4.113  0.00  0.00    -0.485 OA
ATOM      8  C   UNL     1      -2.030  15.687   3.892  0.00  0.00    +0.270 C 
ATOM      9  C   UNL     1      -3.405  15.081   4.202  0.00  0.00    +0.270 C 
ATOM     10  O   UNL     1      -3.609  13.965   3.328  0.00  0.00    -0.485 OA
ATOM     11  S   UNL     1      -1.591   9.291   1.925  0.00  0.00    -0.052 S 
ATOM     12  C   UNL     1       0.166   9.127   2.206  0.00  0.00    +0.165 A 
ATOM     13  N   UNL     1       0.478  10.297   2.713  0.00  0.00    -0.224 NA
ATOM     14  N   UNL     1       0.991   8.043   1.949  0.00  0.00    -0.264 N 
ATOM     15  C   UNL     1       0.476   6.916   1.420  0.00  0.00    +0.229 C 
ATOM     16  O   UNL     1      -0.708   6.850   1.169  0.00  0.00    -0.275 OA
ATOM     17  H   UNL     1       2.065   8.104   2.177  0.00  0.00    +0.157 HD
ENDROOT
BRANCH  15  18
ATOM     18  C   UNL     1       1.373   5.737   1.140  0.00  0.00    +0.173 C 
BRANCH  18  19
ATOM     19  S   UNL     1       0.391   4.384   0.435  0.00  0.00    -0.077 S 
BRANCH  19  20
ATOM     20  C   UNL     1       1.566   3.099   0.168  0.00  0.00    +0.194 A 
ATOM     21  N   UNL     1       2.848   3.158   0.438  0.00  0.00    -0.121 NA
ATOM     22  N   UNL     1       3.424   1.935   0.072  0.00  0.00    -0.112 NA
ATOM     23  C   UNL     1       2.475   1.167  -0.404  0.00  0.00    +0.221 A 
ATOM     24  N   UNL     1       1.302   1.864  -0.354  0.00  0.00    -0.287 N 
ATOM     25  N   UNL     1       2.634  -0.130  -0.875  0.00  0.00    -0.300 N 
ATOM     26  C   UNL     1       2.022  -1.102   0.039  0.00  0.00    +0.108 C 
ATOM     27  C   UNL     1       2.088  -2.500  -0.580  0.00  0.00    +0.019 C 
ATOM     28  C   UNL     1       3.551  -2.868  -0.841  0.00  0.00    +0.003 C 
ATOM     29  C   UNL     1       4.179  -1.815  -1.757  0.00  0.00    +0.019 C 
ATOM     30  C   UNL     1       4.052  -0.437  -1.104  0.00  0.00    +0.108 C 
BRANCH  24  31
ATOM     31  C   UNL     1      -0.009   1.377  -0.791  0.00  0.00    +0.093 C 
ATOM     32  C   UNL     1      -0.842   2.295  -1.688  0.00  0.00    +0.027 C 
ATOM     33  C   UNL     1      -0.181   1.045  -2.275  0.00  0.00    +0.027 C 
ENDBRANCH  24  31
ENDBRANCH  19  20
ENDBRANCH  18  19
ENDBRANCH  15  18
TORSDOF 4
