REMARK  Name = ZINC43743821
REMARK  7 active torsions:
REMARK  status: ('A' for Active; 'I' for Inactive)
REMARK    1  A    between atoms: C_1  and  C_2
REMARK    2  A    between atoms: C_7  and  C_37
REMARK    3  A    between atoms: C_20  and  C_22
REMARK    4  A    between atoms: C_22  and  N_23
REMARK    5  A    between atoms: C_26  and  C_29
REMARK    6  A    between atoms: C_26  and  O_36
REMARK    7  A    between atoms: C_29  and  C_30
REMARK                            x       y       z     vdW  Elec       q    Type
REMARK                         _______ _______ _______ _____ _____    ______ ____
ROOT
ATOM      1  C   UNL     1      -0.189   1.187   0.266  0.00  0.00    +0.010 C 
ATOM      2  C   UNL     1      -0.154  -0.337   0.399  0.00  0.00    +0.021 C 
ATOM      3  C   UNL     1       0.492  -0.938  -0.845  0.00  0.00    +0.006 C 
ATOM      4  C   UNL     1       0.606  -2.454  -0.677  0.00  0.00    +0.001 C 
ATOM      5  C   UNL     1       1.551  -2.768   0.477  0.00  0.00    +0.010 C 
ATOM      6  C   UNL     1       1.046  -2.174   1.782  0.00  0.00    +0.003 C 
ATOM      7  C   UNL     1       0.651  -0.719   1.649  0.00  0.00    +0.104 C 
ATOM      8  C   UNL     1       1.536   0.364   2.248  0.00  0.00    +0.159 C 
ATOM      9  O   UNL     1       0.296  -0.019   2.851  0.00  0.00    -0.363 OA
ATOM     10  C   UNL     1       2.797   0.029   3.033  0.00  0.00    +0.073 C 
ATOM     11  C   UNL     1       3.203  -1.444   2.831  0.00  0.00    +0.183 C 
ATOM     12  C   UNL     1       2.064  -2.386   2.888  0.00  0.00    +0.054 C 
ATOM     13  O   UNL     1       3.796  -1.457   1.525  0.00  0.00    -0.461 OA
ATOM     14  C   UNL     1       4.550  -0.343   1.405  0.00  0.00    +0.309 C 
ATOM     15  O   UNL     1       5.517  -0.223   0.691  0.00  0.00    -0.251 OA
ATOM     16  C   UNL     1       3.982   0.750   2.325  0.00  0.00    +0.090 C 
ATOM     17  C   UNL     1      -0.216  -2.946   2.172  0.00  0.00    +0.014 C 
ENDROOT
BRANCH  16  18
ATOM     18  C   UNL     1       5.027   1.198   3.348  0.00  0.00    -0.064 C 
BRANCH  18  19
ATOM     19  N   UNL     1       4.446   2.224   4.225  0.00  0.00    +0.380 N 
ATOM     20  C   UNL     1       4.150   3.427   3.438  0.00  0.00    -0.076 C 
ATOM     21  C   UNL     1       3.470   4.469   4.329  0.00  0.00    +0.016 C 
ATOM     22  C   UNL     1       4.405   4.831   5.486  0.00  0.00    +0.067 C 
ATOM     23  C   UNL     1       4.767   3.558   6.255  0.00  0.00    +0.016 C 
ATOM     24  C   UNL     1       5.399   2.550   5.293  0.00  0.00    -0.076 C 
ATOM     25  H   UNL     1       3.593   1.872   4.632  0.00  0.00    -0.082 HD
BRANCH  22  26
ATOM     26  O   UNL     1       5.594   5.432   4.969  0.00  0.00    -0.388 OA
ATOM     27  H   UNL     1       6.233   5.687   5.649  0.00  0.00    +0.210 HD
ENDBRANCH  22  26
BRANCH  22  28
ATOM     28  C   UNL     1       3.700   5.813   6.425  0.00  0.00    +0.069 C 
BRANCH  28  29
ATOM     29  C   UNL     1       4.622   6.169   7.563  0.00  0.00    -0.045 A 
ATOM     30  C   UNL     1       4.617   5.411   8.719  0.00  0.00    +0.004 A 
ATOM     31  C   UNL     1       5.462   5.737   9.763  0.00  0.00    +0.000 A 
ATOM     32  C   UNL     1       6.312   6.821   9.651  0.00  0.00    +0.000 A 
ATOM     33  C   UNL     1       6.318   7.579   8.494  0.00  0.00    +0.000 A 
ATOM     34  C   UNL     1       5.476   7.250   7.449  0.00  0.00    +0.004 A 
ENDBRANCH  28  29
ENDBRANCH  22  28
ENDBRANCH  18  19
ENDBRANCH  16  18
TORSDOF 5
