REMARK  Name = ZINC32652305
REMARK  7 active torsions:
REMARK  status: ('A' for Active; 'I' for Inactive)
REMARK    1  A    between atoms: C_1  and  C_2
REMARK    2  A    between atoms: N_7  and  C_18
REMARK    3  A    between atoms: N_10  and  C_11
REMARK    4  A    between atoms: C_11  and  C_12
REMARK    5  A    between atoms: C_18  and  C_19
REMARK    6  A    between atoms: C_18  and  C_20
REMARK    7  A    between atoms: N_21  and  C_23
REMARK                            x       y       z     vdW  Elec       q    Type
REMARK                         _______ _______ _______ _____ _____    ______ ____
ROOT
ATOM      1  C   UNL     1       8.352  -2.829   1.422  0.00  0.00    +0.070 C 
ATOM      2  C   UNL     1       8.271  -3.052  -0.066  0.00  0.00    +0.086 A 
ATOM      3  C   UNL     1       7.260  -2.562  -0.914  0.00  0.00    +0.120 A 
ATOM      4  C   UNL     1       7.566  -2.997  -2.210  0.00  0.00    +0.152 A 
ATOM      5  C   UNL     1       6.703  -2.640  -3.269  0.00  0.00    +0.281 A 
ATOM      6  O   UNL     1       6.935  -2.999  -4.410  0.00  0.00    -0.265 OA
ATOM      7  N   UNL     1       5.611  -1.895  -2.987  0.00  0.00    -0.277 N 
ATOM      8  C   UNL     1       5.360  -1.492  -1.708  0.00  0.00    +0.199 A 
ATOM      9  N   UNL     1       6.149  -1.813  -0.711  0.00  0.00    -0.212 NA
ATOM     10  N   UNL     1       4.244  -0.732  -1.456  0.00  0.00    -0.311 N 
ATOM     11  N   UNL     1       8.724  -3.722  -2.123  0.00  0.00    -0.260 N 
ATOM     12  N   UNL     1       9.126  -3.732  -0.781  0.00  0.00    -0.174 NA
ATOM     13  C   UNL     1       9.419  -4.374  -3.236  0.00  0.00    +0.173 C 
ATOM     14  H   UNL     1       3.619  -0.379  -2.290  0.00  0.00    +0.149 HD
ENDROOT
BRANCH   7  15
ATOM     15  C   UNL     1       4.694  -1.514  -4.063  0.00  0.00    +0.087 C 
ATOM     16  C   UNL     1       5.444  -0.676  -5.101  0.00  0.00    +0.031 C 
ATOM     17  C   UNL     1       4.137  -2.773  -4.730  0.00  0.00    +0.031 C 
ENDBRANCH   7  15
BRANCH  10  18
ATOM     18  C   UNL     1       3.886  -0.390  -0.077  0.00  0.00    +0.139 C 
BRANCH  18  19
ATOM     19  C   UNL     1       2.631   0.444  -0.075  0.00  0.00    -0.030 A 
ATOM     20  C   UNL     1       1.394  -0.169   0.000  0.00  0.00    +0.005 A 
ATOM     21  C   UNL     1       0.243   0.596   0.001  0.00  0.00    +0.000 A 
ATOM     22  C   UNL     1       0.328   1.974  -0.073  0.00  0.00    +0.000 A 
ATOM     23  C   UNL     1       1.565   2.586  -0.149  0.00  0.00    +0.000 A 
ATOM     24  C   UNL     1       2.716   1.821  -0.150  0.00  0.00    +0.005 A 
ENDBRANCH  18  19
ENDBRANCH  10  18
TORSDOF 3
