REMARK  Name = ZINC14548182
REMARK  6 active torsions:
REMARK  status: ('A' for Active; 'I' for Inactive)
REMARK    1  A    between atoms: C_1  and  C_2
REMARK    2  A    between atoms: C_2  and  C_4
REMARK    3  A    between atoms: C_4  and  O_5
REMARK    4  A    between atoms: O_5  and  C_6
REMARK    5  A    between atoms: C_19  and  C_22
REMARK    6  A    between atoms: C_31  and  O_32
REMARK                            x       y       z     vdW  Elec       q    Type
REMARK                         _______ _______ _______ _____ _____    ______ ____
ROOT
ATOM      1  C   UNL     1      -7.681   3.316   0.616  0.00  0.00    +0.121 A 
ATOM      2  C   UNL     1      -7.101   2.700   1.715  0.00  0.00    +0.047 A 
ATOM      3  C   UNL     1      -5.728   2.667   1.846  0.00  0.00    +0.027 A 
ATOM      4  C   UNL     1      -4.916   3.252   0.883  0.00  0.00    +0.032 A 
ATOM      5  C   UNL     1      -5.505   3.884  -0.217  0.00  0.00    -0.016 A 
ATOM      6  C   UNL     1      -6.877   3.907  -0.348  0.00  0.00    +0.051 A 
ATOM      7  C   UNL     1      -4.605   4.531  -1.196  0.00  0.00    +0.049 C 
ATOM      8  C   UNL     1      -4.998   4.720  -2.617  0.00  0.00    -0.023 C 
ATOM      9  C   UNL     1      -3.906   4.663  -3.370  0.00  0.00    -0.030 C 
ATOM     10  C   UNL     1      -2.680   4.394  -2.494  0.00  0.00    +0.033 C 
ATOM     11  C   UNL     1      -3.310   3.671  -1.296  0.00  0.00    +0.029 C 
ATOM     12  C   UNL     1      -2.618   3.823   0.047  0.00  0.00    +0.109 C 
ATOM     13  N   UNL     1      -3.522   3.192   1.033  0.00  0.00    -0.336 N 
ATOM     14  H   UNL     1      -3.145   2.728   1.797  0.00  0.00    +0.147 HD
ENDROOT
BRANCH  12  15
ATOM     15  C   UNL     1      -1.289   3.113   0.031  0.00  0.00    +0.022 A 
ATOM     16  C   UNL     1      -0.094   3.852   0.024  0.00  0.00    -0.009 A 
ATOM     17  C   UNL     1      -0.106   5.258   0.032  0.00  0.00    +0.009 A 
ATOM     18  C   UNL     1       1.070   5.941   0.023  0.00  0.00    +0.001 A 
ATOM     19  C   UNL     1       2.291   5.269   0.007  0.00  0.00    +0.001 A 
ATOM     20  C   UNL     1       2.341   3.909   0.000  0.00  0.00    +0.008 A 
ATOM     21  C   UNL     1       1.147   3.168   0.008  0.00  0.00    -0.017 A 
ATOM     22  C   UNL     1       1.161   1.762   0.000  0.00  0.00    +0.012 A 
ATOM     23  C   UNL     1      -0.013   1.076   0.008  0.00  0.00    +0.046 A 
ATOM     24  C   UNL     1      -1.239   1.749   0.018  0.00  0.00    +0.122 A 
BRANCH  24  25
ATOM     25  O   UNL     1      -2.395   1.035   0.019  0.00  0.00    -0.506 OA
ATOM     26  H   UNL     1      -2.726   0.823   0.902  0.00  0.00    +0.292 HD
ENDBRANCH  24  25
ENDBRANCH  12  15
BRANCH   1  27
ATOM     27  O   UNL     1      -9.034   3.342   0.484  0.00  0.00    -0.488 OA
BRANCH  27  28
ATOM     28  C   UNL     1      -9.799   2.713   1.514  0.00  0.00    +0.259 C 
BRANCH  28  30
ATOM     29  C   UNL     1     -12.292   2.256   2.137  0.00  0.00    +0.042 C 
ATOM     30  C   UNL     1     -11.267   2.841   1.199  0.00  0.00    -0.043 C 
ATOM     31  C   UNL     1     -11.652   3.459   0.111  0.00  0.00    +0.011 C 
ENDBRANCH  28  30
ENDBRANCH  27  28
ENDBRANCH   1  27
TORSDOF 5
