REMARK  Name = ZINC28616291
REMARK  8 active torsions:
REMARK  status: ('A' for Active; 'I' for Inactive)
REMARK    1  A    between atoms: C_1  and  O_2
REMARK    2  A    between atoms: O_2  and  C_3
REMARK    3  A    between atoms: C_5  and  C_12
REMARK    4  A    between atoms: C_7  and  O_10
REMARK    5  A    between atoms: C_8  and  O_9
REMARK    6  A    between atoms: O_10  and  C_11
REMARK    7  A    between atoms: N_13  and  N_14
REMARK    8  A    between atoms: C_15  and  C_17
REMARK                            x       y       z     vdW  Elec       q    Type
REMARK                         _______ _______ _______ _____ _____    ______ ____
ROOT
ATOM      1  C   UNL     1       7.356  -3.133   3.752  0.00  0.00    +0.138 C 
ATOM      2  N   UNL     1       6.949  -1.921   3.526  0.00  0.00    -0.187 NA
ENDROOT
BRANCH   1   5
ATOM      3  C   UNL     1       4.195  -5.134   3.411  0.00  0.00    +0.166 A 
ATOM      4  C   UNL     1       5.111  -4.103   3.297  0.00  0.00    +0.059 A 
ATOM      5  C   UNL     1       6.378  -4.229   3.872  0.00  0.00    +0.002 A 
ATOM      6  C   UNL     1       6.718  -5.399   4.556  0.00  0.00    +0.059 A 
ATOM      7  C   UNL     1       5.797  -6.425   4.670  0.00  0.00    +0.166 A 
ATOM      8  C   UNL     1       4.536  -6.296   4.097  0.00  0.00    +0.201 A 
BRANCH   3  10
ATOM      9  C   UNL     1       2.682  -3.794   2.159  0.00  0.00    +0.277 C 
ATOM     10  O   UNL     1       2.962  -5.011   2.852  0.00  0.00    -0.491 OA
ENDBRANCH   3  10
BRANCH   8  11
ATOM     11  O   UNL     1       3.633  -7.308   4.207  0.00  0.00    -0.501 OA
ATOM     12  H   UNL     1       3.901  -8.227   4.749  0.00  0.00    +0.292 HD
ENDBRANCH   8  11
BRANCH   7  13
ATOM     13  O   UNL     1       6.126  -7.562   5.340  0.00  0.00    -0.491 OA
ATOM     14  C   UNL     1       7.397  -7.586   5.992  0.00  0.00    +0.277 C 
ENDBRANCH   7  13
ENDBRANCH   1   5
BRANCH   2  15
ATOM     15  N   UNL     1       5.621  -1.567   3.797  0.00  0.00    -0.203 N 
ATOM     16  C   UNL     1       5.163  -0.349   3.446  0.00  0.00    +0.263 C 
ATOM     17  O   UNL     1       5.872   0.406   2.808  0.00  0.00    -0.268 OA
ATOM     18  H   UNL     1       4.952  -2.283   4.298  0.00  0.00    +0.178 HD
BRANCH  16  19
ATOM     19  C   UNL     1       3.802   0.068   3.835  0.00  0.00    +0.042 A 
ATOM     20  C   UNL     1       2.939  -0.843   4.450  0.00  0.00    +0.017 A 
ATOM     21  C   UNL     1       1.669  -0.451   4.812  0.00  0.00    +0.050 A 
ATOM     22  C   UNL     1       1.241   0.847   4.567  0.00  0.00    +0.166 A 
ATOM     23  C   UNL     1       2.097   1.761   3.952  0.00  0.00    +0.167 A 
ATOM     24  C   UNL     1       3.372   1.374   3.587  0.00  0.00    +0.062 A 
ATOM     25  O   UNL     1       1.444   2.953   3.826  0.00  0.00    -0.453 OA
ATOM     26  C   UNL     1       0.330   2.878   4.736  0.00  0.00    +0.466 C 
ATOM     27  O   UNL     1       0.054   1.468   4.824  0.00  0.00    -0.453 OA
ENDBRANCH  16  19
ENDBRANCH   2  15
TORSDOF 6
