REMARK  Name = ZINC49407838
REMARK  11 active torsions:
REMARK  status: ('A' for Active; 'I' for Inactive)
REMARK    1  A    between atoms: C_1  and  C_2
REMARK    2  A    between atoms: C_5  and  C_8
REMARK    3  A    between atoms: C_8  and  C_10
REMARK    4  A    between atoms: C_8  and  N_29
REMARK    5  A    between atoms: C_10  and  N_11
REMARK    6  A    between atoms: C_12  and  C_14
REMARK    7  A    between atoms: N_19  and  C_21
REMARK    8  A    between atoms: C_24  and  C_28
REMARK    9  A    between atoms: C_25  and  C_27
REMARK   10  A    between atoms: N_29  and  C_30
REMARK   11  A    between atoms: N_29  and  C_31
REMARK                            x       y       z     vdW  Elec       q    Type
REMARK                         _______ _______ _______ _____ _____    ______ ____
ROOT
ATOM      1  N   UNL     1       1.117  -6.012   0.489  0.00  0.00    -0.316 N 
ATOM      2  C   UNL     1       2.282  -6.592   0.841  0.00  0.00    +0.218 C 
ATOM      3  O   UNL     1       3.279  -5.916   0.980  0.00  0.00    -0.275 OA
ATOM      4  H   UNL     1       0.320  -6.553   0.378  0.00  0.00    +0.149 HD
ENDROOT
BRANCH   2   5
ATOM      5  C   UNL     1       2.345  -8.082   1.062  0.00  0.00    +0.101 C 
ATOM      6  C   UNL     1       2.056  -8.848  -0.249  0.00  0.00    +0.110 C 
ATOM      7  C   UNL     1       3.425  -9.093  -0.845  0.00  0.00    +0.221 C 
ATOM      8  O   UNL     1       3.635  -9.413  -1.996  0.00  0.00    -0.275 OA
ATOM      9  N   UNL     1       4.375  -8.905   0.087  0.00  0.00    -0.271 N 
ATOM     10  C   UNL     1       3.788  -8.533   1.380  0.00  0.00    +0.127 C 
BRANCH   9  11
ATOM     11  C   UNL     1       5.748  -9.044  -0.146  0.00  0.00    +0.037 A 
ATOM     12  C   UNL     1       6.202  -9.500  -1.377  0.00  0.00    +0.024 A 
ATOM     13  C   UNL     1       7.558  -9.636  -1.603  0.00  0.00    +0.005 A 
ATOM     14  C   UNL     1       8.462  -9.321  -0.606  0.00  0.00    -0.047 A 
ATOM     15  C   UNL     1       8.013  -8.867   0.621  0.00  0.00    -0.046 A 
ATOM     16  C   UNL     1       6.659  -8.722   0.851  0.00  0.00    +0.027 A 
ATOM     17  C   UNL     1       9.002  -8.525   1.705  0.00  0.00    +0.044 C 
ATOM     18  C   UNL     1       9.941  -9.472  -0.856  0.00  0.00    +0.044 C 
ENDBRANCH   9  11
ENDBRANCH   2   5
BRANCH   1  19
ATOM     19  C   UNL     1       1.056  -4.564   0.275  0.00  0.00    +0.093 C 
BRANCH  19  20
ATOM     20  C   UNL     1      -0.392  -4.150   0.004  0.00  0.00    -0.021 C 
BRANCH  20  25
ATOM     21  C   UNL     1      -2.216  -6.609  -4.897  0.00  0.00    +0.044 C 
ATOM     22  C   UNL     1      -1.740  -5.968  -3.619  0.00  0.00    -0.050 A 
ATOM     23  C   UNL     1      -2.088  -6.517  -2.399  0.00  0.00    +0.003 A 
ATOM     24  C   UNL     1      -1.652  -5.928  -1.227  0.00  0.00    +0.002 A 
ATOM     25  C   UNL     1      -0.867  -4.792  -1.274  0.00  0.00    -0.059 A 
ATOM     26  C   UNL     1      -0.518  -4.243  -2.494  0.00  0.00    +0.002 A 
ATOM     27  C   UNL     1      -0.951  -4.834  -3.667  0.00  0.00    +0.003 A 
ENDBRANCH  20  25
BRANCH  20  28
ATOM     28  N   UNL     1      -0.467  -2.688  -0.125  0.00  0.00    +0.382 N 
ATOM     29  C   UNL     1      -1.866  -2.285  -0.320  0.00  0.00    -0.096 C 
ATOM     30  C   UNL     1       0.058  -2.062   1.095  0.00  0.00    -0.096 C 
ATOM     31  H   UNL     1       0.082  -2.392  -0.918  0.00  0.00    -0.082 HD
ENDBRANCH  20  28
ENDBRANCH  19  20
ENDBRANCH   1  19
TORSDOF 6
