REMARK  Name = ZINC38672883
REMARK  12 active torsions:
REMARK  status: ('A' for Active; 'I' for Inactive)
REMARK    1  A    between atoms: C_1  and  C_2
REMARK    2  A    between atoms: C_2  and  C_3
REMARK    3  A    between atoms: C_2  and  C_4
REMARK    4  A    between atoms: C_7  and  O_10
REMARK    5  A    between atoms: O_10  and  C_11
REMARK    6  A    between atoms: C_11  and  C_12
REMARK    7  A    between atoms: N_14  and  C_15
REMARK    8  A    between atoms: C_15  and  C_16
REMARK    9  A    between atoms: C_16  and  C_18
REMARK   10  A    between atoms: C_16  and  N_29
REMARK   11  A    between atoms: N_27  and  C_28
REMARK   12  A    between atoms: N_32  and  C_35
REMARK                            x       y       z     vdW  Elec       q    Type
REMARK                         _______ _______ _______ _____ _____    ______ ____
ROOT
ATOM      1  C   UNL     1       2.435  -5.087   9.736  0.00  0.00    +0.104 C 
ENDROOT
BRANCH   1   2
ATOM      2  C   UNL     1       3.756  -5.758  10.010  0.00  0.00    -0.028 A 
ATOM      3  C   UNL     1       4.375  -6.495   9.016  0.00  0.00    +0.007 A 
ATOM      4  C   UNL     1       5.584  -7.111   9.267  0.00  0.00    +0.024 A 
ATOM      5  C   UNL     1       6.180  -6.989  10.518  0.00  0.00    +0.033 A 
ATOM      6  C   UNL     1       5.561  -6.248  11.512  0.00  0.00    -0.026 A 
ATOM      7  C   UNL     1       4.349  -5.631  11.251  0.00  0.00    +0.010 A 
ATOM      8  C   UNL     1       6.182  -6.085  12.874  0.00  0.00    +0.038 C 
ATOM      9  C   UNL     1       7.202  -7.194  13.134  0.00  0.00    +0.024 C 
ATOM     10  C   UNL     1       8.175  -7.260  11.950  0.00  0.00    +0.105 C 
ATOM     11  N   UNL     1       7.404  -7.625  10.754  0.00  0.00    -0.333 N 
ATOM     12  C   UNL     1       7.908  -8.638   9.823  0.00  0.00    +0.129 C 
ENDBRANCH   1   2
BRANCH   1  13
ATOM     13  N   UNL     1       1.371  -6.099   9.696  0.00  0.00    -0.297 NA
ATOM     14  C   UNL     1       1.099  -6.630  11.039  0.00  0.00    +0.066 C 
ATOM     15  C   UNL     1      -0.053  -7.635  10.963  0.00  0.00    -0.064 C 
ATOM     16  N   UNL     1       0.309  -8.727  10.050  0.00  0.00    +0.379 N 
ATOM     17  C   UNL     1       0.553  -8.184   8.708  0.00  0.00    -0.064 C 
ATOM     18  C   UNL     1       1.710  -7.184   8.765  0.00  0.00    +0.066 C 
ATOM     19  C   UNL     1      -0.790  -9.701   9.992  0.00  0.00    -0.096 C 
ATOM     20  H   UNL     1       1.144  -9.183  10.386  0.00  0.00    -0.082 HD
ENDBRANCH   1  13
BRANCH   1  21
ATOM     21  C   UNL     1       2.500  -4.363   8.390  0.00  0.00    +0.128 C 
BRANCH  21  24
ATOM     22  C   UNL     1       1.032  -3.015   6.987  0.00  0.00    +0.251 C 
ATOM     23  O   UNL     1       1.975  -2.804   6.254  0.00  0.00    -0.272 OA
ATOM     24  N   UNL     1       1.190  -3.783   8.083  0.00  0.00    -0.311 N 
ATOM     25  H   UNL     1       0.435  -3.953   8.669  0.00  0.00    +0.149 HD
BRANCH  22  26
ATOM     26  C   UNL     1      -0.316  -2.420   6.672  0.00  0.00    +0.324 C 
BRANCH  26  27
ATOM     27  O   UNL     1      -0.228  -1.652   5.469  0.00  0.00    -0.483 OA
BRANCH  27  31
ATOM     28  C   UNL     1      -3.680   0.196   4.170  0.00  0.00    -0.045 A 
ATOM     29  C   UNL     1      -2.509   0.336   3.449  0.00  0.00    +0.007 A 
ATOM     30  C   UNL     1      -1.351  -0.282   3.882  0.00  0.00    +0.046 A 
ATOM     31  C   UNL     1      -1.365  -1.043   5.042  0.00  0.00    +0.121 A 
ATOM     32  C   UNL     1      -2.541  -1.181   5.764  0.00  0.00    +0.046 A 
ATOM     33  C   UNL     1      -3.694  -0.557   5.330  0.00  0.00    +0.007 A 
BRANCH  28  35
ATOM     34  C   UNL     1      -4.717   2.383   3.632  0.00  0.00    +0.012 C 
ATOM     35  C   UNL     1      -4.941   0.871   3.695  0.00  0.00    +0.013 C 
ATOM     36  C   UNL     1      -5.305   0.350   2.304  0.00  0.00    +0.012 C 
ENDBRANCH  28  35
ENDBRANCH  27  31
ENDBRANCH  26  27
ENDBRANCH  22  26
ENDBRANCH  21  24
ENDBRANCH   1  21
TORSDOF 8
