REMARK  Name = ZINC41491658
REMARK  5 active torsions:
REMARK  status: ('A' for Active; 'I' for Inactive)
REMARK    1  A    between atoms: C_1  and  C_2
REMARK    2  A    between atoms: C_7  and  N_8
REMARK    3  A    between atoms: C_9  and  C_11
REMARK    4  A    between atoms: N_13  and  C_14
REMARK    5  A    between atoms: C_14  and  C_15
REMARK                            x       y       z     vdW  Elec       q    Type
REMARK                         _______ _______ _______ _____ _____    ______ ____
ROOT
ATOM      1  C   UNL     1      -0.202   0.043   4.865  0.00  0.00    +0.300 C 
ATOM      2  O   UNL     1      -0.198   1.256   4.870  0.00  0.00    -0.265 OA
ATOM      3  N   UNL     1      -0.278  -0.635   6.028  0.00  0.00    -0.303 N 
ATOM      4  H   UNL     1      -0.281  -1.605   6.024  0.00  0.00    +0.149 HD
ENDROOT
BRANCH   1   6
ATOM      5  N   UNL     1      -0.045  -0.021   2.409  0.00  0.00    -0.277 N 
ATOM      6  C   UNL     1      -0.122  -0.699   3.572  0.00  0.00    +0.303 C 
ATOM      7  O   UNL     1      -0.125  -1.913   3.567  0.00  0.00    -0.265 OA
ATOM      8  H   UNL     1       0.020   0.946   2.416  0.00  0.00    +0.155 HD
BRANCH   5  15
ATOM      9  C   UNL     1      -1.343   1.195   0.190  0.00  0.00    +0.045 C 
ATOM     10  C   UNL     1      -0.683  -0.156   0.085  0.00  0.00    -0.029 A 
ATOM     11  C   UNL     1      -0.692  -0.838  -1.116  0.00  0.00    +0.008 A 
ATOM     12  C   UNL     1      -0.087  -2.077  -1.214  0.00  0.00    +0.039 A 
ATOM     13  C   UNL     1       0.530  -2.639  -0.108  0.00  0.00    +0.125 A 
ATOM     14  C   UNL     1       0.542  -1.960   1.097  0.00  0.00    +0.062 A 
ATOM     15  C   UNL     1      -0.060  -0.713   1.195  0.00  0.00    +0.039 A 
ATOM     16  F   UNL     1       1.120  -3.850  -0.206  0.00  0.00    -0.205 F 
ENDBRANCH   5  15
ENDBRANCH   1   6
BRANCH   3  17
ATOM     17  C   UNL     1      -0.356   0.093   7.297  0.00  0.00    +0.141 C 
BRANCH  17  18
ATOM     18  C   UNL     1      -0.432  -0.891   8.436  0.00  0.00    -0.014 A 
ATOM     19  C   UNL     1      -1.663  -1.349   8.886  0.00  0.00    +0.010 A 
ATOM     20  C   UNL     1      -1.689  -2.251   9.935  0.00  0.00    +0.042 A 
ATOM     21  C   UNL     1      -0.487  -2.666  10.499  0.00  0.00    +0.099 A 
ATOM     22  N   UNL     1       0.667  -2.206  10.041  0.00  0.00    -0.349 N 
ATOM     23  C   UNL     1       0.722  -1.349   9.039  0.00  0.00    +0.089 A 
ATOM     24  N   UNL     1      -0.498  -3.572  11.553  0.00  0.00    -0.317 N 
ATOM     25  C   UNL     1      -1.756  -4.168  11.942  0.00  0.00    +0.106 C 
ATOM     26  C   UNL     1      -2.446  -3.279  13.006  0.00  0.00    +0.019 C 
ATOM     27  C   UNL     1      -1.727  -3.364  14.287  0.00  0.00    +0.002 C 
ATOM     28  C   UNL     1      -0.291  -2.850  14.237  0.00  0.00    +0.002 C 
ATOM     29  C   UNL     1       0.619  -3.954  13.760  0.00  0.00    +0.019 C 
ATOM     30  C   UNL     1       0.777  -3.890  12.226  0.00  0.00    +0.106 C 
ATOM     31  H   UNL     1       1.493  -2.509  10.450  0.00  0.00    +0.167 HD
ENDBRANCH  17  18
ENDBRANCH   3  17
TORSDOF 4
