REMARK  Name = ZINC36701729
REMARK  4 active torsions:
REMARK  status: ('A' for Active; 'I' for Inactive)
REMARK    1  A    between atoms: C_1  and  C_2
REMARK    2  A    between atoms: C_4  and  C_19
REMARK    3  A    between atoms: C_6  and  C_14
REMARK    4  A    between atoms: N_21  and  C_22
REMARK                            x       y       z     vdW  Elec       q    Type
REMARK                         _______ _______ _______ _____ _____    ______ ____
ROOT
ATOM      1  C   UNL     1      -1.242   0.479   0.638  0.00  0.00    +0.028 C 
ATOM      2  C   UNL     1      -1.302  -1.049   0.614  0.00  0.00    +0.084 C 
ATOM      3  C   UNL     1      -2.596  -1.502  -0.072  0.00  0.00    +0.125 C 
ATOM      4  C   UNL     1      -2.634  -3.034  -0.147  0.00  0.00    +0.161 C 
ATOM      5  N   UNL     1      -2.322  -3.579   1.174  0.00  0.00    -0.224 N 
ATOM      6  C   UNL     1      -1.702  -2.885   2.159  0.00  0.00    +0.214 A 
ATOM      7  N   UNL     1      -1.587  -3.671   3.196  0.00  0.00    -0.202 NA
ATOM      8  C   UNL     1      -2.117  -4.865   2.911  0.00  0.00    +0.247 A 
ATOM      9  N   UNL     1      -2.577  -4.851   1.685  0.00  0.00    -0.156 NA
ATOM     10  N   UNL     1      -1.290  -1.568   1.995  0.00  0.00    -0.310 N 
ATOM     11  H   UNL     1      -1.014  -1.019   2.746  0.00  0.00    +0.149 HD
ENDROOT
BRANCH   4  12
ATOM     12  C   UNL     1      -4.008  -3.485  -0.571  0.00  0.00    +0.015 A 
ATOM     13  C   UNL     1      -4.397  -4.060  -1.735  0.00  0.00    +0.013 A 
ATOM     14  C   UNL     1      -5.727  -4.395  -1.906  0.00  0.00    +0.008 A 
ATOM     15  C   UNL     1      -6.604  -4.138  -0.905  0.00  0.00    +0.045 A 
ATOM     16  S   UNL     1      -5.546  -3.406   0.333  0.00  0.00    -0.099 S 
ENDBRANCH   4  12
BRANCH   3  17
ATOM     17  C   UNL     1      -3.781  -1.011   0.719  0.00  0.00    +0.224 C 
ATOM     18  O   UNL     1      -3.923  -1.353   1.874  0.00  0.00    -0.275 OA
ATOM     19  N   UNL     1      -4.683  -0.191   0.144  0.00  0.00    -0.285 N 
ATOM     20  H   UNL     1      -4.534   0.138  -0.757  0.00  0.00    +0.155 HD
BRANCH  19  21
ATOM     21  C   UNL     1      -5.833   0.187   0.845  0.00  0.00    +0.033 A 
ATOM     22  C   UNL     1      -5.773   0.399   2.216  0.00  0.00    +0.025 A 
ATOM     23  C   UNL     1      -6.910   0.772   2.906  0.00  0.00    +0.022 A 
ATOM     24  C   UNL     1      -8.108   0.934   2.233  0.00  0.00    +0.041 A 
ATOM     25  C   UNL     1      -8.170   0.723   0.867  0.00  0.00    +0.022 A 
ATOM     26  C   UNL     1      -7.035   0.356   0.171  0.00  0.00    +0.025 A 
ATOM     27 CL   UNL     1      -9.535   1.402   3.103  0.00  0.00    -0.084 Cl
ENDBRANCH  19  21
ENDBRANCH   3  17
TORSDOF 3
