REMARK  Name = ZINC38714037
REMARK  7 active torsions:
REMARK  status: ('A' for Active; 'I' for Inactive)
REMARK    1  A    between atoms: C_1  and  C_2
REMARK    2  A    between atoms: C_5  and  S_8
REMARK    3  A    between atoms: S_8  and  N_11
REMARK    4  A    between atoms: C_17  and  N_21
REMARK    5  A    between atoms: N_24  and  C_25
REMARK    6  A    between atoms: C_25  and  C_26
REMARK    7  A    between atoms: C_25  and  C_27
REMARK                            x       y       z     vdW  Elec       q    Type
REMARK                         _______ _______ _______ _____ _____    ______ ____
ROOT
ATOM      1  N   UNL     1       1.578  -4.689  -0.018  0.00  0.00    -0.172 NA
ATOM      2  C   UNL     1       2.288  -5.079  -1.248  0.00  0.00    +0.114 C 
ATOM      3  C   UNL     1       3.525  -4.192  -1.377  0.00  0.00    +0.052 C 
ATOM      4  C   UNL     1       4.281  -4.133  -0.075  0.00  0.00    -0.042 A 
ATOM      5  C   UNL     1       5.615  -3.743  -0.123  0.00  0.00    +0.006 A 
ATOM      6  C   UNL     1       6.364  -3.658   1.030  0.00  0.00    +0.023 A 
ATOM      7  C   UNL     1       5.782  -3.962   2.254  0.00  0.00    +0.035 A 
ATOM      8  C   UNL     1       4.454  -4.354   2.301  0.00  0.00    +0.028 A 
ATOM      9  C   UNL     1       3.705  -4.444   1.137  0.00  0.00    -0.027 A 
ATOM     10  C   UNL     1       2.275  -4.897   1.255  0.00  0.00    +0.144 C 
ENDROOT
BRANCH   7  11
ATOM     11  N   UNL     1       6.532  -3.873   3.432  0.00  0.00    -0.269 N 
ATOM     12  C   UNL     1       7.496  -2.938   3.548  0.00  0.00    +0.304 C 
ATOM     13  O   UNL     1       7.649  -2.111   2.671  0.00  0.00    -0.253 OA
ATOM     14  N   UNL     1       8.290  -2.920   4.638  0.00  0.00    -0.297 N 
ATOM     15  H   UNL     1       6.359  -4.485   4.165  0.00  0.00    +0.156 HD
ATOM     16  H   UNL     1       8.168  -3.581   5.338  0.00  0.00    +0.151 HD
BRANCH  14  17
ATOM     17  C   UNL     1       9.337  -1.904   4.764  0.00  0.00    +0.068 C 
ATOM     18  C   UNL     1       8.739  -0.627   5.359  0.00  0.00    +0.027 C 
ATOM     19  C   UNL     1      10.445  -2.425   5.682  0.00  0.00    +0.027 C 
ENDBRANCH  14  17
ENDBRANCH   7  11
BRANCH   1  20
ATOM     20  S   UNL     1       0.057  -4.036  -0.071  0.00  0.00    +0.061 S 
ATOM     21  O   UNL     1      -0.537  -4.288   1.195  0.00  0.00    -0.153 OA
ATOM     22  O   UNL     1      -0.530  -4.473  -1.289  0.00  0.00    -0.153 OA
BRANCH  20  27
ATOM     23  C   UNL     1       0.696   1.947  -0.514  0.00  0.00    +0.044 C 
ATOM     24  C   UNL     1       0.536   0.453  -0.404  0.00  0.00    -0.050 A 
ATOM     25  C   UNL     1       0.468  -0.322  -1.547  0.00  0.00    +0.005 A 
ATOM     26  C   UNL     1       0.322  -1.692  -1.445  0.00  0.00    +0.029 A 
ATOM     27  C   UNL     1       0.245  -2.289  -0.201  0.00  0.00    +0.106 A 
ATOM     28  C   UNL     1       0.314  -1.515   0.943  0.00  0.00    +0.029 A 
ATOM     29  C   UNL     1       0.465  -0.144   0.841  0.00  0.00    +0.005 A 
ENDBRANCH  20  27
ENDBRANCH   1  20
TORSDOF 4
