REMARK  Name = ZINC44880351
REMARK  2 active torsions:
REMARK  status: ('A' for Active; 'I' for Inactive)
REMARK    1  A    between atoms: C_1  and  C_2
REMARK    2  A    between atoms: N_8  and  C_9
REMARK                            x       y       z     vdW  Elec       q    Type
REMARK                         _______ _______ _______ _____ _____    ______ ____
ROOT
ATOM      1  C   UNL     1      -2.048  -2.748   3.615  0.00  0.00    +0.067 A 
ATOM      2  C   UNL     1      -3.278  -2.291   3.107  0.00  0.00    +0.028 A 
ATOM      3  C   UNL     1      -4.427  -2.969   3.351  0.00  0.00    +0.010 A 
ATOM      4  C   UNL     1      -4.400  -4.146   4.122  0.00  0.00    -0.018 A 
ATOM      5  C   UNL     1      -5.577  -4.865   4.388  0.00  0.00    +0.008 A 
ATOM      6  C   UNL     1      -5.520  -6.001   5.136  0.00  0.00    +0.001 A 
ATOM      7  C   UNL     1      -4.308  -6.465   5.646  0.00  0.00    +0.001 A 
ATOM      8  C   UNL     1      -3.147  -5.795   5.409  0.00  0.00    +0.008 A 
ATOM      9  C   UNL     1      -3.167  -4.618   4.640  0.00  0.00    -0.016 A 
ATOM     10  C   UNL     1      -1.988  -3.906   4.373  0.00  0.00    +0.036 A 
ENDROOT
BRANCH   1  17
ATOM     11  C   UNL     1      -0.019   1.526   0.010  0.00  0.00    +0.021 C 
ATOM     12  C   UNL     1       0.002  -0.004   0.002  0.00  0.00    +0.068 C 
ATOM     13  C   UNL     1      -1.430  -0.587   0.111  0.00  0.00    +0.117 C 
ATOM     14  N   UNL     1      -1.444  -1.741   1.005  0.00  0.00    -0.323 N 
ATOM     15  C   UNL     1      -0.665  -1.603   2.140  0.00  0.00    +0.155 C 
ATOM     16  S   UNL     1       0.743  -0.671   1.550  0.00  0.00    -0.086 S 
ATOM     17  N   UNL     1      -0.902  -2.046   3.355  0.00  0.00    -0.226 NA
ATOM     18  H   UNL     1      -1.959  -2.542   0.818  0.00  0.00    +0.148 HD
ENDBRANCH   1  17
TORSDOF 1
