REMARK  Name = ZINC38234348
REMARK  7 active torsions:
REMARK  status: ('A' for Active; 'I' for Inactive)
REMARK    1  A    between atoms: C_1  and  C_2
REMARK    2  A    between atoms: C_2  and  C_3
REMARK    3  A    between atoms: C_8  and  N_9
REMARK    4  A    between atoms: C_10  and  C_12
REMARK    5  A    between atoms: C_12  and  N_13
REMARK    6  A    between atoms: C_14  and  C_16
REMARK    7  A    between atoms: C_16  and  N_17
REMARK                            x       y       z     vdW  Elec       q    Type
REMARK                         _______ _______ _______ _____ _____    ______ ____
ROOT
ATOM      1  N   UNL     1      -2.379  -0.613  -5.978  0.00  0.00    -0.306 N 
ATOM      2  C   UNL     1      -1.962  -0.444  -7.248  0.00  0.00    +0.227 C 
ATOM      3  O   UNL     1      -0.848  -0.018  -7.469  0.00  0.00    -0.274 OA
ATOM      4  H   UNL     1      -3.270  -0.954  -5.801  0.00  0.00    +0.149 HD
ENDROOT
BRANCH   1   5
ATOM      5  C   UNL     1      -1.487  -0.283  -4.864  0.00  0.00    +0.200 C 
BRANCH   5   7
ATOM      6  N   UNL     1      -1.555  -0.331  -2.392  0.00  0.00    -0.284 N 
ATOM      7  C   UNL     1      -2.188  -0.561  -3.559  0.00  0.00    +0.234 C 
ATOM      8  O   UNL     1      -3.321  -0.993  -3.560  0.00  0.00    -0.274 OA
ATOM      9  H   UNL     1      -0.673   0.072  -2.389  0.00  0.00    +0.155 HD
BRANCH   6  15
ATOM     10  C   UNL     1      -1.408  -1.132  -0.118  0.00  0.00    -0.026 A 
ATOM     11  C   UNL     1      -2.018  -1.462   1.076  0.00  0.00    +0.005 A 
ATOM     12  C   UNL     1      -3.389  -1.342   1.210  0.00  0.00    +0.000 A 
ATOM     13  C   UNL     1      -4.153  -0.890   0.149  0.00  0.00    +0.002 A 
ATOM     14  C   UNL     1      -3.549  -0.557  -1.047  0.00  0.00    +0.023 A 
ATOM     15  C   UNL     1      -2.171  -0.672  -1.183  0.00  0.00    +0.037 A 
BRANCH  10  17
ATOM     16  C   UNL     1       0.748   0.084   0.035  0.00  0.00    +0.009 C 
ATOM     17  C   UNL     1       0.087  -1.263  -0.263  0.00  0.00    +0.033 C 
ENDBRANCH  10  17
ENDBRANCH   6  15
ENDBRANCH   5   7
ENDBRANCH   1   5
BRANCH   2  18
ATOM     18  C   UNL     1      -2.880  -0.783  -8.394  0.00  0.00    +0.180 C 
BRANCH  18  19
ATOM     19  N   UNL     1      -2.197  -0.512  -9.666  0.00  0.00    -0.291 NA
ATOM     20  C   UNL     1      -1.939   0.925  -9.829  0.00  0.00    +0.104 C 
ATOM     21  C   UNL     1      -1.070   1.147 -11.072  0.00  0.00    +0.122 C 
ATOM     22  N   UNL     1      -1.722   0.498 -12.220  0.00  0.00    -0.314 N 
ATOM     23  C   UNL     1      -2.135  -0.907 -12.082  0.00  0.00    +0.122 C 
ATOM     24  C   UNL     1      -2.962  -1.048 -10.800  0.00  0.00    +0.104 C 
ATOM     25  C   UNL     1      -1.941   1.193 -13.403  0.00  0.00    +0.099 A 
ATOM     26  C   UNL     1      -1.430   2.479 -13.551  0.00  0.00    +0.042 A 
ATOM     27  C   UNL     1      -1.656   3.160 -14.734  0.00  0.00    +0.005 A 
ATOM     28  C   UNL     1      -2.387   2.529 -15.732  0.00  0.00    +0.018 A 
ATOM     29  C   UNL     1      -2.864   1.252 -15.517  0.00  0.00    +0.084 A 
ATOM     30  N   UNL     1      -2.629   0.624 -14.380  0.00  0.00    -0.350 N 
ATOM     31  H   UNL     1      -2.972  -0.275 -14.257  0.00  0.00    +0.166 HD
ENDBRANCH  18  19
ENDBRANCH   2  18
TORSDOF 6
