REMARK  Name = ZINC08726924
REMARK  8 active torsions:
REMARK  status: ('A' for Active; 'I' for Inactive)
REMARK    1  A    between atoms: C_1  and  C_2
REMARK    2  A    between atoms: C_3  and  C_26
REMARK    3  A    between atoms: C_7  and  N_25
REMARK    4  A    between atoms: C_9  and  C_11
REMARK    5  A    between atoms: C_11  and  S_12
REMARK    6  A    between atoms: S_12  and  C_13
REMARK    7  A    between atoms: N_17  and  C_18
REMARK    8  A    between atoms: C_18  and  C_19
REMARK                            x       y       z     vdW  Elec       q    Type
REMARK                         _______ _______ _______ _____ _____    ______ ____
ROOT
ATOM      1  C   UNL     1      -8.198  -6.890  -3.384  0.00  0.00    +0.045 C 
ATOM      2  C   UNL     1      -8.345  -5.549  -2.712  0.00  0.00    -0.028 A 
ATOM      3  C   UNL     1      -9.427  -5.278  -1.968  0.00  0.00    -0.008 A 
ATOM      4  S   UNL     1      -9.139  -3.610  -1.406  0.00  0.00    -0.074 S 
ATOM      5  C   UNL     1      -7.573  -3.323  -2.186  0.00  0.00    +0.114 A 
ATOM      6  C   UNL     1      -7.316  -4.535  -2.864  0.00  0.00    +0.050 A 
ATOM      7  C   UNL     1      -6.095  -4.580  -3.591  0.00  0.00    +0.128 A 
ATOM      8  N   UNL     1      -5.305  -3.518  -3.591  0.00  0.00    -0.216 NA
ATOM      9  C   UNL     1      -5.607  -2.416  -2.929  0.00  0.00    +0.143 A 
ATOM     10  N   UNL     1      -6.725  -2.314  -2.236  0.00  0.00    -0.224 NA
ATOM     11  C   UNL     1     -10.606  -6.170  -1.675  0.00  0.00    +0.052 C 
ENDROOT
BRANCH   7  12
ATOM     12  N   UNL     1      -5.740  -5.717  -4.294  0.00  0.00    -0.343 N 
ATOM     13  H   UNL     1      -6.036  -6.589  -3.987  0.00  0.00    +0.144 HD
ATOM     14  H   UNL     1      -5.195  -5.643  -5.092  0.00  0.00    +0.144 HD
ENDBRANCH   7  12
BRANCH   9  15
ATOM     15  C   UNL     1      -4.657  -1.248  -2.969  0.00  0.00    +0.153 C 
BRANCH  15  16
ATOM     16  S   UNL     1      -3.476  -1.383  -1.604  0.00  0.00    -0.077 S 
BRANCH  16  17
ATOM     17  C   UNL     1      -2.515   0.067  -1.886  0.00  0.00    +0.210 A 
ATOM     18  N   UNL     1      -2.690   0.946  -2.849  0.00  0.00    -0.102 NA
ATOM     19  N   UNL     1      -1.813   1.880  -2.771  0.00  0.00    -0.022 NA
ATOM     20  N   UNL     1      -1.030   1.677  -1.767  0.00  0.00    -0.043 NA
ATOM     21  N   UNL     1      -1.460   0.489  -1.150  0.00  0.00    -0.218 N 
BRANCH  21  22
ATOM     22  C   UNL     1      -0.885  -0.157   0.033  0.00  0.00    +0.179 C 
BRANCH  22  23
ATOM     23  C   UNL     1      -1.572   0.378   1.291  0.00  0.00    +0.140 C 
ATOM     24  C   UNL     1      -0.892  -0.206   2.548  0.00  0.00    +0.035 C 
ATOM     25  C   UNL     1      -2.105  -0.474   3.482  0.00  0.00    +0.031 C 
ATOM     26  C   UNL     1      -3.192  -0.868   2.450  0.00  0.00    +0.160 C 
ATOM     27  O   UNL     1      -2.944  -0.033   1.308  0.00  0.00    -0.375 OA
ENDBRANCH  22  23
ENDBRANCH  21  22
ENDBRANCH  16  17
ENDBRANCH  15  16
ENDBRANCH   9  15
TORSDOF 6
