REMARK  Name = ZINC28294583
REMARK  6 active torsions:
REMARK  status: ('A' for Active; 'I' for Inactive)
REMARK    1  A    between atoms: C_1  and  C_2
REMARK    2  A    between atoms: C_2  and  C_3
REMARK    3  A    between atoms: C_3  and  O_31
REMARK    4  A    between atoms: C_8  and  C_30
REMARK    5  A    between atoms: C_19  and  C_29
REMARK    6  A    between atoms: N_23  and  N_24
REMARK                            x       y       z     vdW  Elec       q    Type
REMARK                         _______ _______ _______ _____ _____    ______ ____
ROOT
ATOM      1  C   UNL     1      -1.006   2.184  -1.611  0.00  0.00    +0.071 C 
ATOM      2  C   UNL     1      -0.411   3.615  -1.584  0.00  0.00    +0.035 C 
ATOM      3  C   UNL     1       0.780   3.578  -0.586  0.00  0.00    +0.007 C 
ATOM      4  C   UNL     1       1.036   2.075  -0.418  0.00  0.00    +0.001 C 
ATOM      5  C   UNL     1      -0.397   1.508  -0.363  0.00  0.00    -0.000 C 
ATOM      6  C   UNL     1      -0.363   0.004  -0.408  0.00  0.00    +0.010 C 
ATOM      7  C   UNL     1       0.650  -0.566   0.588  0.00  0.00    +0.005 C 
ATOM      8  C   UNL     1       1.269   0.477   1.502  0.00  0.00    -0.001 C 
ATOM      9  C   UNL     1       1.894   1.631   0.726  0.00  0.00    -0.004 C 
ATOM     10  C   UNL     1       2.237   2.784   1.670  0.00  0.00    +0.004 C 
ATOM     11  C   UNL     1       2.881   2.223   2.946  0.00  0.00    +0.005 C 
ATOM     12  C   UNL     1       3.457   0.851   2.627  0.00  0.00    +0.001 C 
ATOM     13  C   UNL     1       2.333  -0.161   2.403  0.00  0.00    -0.025 C 
ATOM     14  C   UNL     1       2.927  -1.424   1.787  0.00  0.00    +0.013 C 
ATOM     15  C   UNL     1       3.926  -2.054   2.764  0.00  0.00    +0.053 C 
ATOM     16  C   UNL     1       4.905  -1.023   3.269  0.00  0.00    +0.037 C 
ATOM     17  N   UNL     1       6.156  -1.302   3.336  0.00  0.00    -0.188 NA
ATOM     18  C   UNL     1       4.411   0.343   3.702  0.00  0.00    +0.056 C 
ATOM     19  C   UNL     1       1.658  -0.512   3.730  0.00  0.00    +0.012 C 
ATOM     20  C   UNL     1      -1.191   2.015   0.842  0.00  0.00    +0.014 C 
ENDROOT
BRANCH  17  21
ATOM     21  N   UNL     1       7.045  -0.394   3.925  0.00  0.00    -0.191 N 
ATOM     22  C   UNL     1       8.371  -0.636   3.900  0.00  0.00    +0.317 C 
ATOM     23  O   UNL     1       9.143   0.152   4.411  0.00  0.00    -0.251 OA
ATOM     24  N   UNL     1       8.841  -1.752   3.308  0.00  0.00    -0.312 N 
ATOM     25  H   UNL     1       6.662   0.517   4.409  0.00  0.00    +0.179 HD
ATOM     26  H   UNL     1       9.923  -1.950   3.287  0.00  0.00    +0.147 HD
ATOM     27  H   UNL     1       8.143  -2.465   2.845  0.00  0.00    +0.147 HD
ENDBRANCH  17  21
BRANCH   1  29
ATOM     28  C   UNL     1      -3.119   2.904  -2.726  0.00  0.00    +0.007 C 
ATOM     29  C   UNL     1      -2.527   2.233  -1.486  0.00  0.00    +0.032 C 
ENDBRANCH   1  29
BRANCH   1  30
ATOM     30  O   UNL     1      -0.610   1.496  -2.791  0.00  0.00    -0.388 OA
ATOM     31  H   UNL     1       0.458   1.375  -3.025  0.00  0.00    +0.210 HD
ENDBRANCH   1  30
TORSDOF 3
