REMARK  Name = ZINC13132256
REMARK  5 active torsions:
REMARK  status: ('A' for Active; 'I' for Inactive)
REMARK    1  A    between atoms: C_1  and  C_2
REMARK    2  A    between atoms: C_6  and  N_9
REMARK    3  A    between atoms: C_7  and  C_8
REMARK    4  A    between atoms: N_12  and  S_15
REMARK    5  A    between atoms: S_15  and  C_18
REMARK                            x       y       z     vdW  Elec       q    Type
REMARK                         _______ _______ _______ _____ _____    ______ ____
ROOT
ATOM      1  N   UNL     1       0.051  -2.796   2.390  0.00  0.00    -0.327 N 
ATOM      2  C   UNL     1      -1.205  -3.197   3.038  0.00  0.00    +0.122 C 
ATOM      3  C   UNL     1      -1.179  -4.714   3.263  0.00  0.00    +0.128 C 
ATOM      4  N   UNL     1       0.094  -5.071   3.905  0.00  0.00    -0.172 NA
ATOM      5  C   UNL     1       1.351  -4.670   3.257  0.00  0.00    +0.128 C 
ATOM      6  C   UNL     1       1.324  -3.159   3.029  0.00  0.00    +0.122 C 
ENDROOT
BRANCH   1  12
ATOM      7  C   UNL     1      -0.018   1.503   0.010  0.00  0.00    +0.044 C 
ATOM      8  C   UNL     1       0.002  -0.004   0.002  0.00  0.00    -0.046 A 
ATOM      9  C   UNL     1       0.006  -0.688  -1.200  0.00  0.00    +0.004 A 
ATOM     10  C   UNL     1       0.024  -2.071  -1.212  0.00  0.00    +0.002 A 
ATOM     11  C   UNL     1       0.039  -2.773  -0.023  0.00  0.00    +0.023 A 
ATOM     12  C   UNL     1       0.036  -2.089   1.186  0.00  0.00    +0.033 A 
ATOM     13  C   UNL     1       0.023  -0.700   1.194  0.00  0.00    -0.027 A 
ATOM     14  C   UNL     1       0.025   0.046   2.504  0.00  0.00    +0.046 C 
ENDBRANCH   1  12
BRANCH   4  15
ATOM     15  S   UNL     1       0.113  -5.910   5.333  0.00  0.00    +0.080 S 
ATOM     16  O   UNL     1       1.355  -5.619   5.959  0.00  0.00    -0.151 OA
ATOM     17  O   UNL     1      -1.136  -5.662   5.965  0.00  0.00    -0.151 OA
BRANCH  15  18
ATOM     18  C   UNL     1       0.141  -7.625   4.930  0.00  0.00    +0.211 A 
ATOM     19  H   UNL     1       1.375 -10.412   4.267  0.00  0.00    +0.166 HD
ATOM     20  C   UNL     1       1.243  -8.376   4.746  0.00  0.00    +0.133 A 
ATOM     21  N   UNL     1       0.814  -9.643   4.452  0.00  0.00    -0.349 N 
ATOM     22  C   UNL     1      -0.536  -9.621   4.466  0.00  0.00    +0.198 A 
ATOM     23  N   UNL     1      -0.932  -8.412   4.758  0.00  0.00    -0.217 NA
ENDBRANCH  15  18
ENDBRANCH   4  15
TORSDOF 3
