REMARK  Name = ZINC21583094
REMARK  9 active torsions:
REMARK  status: ('A' for Active; 'I' for Inactive)
REMARK    1  A    between atoms: C_1  and  C_2
REMARK    2  A    between atoms: C_2  and  C_4
REMARK    3  A    between atoms: C_2  and  O_15
REMARK    4  A    between atoms: N_6  and  C_7
REMARK    5  A    between atoms: C_8  and  C_12
REMARK    6  A    between atoms: O_15  and  C_16
REMARK    7  A    between atoms: C_16  and  C_18
REMARK    8  A    between atoms: C_22  and  S_24
REMARK    9  A    between atoms: S_24  and  C_25
REMARK                            x       y       z     vdW  Elec       q    Type
REMARK                         _______ _______ _______ _____ _____    ______ ____
ROOT
ATOM      1  C   UNL     1      -5.356   4.715   1.521  0.00  0.00    +0.062 C 
ATOM      2  C   UNL     1      -4.933   4.459   0.073  0.00  0.00    +0.259 C 
ENDROOT
BRANCH   2   3
ATOM      3  C   UNL     1      -6.007   3.670  -0.631  0.00  0.00    +0.258 C 
ATOM      4  O   UNL     1      -5.776   2.545  -1.021  0.00  0.00    -0.271 OA
ATOM      5  N   UNL     1      -7.224   4.215  -0.829  0.00  0.00    -0.276 N 
ATOM      6  H   UNL     1      -7.433   5.236  -0.476  0.00  0.00    +0.155 HD
BRANCH   5   7
ATOM      7  C   UNL     1      -8.212   3.490  -1.477  0.00  0.00    +0.084 A 
ATOM      8  C   UNL     1      -9.516   3.874  -1.766  0.00  0.00    +0.065 A 
ATOM      9  C   UNL     1     -10.337   2.911  -2.461  0.00  0.00    +0.022 A 
ATOM     10  C   UNL     1      -9.775   1.726  -2.759  0.00  0.00    +0.048 A 
ATOM     11  S   UNL     1      -8.122   1.883  -2.116  0.00  0.00    -0.081 S 
BRANCH   8  12
ATOM     12  C   UNL     1     -10.031   5.193  -1.387  0.00  0.00    +0.244 C 
ATOM     13  O   UNL     1      -9.311   5.983  -0.804  0.00  0.00    -0.270 OA
ATOM     14  N   UNL     1     -11.301   5.531  -1.683  0.00  0.00    -0.325 N 
ATOM     15  H   UNL     1     -11.688   6.521  -1.399  0.00  0.00    +0.145 HD
ATOM     16  H   UNL     1     -11.952   4.817  -2.210  0.00  0.00    +0.145 HD
ENDBRANCH   8  12
ENDBRANCH   5   7
ENDBRANCH   2   3
BRANCH   2  17
ATOM     17  O   UNL     1      -3.691   3.707   0.057  0.00  0.00    -0.448 OA
BRANCH  17  18
ATOM     18  C   UNL     1      -2.547   4.416   0.050  0.00  0.00    +0.360 C 
ATOM     19  O   UNL     1      -2.585   5.630   0.057  0.00  0.00    -0.243 OA
BRANCH  18  20
ATOM     20  C   UNL     1      -1.240   3.716   0.034  0.00  0.00    +0.170 A 
ATOM     21  C   UNL     1      -0.046   4.441   0.026  0.00  0.00    +0.091 A 
ATOM     22  C   UNL     1       1.153   3.740   0.011  0.00  0.00    +0.136 A 
ATOM     23  N   UNL     1       1.128   2.419   0.004  0.00  0.00    -0.229 NA
ATOM     24  C   UNL     1      -0.022   1.758   0.012  0.00  0.00    +0.189 A 
ATOM     25  N   UNL     1      -1.186   2.386   0.021  0.00  0.00    -0.214 NA
ATOM     26 CL   UNL     1      -0.061   6.177   0.036  0.00  0.00    -0.080 Cl
BRANCH  24  27
ATOM     27  S   UNL     1       0.002  -0.004   0.002  0.00  0.00    -0.089 S 
ATOM     28  C   UNL     1       1.789  -0.294  -0.017  0.00  0.00    +0.093 C 
ENDBRANCH  24  27
ENDBRANCH  18  20
ENDBRANCH  17  18
ENDBRANCH   2  17
TORSDOF 7
