REMARK  Name = ZINC09334742
REMARK  4 active torsions:
REMARK  status: ('A' for Active; 'I' for Inactive)
REMARK    1  A    between atoms: C_1  and  C_2
REMARK    2  A    between atoms: C_7  and  C_8
REMARK    3  A    between atoms: C_13  and  C_29
REMARK    4  A    between atoms: C_13  and  C_30
REMARK                            x       y       z     vdW  Elec       q    Type
REMARK                         _______ _______ _______ _____ _____    ______ ____
ROOT
ATOM      1  C   UNL     1      -3.392   2.862   3.882  0.00  0.00    +0.155 C 
ATOM      2  C   UNL     1      -2.571   2.386   2.700  0.00  0.00    +0.129 C 
ATOM      3  C   UNL     1      -2.819   1.199   2.128  0.00  0.00    +0.145 C 
ATOM      4  C   UNL     1      -2.013   0.716   0.951  0.00  0.00    +0.081 C 
ATOM      5  C   UNL     1      -0.601   1.302   1.027  0.00  0.00    -0.023 C 
ATOM      6  C   UNL     1      -0.696   2.830   1.067  0.00  0.00    +0.058 C 
ATOM      7  C   UNL     1      -1.551   3.241   2.239  0.00  0.00    +0.036 C 
ATOM      8  N   UNL     1      -1.346   4.393   2.830  0.00  0.00    -0.223 NA
ATOM      9  C   UNL     1      -2.051   4.844   3.875  0.00  0.00    +0.219 C 
ATOM     10  N   UNL     1      -3.031   4.183   4.430  0.00  0.00    -0.243 NA
ATOM     11  N   UNL     1      -1.723   6.082   4.397  0.00  0.00    -0.238 N 
ATOM     12  C   UNL     1      -0.694   6.815   3.841  0.00  0.00    +0.295 A 
ATOM     13  N   UNL     1      -0.303   7.992   4.255  0.00  0.00    -0.195 NA
ATOM     14  C   UNL     1       0.732   8.408   3.475  0.00  0.00    +0.111 A 
ATOM     15  C   UNL     1       1.523   9.557   3.455  0.00  0.00    +0.031 A 
ATOM     16  C   UNL     1       2.520   9.685   2.513  0.00  0.00    +0.002 A 
ATOM     17  C   UNL     1       2.740   8.679   1.585  0.00  0.00    +0.004 A 
ATOM     18  C   UNL     1       1.965   7.537   1.593  0.00  0.00    +0.048 A 
ATOM     19  C   UNL     1       0.958   7.393   2.533  0.00  0.00    +0.157 A 
ATOM     20  O   UNL     1       0.057   6.420   2.797  0.00  0.00    -0.424 OA
ATOM     21  C   UNL     1       0.200   0.871  -0.204  0.00  0.00    +0.011 C 
ATOM     22  C   UNL     1       0.096   0.799   2.293  0.00  0.00    +0.011 C 
ATOM     23  O   UNL     1      -3.806   0.422   2.617  0.00  0.00    -0.297 OA
ATOM     24  H   UNL     1      -2.216   6.436   5.154  0.00  0.00    +0.159 HD
ENDROOT
BRANCH   1  31
ATOM     25  C   UNL     1      -5.514   2.530   5.814  0.00  0.00    +0.044 C 
ATOM     26  C   UNL     1      -4.270   1.684   5.909  0.00  0.00    -0.045 A 
ATOM     27  C   UNL     1      -4.145   0.750   6.920  0.00  0.00    +0.004 A 
ATOM     28  C   UNL     1      -3.004  -0.026   7.006  0.00  0.00    +0.000 A 
ATOM     29  C   UNL     1      -1.989   0.132   6.081  0.00  0.00    +0.000 A 
ATOM     30  C   UNL     1      -2.116   1.063   5.068  0.00  0.00    +0.006 A 
ATOM     31  C   UNL     1      -3.255   1.843   4.984  0.00  0.00    -0.019 A 
ENDBRANCH   1  31
TORSDOF 1
