REMARK  Name = ZINC00705475
REMARK  6 active torsions:
REMARK  status: ('A' for Active; 'I' for Inactive)
REMARK    1  A    between atoms: C_1  and  C_2
REMARK    2  A    between atoms: C_2  and  C_33
REMARK    3  A    between atoms: C_6  and  C_21
REMARK    4  A    between atoms: C_8  and  C_19
REMARK    5  A    between atoms: C_9  and  N_18
REMARK    6  A    between atoms: N_10  and  C_11
REMARK                            x       y       z     vdW  Elec       q    Type
REMARK                         _______ _______ _______ _____ _____    ______ ____
ROOT
ATOM      1  C   UNL     1      -0.980   0.034  -1.737  0.00  0.00    +0.011 C 
ATOM      2  C   UNL     1       0.110  -0.290  -2.761  0.00  0.00    -0.023 C 
ATOM      3  C   UNL     1       1.042  -1.364  -2.198  0.00  0.00    +0.058 C 
ATOM      4  C   UNL     1       1.713  -0.849  -0.948  0.00  0.00    +0.025 C 
ATOM      5  C   UNL     1       1.976   0.465  -0.791  0.00  0.00    +0.025 C 
ATOM      6  C   UNL     1       2.648   0.977   0.458  0.00  0.00    +0.097 C 
ATOM      7  C   UNL     1       3.324  -0.135   1.205  0.00  0.00    +0.077 C 
ATOM      8  C   UNL     1       3.005  -1.434   0.969  0.00  0.00    +0.107 C 
ATOM      9  N   UNL     1       2.054  -1.751   0.026  0.00  0.00    -0.260 N 
ATOM     10  C   UNL     1       1.629   1.397  -1.785  0.00  0.00    +0.162 C 
ATOM     11  O   UNL     1       1.894   2.572  -1.620  0.00  0.00    -0.292 OA
ATOM     12  C   UNL     1       0.937   0.968  -3.049  0.00  0.00    +0.086 C 
ATOM     13  C   UNL     1      -0.534  -0.789  -4.056  0.00  0.00    +0.011 C 
ENDROOT
BRANCH   6  14
ATOM     14  C   UNL     1       1.614   1.614   1.350  0.00  0.00    -0.031 A 
ATOM     15  C   UNL     1       0.551   0.864   1.819  0.00  0.00    +0.008 A 
ATOM     16  C   UNL     1      -0.403   1.445   2.634  0.00  0.00    +0.050 A 
ATOM     17  C   UNL     1      -0.290   2.779   2.990  0.00  0.00    +0.166 A 
ATOM     18  C   UNL     1       0.780   3.535   2.518  0.00  0.00    +0.167 A 
ATOM     19  C   UNL     1       1.730   2.947   1.698  0.00  0.00    +0.054 A 
ATOM     20  O   UNL     1       0.664   4.806   3.001  0.00  0.00    -0.453 OA
ATOM     21  C   UNL     1      -0.261   4.716   4.101  0.00  0.00    +0.466 C 
ATOM     22  O   UNL     1      -1.077   3.578   3.769  0.00  0.00    -0.453 OA
ENDBRANCH   6  14
BRANCH   9  23
ATOM     23  C   UNL     1       1.430  -3.004   0.062  0.00  0.00    +0.040 A 
ATOM     24  C   UNL     1       0.262  -3.179   0.792  0.00  0.00    +0.025 A 
ATOM     25  C   UNL     1      -0.354  -4.415   0.821  0.00  0.00    +0.022 A 
ATOM     26  C   UNL     1       0.198  -5.481   0.133  0.00  0.00    +0.041 A 
ATOM     27  C   UNL     1       1.366  -5.311  -0.591  0.00  0.00    +0.022 A 
ATOM     28  C   UNL     1       1.982  -4.076  -0.628  0.00  0.00    +0.025 A 
ATOM     29 CL   UNL     1      -0.575  -7.035   0.177  0.00  0.00    -0.084 Cl
ENDBRANCH   9  23
BRANCH   8  30
ATOM     30  N   UNL     1       3.632  -2.433   1.674  0.00  0.00    -0.345 N 
ATOM     31  H   UNL     1       3.471  -3.362   1.446  0.00  0.00    +0.144 HD
ATOM     32  H   UNL     1       4.237  -2.209   2.398  0.00  0.00    +0.144 HD
ENDBRANCH   8  30
BRANCH   7  33
ATOM     33  C   UNL     1       4.322   0.179   2.183  0.00  0.00    +0.099 C 
ATOM     34  N   UNL     1       5.114   0.428   2.958  0.00  0.00    -0.191 NA
ENDBRANCH   7  33
TORSDOF 4
