REMARK  Name = ZINC14843274
REMARK  8 active torsions:
REMARK  status: ('A' for Active; 'I' for Inactive)
REMARK    1  A    between atoms: C_1  and  C_2
REMARK    2  A    between atoms: C_2  and  C_3
REMARK    3  A    between atoms: C_2  and  C_4
REMARK    4  A    between atoms: C_4  and  C_6
REMARK    5  A    between atoms: C_4  and  N_22
REMARK    6  A    between atoms: N_8  and  N_9
REMARK    7  A    between atoms: C_10  and  C_12
REMARK    8  A    between atoms: C_23  and  C_25
REMARK                            x       y       z     vdW  Elec       q    Type
REMARK                         _______ _______ _______ _____ _____    ______ ____
ROOT
ATOM      1  C   UNL     1       2.462   0.920  -0.017  0.00  0.00    +0.163 C 
ENDROOT
BRANCH   1   2
ATOM      2  C   UNL     1       1.147   1.655   0.000  0.00  0.00    +0.250 C 
ATOM      3  O   UNL     1       1.130   2.868   0.007  0.00  0.00    -0.272 OA
ATOM      4  N   UNL     1      -0.011   0.966   0.007  0.00  0.00    -0.233 N 
ATOM      5  H   UNL     1       0.002  -0.004   0.002  0.00  0.00    +0.173 HD
BRANCH   4   6
ATOM      6  N   UNL     1      -1.234   1.650   0.017  0.00  0.00    -0.234 N 
ATOM      7  C   UNL     1      -2.392   0.960   0.019  0.00  0.00    +0.235 C 
ATOM      8  O   UNL     1      -2.375  -0.253   0.012  0.00  0.00    -0.274 OA
ATOM      9  H   UNL     1      -1.247   2.620   0.022  0.00  0.00    +0.173 HD
BRANCH   7  10
ATOM     10  C   UNL     1      -3.707   1.696   0.029  0.00  0.00    +0.049 C 
ATOM     11  C   UNL     1      -3.794   2.567   1.283  0.00  0.00    +0.019 C 
ATOM     12  C   UNL     1      -5.129   3.314   1.294  0.00  0.00    -0.009 C 
ATOM     13  C   UNL     1      -6.279   2.304   1.294  0.00  0.00    +0.007 C 
ATOM     14  C   UNL     1      -6.191   1.433   0.039  0.00  0.00    -0.009 C 
ATOM     15  C   UNL     1      -4.856   0.686   0.029  0.00  0.00    +0.019 C 
ATOM     16  C   UNL     1      -6.290   2.318  -1.205  0.00  0.00    +0.007 C 
ATOM     17  C   UNL     1      -5.141   3.328  -1.205  0.00  0.00    -0.009 C 
ATOM     18  C   UNL     1      -5.228   4.199   0.050  0.00  0.00    +0.007 C 
ATOM     19  C   UNL     1      -3.806   2.581  -1.215  0.00  0.00    +0.019 C 
ENDBRANCH   7  10
ENDBRANCH   4   6
ENDBRANCH   1   2
BRANCH   1  20
ATOM     20  N   UNL     1       3.562   1.887  -0.022  0.00  0.00    -0.303 N 
ATOM     21  C   UNL     1       4.762   1.540  -0.528  0.00  0.00    +0.220 C 
ATOM     22  O   UNL     1       4.931   0.427  -0.980  0.00  0.00    -0.275 OA
ATOM     23  H   UNL     1       3.428   2.777   0.339  0.00  0.00    +0.149 HD
BRANCH  21  24
ATOM     24  C   UNL     1       5.894   2.535  -0.534  0.00  0.00    +0.048 C 
ATOM     25  C   UNL     1       6.208   2.958   0.902  0.00  0.00    +0.019 C 
ATOM     26  C   UNL     1       7.357   3.968   0.897  0.00  0.00    -0.009 C 
ATOM     27  C   UNL     1       8.597   3.326   0.272  0.00  0.00    +0.007 C 
ATOM     28  C   UNL     1       8.284   2.902  -1.164  0.00  0.00    -0.009 C 
ATOM     29  C   UNL     1       7.134   1.893  -1.159  0.00  0.00    +0.019 C 
ATOM     30  C   UNL     1       7.879   4.131  -1.981  0.00  0.00    +0.007 C 
ATOM     31  C   UNL     1       6.639   4.773  -1.356  0.00  0.00    -0.009 C 
ATOM     32  C   UNL     1       6.952   5.197   0.080  0.00  0.00    +0.007 C 
ATOM     33  C   UNL     1       5.489   3.763  -1.351  0.00  0.00    +0.019 C 
ENDBRANCH  21  24
ENDBRANCH   1  20
BRANCH   1  35
ATOM     34  C   UNL     1       3.902  -0.712   1.210  0.00  0.00    +0.009 C 
ATOM     35  C   UNL     1       2.567   0.035   1.227  0.00  0.00    +0.012 C 
ATOM     36  C   UNL     1       2.486   0.906   2.482  0.00  0.00    +0.009 C 
ENDBRANCH   1  35
TORSDOF 6
