REMARK  Name = ZINC41585918
REMARK  5 active torsions:
REMARK  status: ('A' for Active; 'I' for Inactive)
REMARK    1  A    between atoms: C_1  and  N_2
REMARK    2  A    between atoms: C_4  and  C_11
REMARK    3  A    between atoms: C_18  and  O_35
REMARK    4  A    between atoms: C_19  and  C_22
REMARK    5  A    between atoms: C_22  and  N_23
REMARK                            x       y       z     vdW  Elec       q    Type
REMARK                         _______ _______ _______ _____ _____    ______ ____
ROOT
ATOM      1  C   UNL     1       0.138  -3.170  -1.677  0.00  0.00    +0.060 C 
ATOM      2  C   UNL     1       0.010  -2.995  -3.022  0.00  0.00    +0.176 C 
ATOM      3  C   UNL     1      -0.015  -1.746  -3.697  0.00  0.00    +0.231 C 
ATOM      4  O   UNL     1       0.070  -0.634  -3.202  0.00  0.00    -0.283 OA
ATOM      5  C   UNL     1      -0.168  -2.081  -5.123  0.00  0.00    +0.068 A 
ATOM      6  C   UNL     1      -0.258  -1.316  -6.286  0.00  0.00    +0.019 A 
ATOM      7  C   UNL     1      -0.399  -1.932  -7.497  0.00  0.00    +0.046 A 
ATOM      8  C   UNL     1      -0.454  -3.321  -7.574  0.00  0.00    +0.125 A 
ATOM      9  C   UNL     1      -0.365  -4.095  -6.428  0.00  0.00    +0.051 A 
ATOM     10  C   UNL     1      -0.221  -3.483  -5.190  0.00  0.00    +0.147 A 
ATOM     11  O   UNL     1      -0.108  -3.983  -3.941  0.00  0.00    -0.451 OA
ENDROOT
BRANCH   1  15
ATOM     12  C   UNL     1      -1.095   1.265   0.276  0.00  0.00    +0.149 C 
ATOM     13  N   UNL     1      -0.449  -0.038   0.103  0.00  0.00    -0.349 N 
ATOM     14  C   UNL     1      -0.681  -0.884  -0.931  0.00  0.00    +0.094 A 
ATOM     15  C   UNL     1       0.091  -2.016  -0.781  0.00  0.00    +0.004 A 
ATOM     16  C   UNL     1       0.862  -1.829   0.463  0.00  0.00    +0.007 A 
ATOM     17  C   UNL     1       0.485  -0.574   0.967  0.00  0.00    +0.049 A 
ATOM     18  C   UNL     1       1.058  -0.113   2.148  0.00  0.00    +0.026 A 
ATOM     19  C   UNL     1       1.988  -0.886   2.809  0.00  0.00    +0.002 A 
ATOM     20  C   UNL     1       2.361  -2.125   2.308  0.00  0.00    +0.001 A 
ATOM     21  C   UNL     1       1.799  -2.602   1.144  0.00  0.00    +0.010 A 
ENDBRANCH   1  15
BRANCH   8  22
ATOM     22  O   UNL     1      -0.595  -3.923  -8.783  0.00  0.00    -0.506 OA
ATOM     23  H   UNL     1       0.243  -4.127  -9.221  0.00  0.00    +0.292 HD
ENDBRANCH   8  22
BRANCH   9  24
ATOM     24  C   UNL     1      -0.425  -5.597  -6.525  0.00  0.00    +0.127 C 
BRANCH  24  25
ATOM     25  N   UNL     1       0.932  -6.132  -6.694  0.00  0.00    -0.295 NA
ATOM     26  C   UNL     1       1.748  -5.884  -5.498  0.00  0.00    +0.103 C 
ATOM     27  C   UNL     1       3.199  -6.291  -5.780  0.00  0.00    +0.122 C 
ATOM     28  N   UNL     1       3.208  -7.681  -6.263  0.00  0.00    -0.314 N 
ATOM     29  C   UNL     1       2.312  -8.038  -7.373  0.00  0.00    +0.122 C 
ATOM     30  C   UNL     1       0.897  -7.562  -7.029  0.00  0.00    +0.103 C 
ATOM     31  C   UNL     1       4.043  -8.631  -5.686  0.00  0.00    +0.099 A 
ATOM     32  C   UNL     1       4.132  -9.901  -6.245  0.00  0.00    +0.042 A 
ATOM     33  C   UNL     1       4.965 -10.837  -5.660  0.00  0.00    +0.005 A 
ATOM     34  C   UNL     1       5.685 -10.469  -4.531  0.00  0.00    +0.018 A 
ATOM     35  C   UNL     1       5.548  -9.191  -4.029  0.00  0.00    +0.084 A 
ATOM     36  N   UNL     1       4.749  -8.317  -4.611  0.00  0.00    -0.350 N 
ATOM     37  H   UNL     1       4.675  -7.424  -4.240  0.00  0.00    +0.166 HD
ENDBRANCH  24  25
ENDBRANCH   9  24
TORSDOF 4
