REMARK  Name = ZINC13077335
REMARK  9 active torsions:
REMARK  status: ('A' for Active; 'I' for Inactive)
REMARK    1  A    between atoms: C_1  and  C_2
REMARK    2  A    between atoms: C_2  and  O_3
REMARK    3  A    between atoms: O_3  and  C_4
REMARK    4  A    between atoms: C_13  and  C_14
REMARK    5  A    between atoms: C_17  and  C_24
REMARK    6  A    between atoms: C_27  and  O_30
REMARK    7  A    between atoms: O_30  and  C_31
REMARK    8  A    between atoms: C_31  and  C_33
REMARK    9  A    between atoms: C_31  and  C_34
REMARK                            x       y       z     vdW  Elec       q    Type
REMARK                         _______ _______ _______ _____ _____    ______ ____
ROOT
ATOM      1  C   UNL     1       3.239   3.490  -7.476  0.00  0.00    +0.171 C 
ATOM      2  C   UNL     1       2.544   3.193  -6.174  0.00  0.00    +0.028 C 
ATOM      3  C   UNL     1       3.144   3.267  -4.994  0.00  0.00    +0.039 C 
ATOM      4  N   UNL     1       4.487   3.645  -4.865  0.00  0.00    -0.282 N 
ATOM      5  C   UNL     1       5.103   4.179  -5.984  0.00  0.00    +0.240 A 
ATOM      6  N   UNL     1       4.525   4.123  -7.212  0.00  0.00    -0.202 N 
ATOM      7  N   UNL     1       5.412   4.768  -8.072  0.00  0.00    -0.042 NA
ATOM      8  N   UNL     1       6.416   5.148  -7.348  0.00  0.00    -0.021 NA
ATOM      9  N   UNL     1       6.239   4.803  -6.118  0.00  0.00    -0.092 NA
ATOM     10  H   UNL     1       4.966   3.534  -4.029  0.00  0.00    +0.155 HD
ENDROOT
BRANCH   1  20
ATOM     11  C   UNL     1       4.278   1.240  -7.724  0.00  0.00    +0.127 A 
ATOM     12  C   UNL     1       4.487   0.040  -8.412  0.00  0.00    +0.046 A 
ATOM     13  C   UNL     1       3.886  -0.192  -9.610  0.00  0.00    +0.012 A 
ATOM     14  C   UNL     1       3.039   0.782 -10.166  0.00  0.00    -0.017 A 
ATOM     15  C   UNL     1       2.403   0.574 -11.401  0.00  0.00    +0.008 A 
ATOM     16  C   UNL     1       1.589   1.539 -11.911  0.00  0.00    +0.001 A 
ATOM     17  C   UNL     1       1.375   2.733 -11.225  0.00  0.00    +0.001 A 
ATOM     18  C   UNL     1       1.974   2.969 -10.026  0.00  0.00    +0.009 A 
ATOM     19  C   UNL     1       2.821   1.996  -9.468  0.00  0.00    -0.009 A 
ATOM     20  C   UNL     1       3.457   2.205  -8.233  0.00  0.00    +0.030 A 
BRANCH  11  21
ATOM     21  O   UNL     1       4.896   1.446  -6.532  0.00  0.00    -0.492 OA
BRANCH  21  23
ATOM     22  C   UNL     1       6.346   0.809  -4.706  0.00  0.00    +0.048 C 
ATOM     23  C   UNL     1       5.743   0.400  -6.051  0.00  0.00    +0.225 C 
ENDBRANCH  21  23
ENDBRANCH  11  21
ENDBRANCH   1  20
BRANCH   3  24
ATOM     24  C   UNL     1       2.368   2.946  -3.774  0.00  0.00    -0.004 A 
ATOM     25  C   UNL     1       2.976   3.015  -2.521  0.00  0.00    +0.013 A 
ATOM     26  C   UNL     1       2.251   2.716  -1.387  0.00  0.00    +0.046 A 
ATOM     27  C   UNL     1       0.917   2.345  -1.492  0.00  0.00    +0.122 A 
ATOM     28  C   UNL     1       0.310   2.270  -2.738  0.00  0.00    +0.046 A 
ATOM     29  C   UNL     1       1.028   2.573  -3.876  0.00  0.00    +0.013 A 
BRANCH  27  30
ATOM     30  O   UNL     1       0.206   2.050  -0.373  0.00  0.00    -0.478 OA
BRANCH  30  31
ATOM     31  C   UNL     1       0.921   2.028   0.864  0.00  0.00    +0.282 C 
ATOM     32  C   UNL     1       1.018   3.449   1.423  0.00  0.00    +0.064 C 
BRANCH  31  33
ATOM     33  C   UNL     1       0.195   1.149   1.849  0.00  0.00    +0.395 C 
ATOM     34  O   UNL     1      -0.875   0.671   1.557  0.00  0.00    -0.242 OA
ATOM     35  O   UNL     1       0.737   0.897   3.051  0.00  0.00    -0.242 OA
ENDBRANCH  31  33
ENDBRANCH  30  31
ENDBRANCH  27  30
ENDBRANCH   3  24
TORSDOF 7
