REMARK  Name = ZINC05377625
REMARK  3 active torsions:
REMARK  status: ('A' for Active; 'I' for Inactive)
REMARK    1  A    between atoms: C_2  and  N_3
REMARK    2  A    between atoms: C_7  and  C_8
REMARK    3  A    between atoms: C_8  and  O_14
REMARK                            x       y       z     vdW  Elec       q    Type
REMARK                         _______ _______ _______ _____ _____    ______ ____
ROOT
ATOM      1  C   UNL     1      -1.663   4.365   0.041  0.00  0.00    +0.106 C 
ATOM      2  C   UNL     1      -2.557   4.336  -1.200  0.00  0.00    +0.041 C 
ATOM      3  C   UNL     1      -3.491   5.548  -1.184  0.00  0.00    +0.003 C 
ATOM      4  C   UNL     1      -2.659   6.832  -1.185  0.00  0.00    +0.000 C 
ATOM      5  C   UNL     1      -1.765   6.862   0.056  0.00  0.00    +0.003 C 
ATOM      6  C   UNL     1      -0.831   5.650   0.041  0.00  0.00    +0.041 C 
ENDROOT
BRANCH   1  11
ATOM      7  N   UNL     1      -1.130   1.862   0.017  0.00  0.00    -0.324 N 
ATOM      8  C   UNL     1      -0.013   1.076   0.008  0.00  0.00    +0.091 A 
ATOM      9  C   UNL     1       1.069   1.881   0.002  0.00  0.00    +0.020 A 
ATOM     10  C   UNL     1       0.605   3.212   0.013  0.00  0.00    +0.026 A 
ATOM     11  C   UNL     1      -0.743   3.172   0.026  0.00  0.00    +0.055 A 
BRANCH   7  13
ATOM     12  C   UNL     1      -2.695   0.108   0.014  0.00  0.00    +0.028 C 
ATOM     13  C   UNL     1      -2.448   1.403   0.020  0.00  0.00    +0.083 C 
ENDBRANCH   7  13
ENDBRANCH   1  11
BRANCH   1  14
ATOM     14  O   UNL     1      -2.476   4.325   1.216  0.00  0.00    -0.383 OA
ATOM     15  H   UNL     1      -3.031   3.536   1.282  0.00  0.00    +0.211 HD
ENDBRANCH   1  14
TORSDOF 3
