REMARK  Name = ZINC38701156
REMARK  13 active torsions:
REMARK  status: ('A' for Active; 'I' for Inactive)
REMARK    1  A    between atoms: C_1  and  C_2
REMARK    2  A    between atoms: C_2  and  C_3
REMARK    3  A    between atoms: C_3  and  C_4
REMARK    4  A    between atoms: C_4  and  C_5
REMARK    5  A    between atoms: C_5  and  O_6
REMARK    6  A    between atoms: O_6  and  C_7
REMARK    7  A    between atoms: C_11  and  C_13
REMARK    8  A    between atoms: C_18  and  O_27
REMARK    9  A    between atoms: C_22  and  N_26
REMARK   10  A    between atoms: C_23  and  C_24
REMARK   11  A    between atoms: O_27  and  C_28
REMARK   12  A    between atoms: C_28  and  C_30
REMARK   13  A    between atoms: C_31  and  C_40
REMARK                            x       y       z     vdW  Elec       q    Type
REMARK                         _______ _______ _______ _____ _____    ______ ____
ROOT
ATOM      1  C   UNL     1       2.850  -8.037  -4.858  0.00  0.00    +0.098 C 
ATOM      2  C   UNL     1       2.127  -8.498  -6.097  0.00  0.00    +0.008 A 
ATOM      3  C   UNL     1       0.747  -8.596  -6.083  0.00  0.00    +0.012 A 
ATOM      4  C   UNL     1       0.068  -9.017  -7.209  0.00  0.00    +0.047 A 
ATOM      5  C   UNL     1       0.770  -9.342  -8.361  0.00  0.00    +0.136 A 
ATOM      6  C   UNL     1       2.152  -9.245  -8.378  0.00  0.00    +0.093 A 
ATOM      7  C   UNL     1       2.834  -8.821  -7.245  0.00  0.00    +0.138 A 
ATOM      8  O   UNL     1       4.186  -8.731  -7.278  0.00  0.00    -0.441 OA
ATOM      9  C   UNL     1       4.885  -8.707  -6.130  0.00  0.00    +0.199 C 
ATOM     10  C   UNL     1       4.309  -8.385  -4.952  0.00  0.00    +0.098 C 
ENDROOT
BRANCH   1  15
ATOM     11  C   UNL     1       1.951  -4.637  -3.475  0.00  0.00    +0.121 A 
ATOM     12  C   UNL     1       2.430  -3.800  -4.472  0.00  0.00    +0.045 A 
ATOM     13  C   UNL     1       3.043  -4.337  -5.588  0.00  0.00    +0.004 A 
ATOM     14  C   UNL     1       3.178  -5.707  -5.712  0.00  0.00    +0.005 A 
ATOM     15  C   UNL     1       2.701  -6.544  -4.720  0.00  0.00    -0.031 A 
ATOM     16  C   UNL     1       2.093  -6.012  -3.599  0.00  0.00    +0.050 A 
BRANCH  11  17
ATOM     17  O   UNL     1       1.349  -4.112  -2.376  0.00  0.00    -0.492 OA
BRANCH  17  18
ATOM     18  C   UNL     1       1.237  -2.688  -2.316  0.00  0.00    +0.229 C 
BRANCH  18  19
ATOM     19  C   UNL     1       0.537  -2.286  -1.016  0.00  0.00    +0.041 C 
BRANCH  19  20
ATOM     20  C   UNL     1       0.418  -0.762  -0.951  0.00  0.00    +0.003 C 
BRANCH  20  22
ATOM     21  C   UNL     1      -0.402   1.163   0.413  0.00  0.00    +0.004 C 
ATOM     22  C   UNL     1      -0.282  -0.360   0.349  0.00  0.00    -0.003 C 
ENDBRANCH  20  22
ENDBRANCH  19  20
ENDBRANCH  18  19
ENDBRANCH  17  18
ENDBRANCH  11  17
ENDBRANCH   1  15
BRANCH   9  23
ATOM     23  N   UNL     1       6.221  -9.017  -6.158  0.00  0.00    -0.328 N 
ATOM     24  H   UNL     1       6.648  -9.249  -6.997  0.00  0.00    +0.145 HD
ATOM     25  H   UNL     1       6.739  -9.005  -5.338  0.00  0.00    +0.145 HD
ENDBRANCH   9  23
BRANCH  10  26
ATOM     26  C   UNL     1       5.109  -8.377  -3.764  0.00  0.00    +0.101 C 
ATOM     27  N   UNL     1       5.744  -8.371  -2.822  0.00  0.00    -0.191 NA
ENDBRANCH  10  26
BRANCH   5  28
ATOM     28  O   UNL     1       0.103  -9.757  -9.470  0.00  0.00    -0.420 OA
BRANCH  28  29
ATOM     29  C   UNL     1       0.237 -11.045  -9.845  0.00  0.00    +0.380 C 
ATOM     30  O   UNL     1       0.853 -11.823  -9.141  0.00  0.00    -0.241 OA
BRANCH  29  31
ATOM     31  C   UNL     1      -0.359 -11.510 -11.103  0.00  0.00    +0.216 A 
ATOM     32  C   UNL     1      -0.293 -12.781 -11.578  0.00  0.00    +0.010 A 
ATOM     33  C   UNL     1      -1.020 -12.778 -12.847  0.00  0.00    +0.027 A 
ATOM     34  C   UNL     1      -1.309 -13.754 -13.805  0.00  0.00    +0.050 A 
ATOM     35  C   UNL     1      -2.039 -13.414 -14.923  0.00  0.00    +0.124 A 
ATOM     36  C   UNL     1      -2.485 -12.108 -15.098  0.00  0.00    +0.042 A 
ATOM     37  C   UNL     1      -2.206 -11.137 -14.161  0.00  0.00    +0.050 A 
ATOM     38  C   UNL     1      -1.472 -11.458 -13.025  0.00  0.00    +0.136 A 
ATOM     39  O   UNL     1      -1.061 -10.739 -11.961  0.00  0.00    -0.448 OA
ATOM     40  F   UNL     1      -2.322 -14.352 -15.853  0.00  0.00    -0.205 F 
ATOM     41  C   UNL     1       0.390 -13.957 -10.928  0.00  0.00    +0.048 C 
ENDBRANCH  29  31
ENDBRANCH  28  29
ENDBRANCH   5  28
TORSDOF 11
