REMARK  Name = ZINC34829977
REMARK  7 active torsions:
REMARK  status: ('A' for Active; 'I' for Inactive)
REMARK    1  A    between atoms: C_1  and  C_2
REMARK    2  A    between atoms: N_11  and  C_12
REMARK    3  A    between atoms: C_17  and  O_18
REMARK    4  A    between atoms: O_18  and  C_19
REMARK    5  A    between atoms: C_20  and  C_22
REMARK    6  A    between atoms: C_22  and  N_23
REMARK    7  A    between atoms: C_31  and  C_33
REMARK                            x       y       z     vdW  Elec       q    Type
REMARK                         _______ _______ _______ _____ _____    ______ ____
ROOT
ATOM      1  C   UNL     1      -1.029   1.079   0.837  0.00  0.00    +0.030 C 
ATOM      2  C   UNL     1      -0.640  -0.384   0.617  0.00  0.00    +0.092 C 
ATOM      3  C   UNL     1      -0.265  -0.601  -0.855  0.00  0.00    +0.130 C 
ATOM      4  N   UNL     1       0.349  -1.929  -0.992  0.00  0.00    -0.297 N 
ATOM      5  C   UNL     1       1.512  -2.261  -0.157  0.00  0.00    +0.127 C 
ATOM      6  C   UNL     1       1.137  -2.045   1.314  0.00  0.00    +0.128 C 
ATOM      7  N   UNL     1       0.520  -0.718   1.454  0.00  0.00    -0.280 N 
ATOM      8  C   UNL     1       1.013   0.179   2.332  0.00  0.00    +0.307 C 
ATOM      9  O   UNL     1       0.419   1.220   2.535  0.00  0.00    -0.252 OA
ATOM     10  N   UNL     1       2.163  -0.080   2.985  0.00  0.00    -0.266 N 
ATOM     11  C   UNL     1      -0.145  -2.826  -1.868  0.00  0.00    +0.230 C 
ATOM     12  O   UNL     1      -1.105  -2.540  -2.552  0.00  0.00    -0.274 OA
ATOM     13  H   UNL     1       2.680  -0.870   2.763  0.00  0.00    +0.156 HD
ENDROOT
BRANCH  10  14
ATOM     14  C   UNL     1       2.613   0.794   3.985  0.00  0.00    +0.077 A 
ATOM     15  C   UNL     1       2.284   2.140   3.931  0.00  0.00    +0.027 A 
ATOM     16  C   UNL     1       2.729   3.000   4.918  0.00  0.00    +0.002 A 
ATOM     17  C   UNL     1       3.501   2.521   5.960  0.00  0.00    +0.004 A 
ATOM     18  C   UNL     1       3.833   1.180   6.020  0.00  0.00    +0.047 A 
ATOM     19  C   UNL     1       3.386   0.311   5.038  0.00  0.00    +0.141 A 
BRANCH  19  20
ATOM     20  O   UNL     1       3.707  -1.009   5.099  0.00  0.00    -0.493 OA
ATOM     21  C   UNL     1       4.503  -1.433   6.207  0.00  0.00    +0.277 C 
ENDBRANCH  19  20
ENDBRANCH  10  14
BRANCH  11  22
ATOM     22  C   UNL     1       0.495  -4.184  -1.998  0.00  0.00    +0.181 C 
BRANCH  22  23
ATOM     23  N   UNL     1      -0.223  -4.969  -3.011  0.00  0.00    -0.283 NA
ATOM     24  C   UNL     1      -0.090  -4.360  -4.342  0.00  0.00    +0.091 C 
ATOM     25  C   UNL     1      -1.164  -4.953  -5.269  0.00  0.00    +0.058 C 
ATOM     26  C   UNL     1      -1.153  -6.436  -5.088  0.00  0.00    -0.004 A 
ATOM     27  C   UNL     1      -0.544  -7.128  -4.084  0.00  0.00    -0.016 A 
ATOM     28  C   UNL     1      -0.665  -8.515  -4.122  0.00  0.00    +0.013 A 
ATOM     29  C   UNL     1      -1.363  -9.106  -5.121  0.00  0.00    +0.046 A 
ATOM     30  S   UNL     1      -1.897  -7.697  -6.082  0.00  0.00    -0.101 S 
ATOM     31  C   UNL     1       0.216  -6.370  -3.000  0.00  0.00    +0.118 C 
BRANCH  31  32
ATOM     32  C   UNL     1      -0.079  -6.982  -1.654  0.00  0.00    -0.023 A 
ATOM     33  C   UNL     1      -1.265  -6.689  -1.007  0.00  0.00    +0.006 A 
ATOM     34  C   UNL     1      -1.537  -7.250   0.227  0.00  0.00    +0.003 A 
ATOM     35  C   UNL     1      -0.622  -8.102   0.816  0.00  0.00    +0.038 A 
ATOM     36  C   UNL     1       0.566  -8.396   0.169  0.00  0.00    +0.124 A 
ATOM     37  C   UNL     1       0.835  -7.839  -1.070  0.00  0.00    +0.043 A 
ATOM     38  F   UNL     1       1.461  -9.229   0.744  0.00  0.00    -0.205 F 
ENDBRANCH  31  32
ENDBRANCH  22  23
ENDBRANCH  11  22
TORSDOF 5
