REMARK  Name = ZINC36741842
REMARK  13 active torsions:
REMARK  status: ('A' for Active; 'I' for Inactive)
REMARK    1  A    between atoms: C_1  and  C_2
REMARK    2  A    between atoms: C_2  and  C_3
REMARK    3  A    between atoms: C_2  and  C_4
REMARK    4  A    between atoms: C_4  and  C_6
REMARK    5  A    between atoms: C_4  and  N_19
REMARK    6  A    between atoms: N_8  and  C_9
REMARK    7  A    between atoms: C_13  and  C_15
REMARK    8  A    between atoms: N_17  and  C_18
REMARK    9  A    between atoms: C_20  and  C_22
REMARK   10  A    between atoms: C_24  and  O_30
REMARK   11  A    between atoms: C_26  and  O_28
REMARK   12  A    between atoms: O_28  and  C_29
REMARK   13  A    between atoms: O_30  and  C_31
REMARK                            x       y       z     vdW  Elec       q    Type
REMARK                         _______ _______ _______ _____ _____    ______ ____
ROOT
ATOM      1  C   UNL     1       0.742  -0.511   1.248  0.00  0.00    +0.162 C 
ENDROOT
BRANCH   1   2
ATOM      2  C   UNL     1       0.762  -2.018   1.231  0.00  0.00    +0.238 C 
ATOM      3  O   UNL     1       1.821  -2.609   1.209  0.00  0.00    -0.273 OA
ATOM      4  N   UNL     1      -0.395  -2.707   1.241  0.00  0.00    -0.284 N 
ATOM      5  H   UNL     1      -1.240  -2.237   1.326  0.00  0.00    +0.155 HD
BRANCH   4   6
ATOM      6  C   UNL     1      -0.380  -4.102   1.127  0.00  0.00    +0.034 A 
ATOM      7  C   UNL     1      -1.391  -4.754   0.431  0.00  0.00    +0.023 A 
ATOM      8  C   UNL     1      -1.380  -6.132   0.317  0.00  0.00    +0.003 A 
ATOM      9  C   UNL     1      -0.365  -6.869   0.893  0.00  0.00    +0.013 A 
ATOM     10  C   UNL     1       0.655  -6.223   1.594  0.00  0.00    +0.038 A 
ATOM     11  C   UNL     1       0.647  -4.833   1.704  0.00  0.00    +0.036 A 
BRANCH  10  12
ATOM     12  C   UNL     1       1.743  -7.011   2.212  0.00  0.00    +0.244 C 
ATOM     13  O   UNL     1       2.630  -6.447   2.822  0.00  0.00    -0.270 OA
ATOM     14  N   UNL     1       1.751  -8.354   2.099  0.00  0.00    -0.314 N 
ATOM     15  C   UNL     1       2.829  -9.134   2.712  0.00  0.00    +0.128 C 
ATOM     16  H   UNL     1       1.043  -8.804   1.612  0.00  0.00    +0.149 HD
ENDBRANCH  10  12
ENDBRANCH   4   6
ENDBRANCH   1   2
BRANCH   1  17
ATOM     17  N   UNL     1       2.116  -0.004   1.234  0.00  0.00    -0.300 N 
ATOM     18  C   UNL     1       2.389   1.217   1.736  0.00  0.00    +0.245 C 
ATOM     19  O   UNL     1       1.496   1.896   2.202  0.00  0.00    -0.270 OA
ATOM     20  H   UNL     1       2.829  -0.546   0.862  0.00  0.00    +0.150 HD
BRANCH  18  21
ATOM     21  C   UNL     1       3.777   1.729   1.722  0.00  0.00    +0.044 A 
ATOM     22  C   UNL     1       4.803   0.953   1.183  0.00  0.00    +0.059 A 
ATOM     23  C   UNL     1       6.101   1.436   1.170  0.00  0.00    +0.124 A 
ATOM     24  C   UNL     1       6.381   2.690   1.694  0.00  0.00    +0.091 A 
ATOM     25  C   UNL     1       5.363   3.465   2.231  0.00  0.00    +0.124 A 
ATOM     26  C   UNL     1       4.062   2.992   2.241  0.00  0.00    +0.059 A 
BRANCH  25  27
ATOM     27  O   UNL     1       5.643   4.693   2.742  0.00  0.00    -0.495 OA
ATOM     28  C   UNL     1       7.005   5.121   2.693  0.00  0.00    +0.277 C 
ENDBRANCH  25  27
BRANCH  23  29
ATOM     29  O   UNL     1       7.101   0.681   0.645  0.00  0.00    -0.495 OA
ATOM     30  C   UNL     1       8.416   1.242   0.665  0.00  0.00    +0.277 C 
ENDBRANCH  23  29
ENDBRANCH  18  21
ENDBRANCH   1  17
BRANCH   1  32
ATOM     31  C   UNL     1      -0.025   1.533   0.032  0.00  0.00    +0.009 C 
ATOM     32  C   UNL     1      -0.004   0.003   0.015  0.00  0.00    +0.012 C 
ATOM     33  C   UNL     1       0.705  -0.483  -1.250  0.00  0.00    +0.009 C 
ENDBRANCH   1  32
TORSDOF 8
