REMARK  Name = ZINC16227370
REMARK  12 active torsions:
REMARK  status: ('A' for Active; 'I' for Inactive)
REMARK    1  A    between atoms: C_1  and  O_2
REMARK    2  A    between atoms: O_2  and  C_3
REMARK    3  A    between atoms: C_6  and  C_11
REMARK    4  A    between atoms: C_8  and  O_9
REMARK    5  A    between atoms: O_9  and  C_10
REMARK    6  A    between atoms: C_11  and  C_12
REMARK    7  A    between atoms: C_12  and  N_60
REMARK    8  A    between atoms: C_13  and  C_14
REMARK    9  A    between atoms: C_13  and  N_60
REMARK   10  A    between atoms: C_23  and  O_24
REMARK   11  A    between atoms: O_24  and  C_25
REMARK   12  A    between atoms: C_25  and  C_26
REMARK                            x       y       z     vdW  Elec       q    Type
REMARK                         _______ _______ _______ _____ _____    ______ ____
ROOT
ATOM      1  C   UNL     1      -0.112   5.253   0.029  0.00  0.00    -0.015 A 
ATOM      2  C   UNL     1      -0.095   3.849   0.023  0.00  0.00    -0.013 A 
ATOM      3  C   UNL     1      -1.288   3.105   0.030  0.00  0.00    +0.009 A 
ATOM      4  C   UNL     1      -1.235   1.746   0.017  0.00  0.00    +0.001 A 
ATOM      5  C   UNL     1      -0.013   1.076   0.008  0.00  0.00    +0.001 A 
ATOM      6  C   UNL     1       1.163   1.762   0.000  0.00  0.00    +0.008 A 
ATOM      7  C   UNL     1       1.148   3.167   0.008  0.00  0.00    -0.017 A 
ATOM      8  C   UNL     1       2.342   3.909  -0.000  0.00  0.00    +0.012 A 
ATOM      9  C   UNL     1       2.292   5.268   0.006  0.00  0.00    +0.046 A 
ATOM     10  C   UNL     1       1.067   5.942   0.021  0.00  0.00    +0.123 A 
ENDROOT
BRANCH   1  11
ATOM     11  C   UNL     1      -1.423   5.995   0.046  0.00  0.00    -0.042 C 
BRANCH  11  12
ATOM     12  N   UNL     1      -1.830   6.227   1.445  0.00  0.00    +0.382 N 
ATOM     13  H   UNL     1      -1.935   5.323   1.921  0.00  0.00    -0.085 HD
ATOM     14  H   UNL     1      -1.109   6.782   1.920  0.00  0.00    -0.085 HD
BRANCH  12  15
ATOM     15  C   UNL     1      -3.113   6.953   1.491  0.00  0.00    -0.077 C 
BRANCH  15  16
ATOM     16  C   UNL     1      -3.509   7.178   2.952  0.00  0.00    +0.016 C 
BRANCH  16  20
ATOM     17  C   UNL     1      -7.225   9.289   3.113  0.00  0.00    +0.161 A 
ATOM     18  C   UNL     1      -6.029   9.987   3.086  0.00  0.00    +0.049 A 
ATOM     19  C   UNL     1      -4.829   9.302   3.039  0.00  0.00    +0.007 A 
ATOM     20  C   UNL     1      -4.819   7.920   3.009  0.00  0.00    -0.045 A 
ATOM     21  C   UNL     1      -6.009   7.217   3.036  0.00  0.00    +0.053 A 
ATOM     22  C   UNL     1      -7.215   7.897   3.088  0.00  0.00    +0.162 A 
BRANCH  17  24
ATOM     23  C   UNL     1      -8.339  11.388   3.187  0.00  0.00    +0.277 C 
ATOM     24  O   UNL     1      -8.406   9.961   3.164  0.00  0.00    -0.491 OA
ENDBRANCH  17  24
BRANCH  22  25
ATOM     25  O   UNL     1      -8.386   7.207   3.114  0.00  0.00    -0.491 OA
ATOM     26  C   UNL     1      -8.300   5.781   3.085  0.00  0.00    +0.277 C 
ENDBRANCH  22  25
ENDBRANCH  16  20
ENDBRANCH  15  16
ENDBRANCH  12  15
ENDBRANCH  11  12
ENDBRANCH   1  11
BRANCH  10  27
ATOM     27  O   UNL     1       1.050   7.301   0.028  0.00  0.00    -0.487 OA
BRANCH  27  28
ATOM     28  C   UNL     1       2.315   7.966   0.019  0.00  0.00    +0.264 C 
BRANCH  28  29
ATOM     29  C   UNL     1       2.098   9.457   0.029  0.00  0.00    -0.010 A 
ATOM     30  C   UNL     1       1.993  10.148  -1.164  0.00  0.00    +0.008 A 
ATOM     31  C   UNL     1       1.789  11.515  -1.156  0.00  0.00    +0.020 A 
ATOM     32  C   UNL     1       1.701  12.194   0.046  0.00  0.00    +0.041 A 
ATOM     33  C   UNL     1       1.812  11.503   1.240  0.00  0.00    +0.020 A 
ATOM     34  C   UNL     1       2.011  10.135   1.231  0.00  0.00    +0.008 A 
ATOM     35 CL   UNL     1       1.451  13.911   0.058  0.00  0.00    -0.084 Cl
ENDBRANCH  28  29
ENDBRANCH  27  28
ENDBRANCH  10  27
TORSDOF 10
