REMARK  Name = ZINC33088141
REMARK  5 active torsions:
REMARK  status: ('A' for Active; 'I' for Inactive)
REMARK    1  A    between atoms: C_1  and  C_2
REMARK    2  A    between atoms: C_20  and  C_22
REMARK    3  A    between atoms: C_26  and  O_28
REMARK    4  A    between atoms: O_28  and  C_29
REMARK    5  A    between atoms: C_29  and  C_30
REMARK                            x       y       z     vdW  Elec       q    Type
REMARK                         _______ _______ _______ _____ _____    ______ ____
ROOT
ATOM      1  C   UNL     1       2.445   6.801   0.712  0.00  0.00    +0.068 C 
ATOM      2  C   UNL     1       1.667   5.567   0.332  0.00  0.00    +0.066 A 
ATOM      3  C   UNL     1       0.402   5.548  -0.239  0.00  0.00    +0.023 A 
ATOM      4  C   UNL     1       0.047   4.240  -0.436  0.00  0.00    +0.134 A 
ATOM      5  N   UNL     1       1.062   3.471   0.011  0.00  0.00    -0.198 N 
ATOM      6  N   UNL     1       2.066   4.327   0.490  0.00  0.00    -0.168 NA
ATOM      7  C   UNL     1       1.104   2.073   0.003  0.00  0.00    +0.176 A 
ATOM      8  C   UNL     1       2.348   1.416  -0.013  0.00  0.00    +0.054 A 
ATOM      9  C   UNL     1       2.402   0.057  -0.021  0.00  0.00    +0.054 A 
ATOM     10  C   UNL     1       1.200  -0.676  -0.013  0.00  0.00    +0.178 A 
ATOM     11  N   UNL     1       0.915  -1.968  -0.017  0.00  0.00    -0.128 NA
ATOM     12  N   UNL     1      -0.363  -2.121  -0.005  0.00  0.00    -0.136 NA
ATOM     13  C   UNL     1      -0.958  -0.954   0.006  0.00  0.00    +0.249 A 
ATOM     14  N   UNL     1       0.002  -0.004   0.002  0.00  0.00    -0.198 N 
ATOM     15  N   UNL     1      -0.017   1.392   0.010  0.00  0.00    -0.144 NA
ATOM     16  N   UNL     1      -1.181   3.887  -0.994  0.00  0.00    -0.270 N 
ATOM     17  C   UNL     1      -1.927   4.862  -1.556  0.00  0.00    +0.219 C 
ATOM     18  O   UNL     1      -3.065   4.613  -1.891  0.00  0.00    -0.275 OA
ATOM     19  C   UNL     1      -1.389   6.247  -1.780  0.00  0.00    +0.109 C 
ATOM     20  C   UNL     1      -0.503   6.694  -0.613  0.00  0.00    +0.063 C 
ATOM     21  H   UNL     1      -1.517   2.840  -0.967  0.00  0.00    +0.156 HD
ENDROOT
BRANCH  20  22
ATOM     22  C   UNL     1       0.326   7.882  -1.029  0.00  0.00    -0.036 A 
ATOM     23  C   UNL     1       1.194   7.777  -2.101  0.00  0.00    +0.004 A 
ATOM     24  C   UNL     1       1.952   8.866  -2.488  0.00  0.00    +0.004 A 
ATOM     25  C   UNL     1       1.852  10.059  -1.799  0.00  0.00    +0.045 A 
ATOM     26  C   UNL     1       0.986  10.165  -0.720  0.00  0.00    +0.121 A 
ATOM     27  C   UNL     1       0.223   9.072  -0.337  0.00  0.00    +0.050 A 
BRANCH  26  28
ATOM     28  O   UNL     1       0.886  11.338  -0.041  0.00  0.00    -0.487 OA
BRANCH  28  29
ATOM     29  C   UNL     1       1.703  12.421  -0.492  0.00  0.00    +0.267 C 
BRANCH  29  30
ATOM     30  C   UNL     1       1.458  13.629   0.376  0.00  0.00    +0.025 A 
ATOM     31  C   UNL     1       0.548  13.562   1.414  0.00  0.00    +0.010 A 
ATOM     32  C   UNL     1       0.329  14.668   2.213  0.00  0.00    +0.001 A 
ATOM     33  C   UNL     1       1.010  15.846   1.968  0.00  0.00    +0.003 A 
ATOM     34  C   UNL     1       1.916  15.917   0.927  0.00  0.00    +0.039 A 
ATOM     35  C   UNL     1       2.141  14.808   0.129  0.00  0.00    +0.130 A 
ATOM     36  F   UNL     1       3.026  14.876  -0.889  0.00  0.00    -0.205 F 
ENDBRANCH  29  30
ENDBRANCH  28  29
ENDBRANCH  26  28
ENDBRANCH  20  22
TORSDOF 4
