REMARK  Name = ZINC37343365
REMARK  7 active torsions:
REMARK  status: ('A' for Active; 'I' for Inactive)
REMARK    1  A    between atoms: C_1  and  C_2
REMARK    2  A    between atoms: C_2  and  C_3
REMARK    3  A    between atoms: C_2  and  C_4
REMARK    4  A    between atoms: C_5  and  C_19
REMARK    5  A    between atoms: N_7  and  C_9
REMARK    6  A    between atoms: C_14  and  N_15
REMARK    7  A    between atoms: C_19  and  O_20
REMARK                            x       y       z     vdW  Elec       q    Type
REMARK                         _______ _______ _______ _____ _____    ______ ____
ROOT
ATOM      1  C   UNL     1      -1.333  -0.748   0.159  0.00  0.00    +0.073 A 
ATOM      2  C   UNL     1      -2.001  -1.168  -0.996  0.00  0.00    +0.038 A 
ATOM      3  C   UNL     1      -3.316  -1.294  -0.695  0.00  0.00    +0.139 A 
ATOM      4  N   UNL     1      -3.471  -0.963   0.613  0.00  0.00    -0.219 N 
ATOM      5  N   UNL     1      -2.209  -0.630   1.123  0.00  0.00    -0.169 NA
ATOM      6 CL   UNL     1      -4.574  -1.789  -1.783  0.00  0.00    -0.062 Cl
ENDROOT
BRANCH   4   7
ATOM      7  C   UNL     1      -4.678  -0.959   1.327  0.00  0.00    +0.097 A 
ATOM      8  C   UNL     1      -5.424  -2.125   1.438  0.00  0.00    +0.030 A 
ATOM      9  C   UNL     1      -6.612  -2.118   2.141  0.00  0.00    +0.002 A 
ATOM     10  C   UNL     1      -7.059  -0.952   2.735  0.00  0.00    +0.002 A 
ATOM     11  C   UNL     1      -6.319   0.210   2.626  0.00  0.00    +0.035 A 
ATOM     12  C   UNL     1      -5.126   0.209   1.929  0.00  0.00    +0.151 A 
BRANCH  12  13
ATOM     13  N   UNL     1      -4.331   1.452   1.818  0.00  0.00    +0.059 N 
ATOM     14  O   UNL     1      -4.665   2.440   2.429  0.00  0.00    -0.126 OA
ATOM     15  O   UNL     1      -3.346   1.479   1.117  0.00  0.00    -0.126 OA
ENDBRANCH  12  13
ENDBRANCH   4   7
BRANCH   1  17
ATOM     16  C   UNL     1       0.372   0.972   0.691  0.00  0.00    +0.014 C 
ATOM     17  C   UNL     1       0.146  -0.482   0.275  0.00  0.00    +0.034 C 
ATOM     18  C   UNL     1       0.751  -1.414   1.327  0.00  0.00    +0.014 C 
ENDBRANCH   1  17
BRANCH   2  19
ATOM     19  C   UNL     1      -1.370  -1.433  -2.338  0.00  0.00    +0.196 C 
BRANCH  19  20
ATOM     20  O   UNL     1      -0.967  -2.802  -2.413  0.00  0.00    -0.390 OA
ATOM     21  H   UNL     1      -0.551  -3.044  -3.252  0.00  0.00    +0.210 HD
ENDBRANCH  19  20
ENDBRANCH   2  19
TORSDOF 5
