REMARK  Name = ZINC28057153
REMARK  2 active torsions:
REMARK  status: ('A' for Active; 'I' for Inactive)
REMARK    1  A    between atoms: C_4  and  C_7
REMARK    2  A    between atoms: C_24  and  C_26
REMARK                            x       y       z     vdW  Elec       q    Type
REMARK                         _______ _______ _______ _____ _____    ______ ____
ROOT
ATOM      1  C   UNL     1       4.199  -2.864   0.563  0.00  0.00    +0.234 C 
ATOM      2  C   UNL     1       3.566  -1.519   0.290  0.00  0.00    +0.026 C 
ATOM      3  C   UNL     1       4.316  -0.418   0.371  0.00  0.00    +0.050 C 
ATOM      4  C   UNL     1       5.741  -0.563   0.754  0.00  0.00    +0.038 A 
ATOM      5  C   UNL     1       6.659   0.457   0.537  0.00  0.00    +0.013 A 
ATOM      6  C   UNL     1       7.977   0.279   0.914  0.00  0.00    +0.001 A 
ATOM      7  C   UNL     1       8.380  -0.907   1.503  0.00  0.00    +0.004 A 
ATOM      8  C   UNL     1       7.473  -1.928   1.721  0.00  0.00    +0.046 A 
ATOM      9  C   UNL     1       6.152  -1.763   1.348  0.00  0.00    +0.131 A 
ATOM     10  O   UNL     1       5.232  -2.742   1.541  0.00  0.00    -0.479 OA
ATOM     11  N   UNL     1       3.800   0.859   0.123  0.00  0.00    -0.282 N 
ATOM     12  C   UNL     1       2.421   0.987   0.072  0.00  0.00    +0.240 A 
ATOM     13  N   UNL     1       1.655   2.039   0.095  0.00  0.00    -0.092 NA
ATOM     14  N   UNL     1       0.415   1.689   0.038  0.00  0.00    -0.021 NA
ATOM     15  N   UNL     1       0.313   0.401  -0.027  0.00  0.00    -0.042 NA
ATOM     16  N   UNL     1       1.613  -0.102  -0.011  0.00  0.00    -0.201 N 
ATOM     17  C   UNL     1       2.101  -1.472  -0.071  0.00  0.00    +0.177 C 
ATOM     18  H   UNL     1       4.482   1.710  -0.022  0.00  0.00    +0.155 HD
ENDROOT
BRANCH  17  19
ATOM     19  C   UNL     1       1.914  -2.009  -1.467  0.00  0.00    +0.017 A 
ATOM     20  C   UNL     1       2.526  -1.382  -2.537  0.00  0.00    +0.009 A 
ATOM     21  C   UNL     1       2.359  -1.877  -3.816  0.00  0.00    +0.001 A 
ATOM     22  C   UNL     1       1.570  -2.992  -4.030  0.00  0.00    +0.003 A 
ATOM     23  C   UNL     1       0.953  -3.617  -2.963  0.00  0.00    +0.039 A 
ATOM     24  C   UNL     1       1.124  -3.125  -1.680  0.00  0.00    +0.129 A 
ATOM     25  F   UNL     1       0.521  -3.736  -0.636  0.00  0.00    -0.205 F 
ENDBRANCH  17  19
BRANCH   1  29
ATOM     26  C   UNL     1       5.862  -4.398  -3.060  0.00  0.00    +0.000 A 
ATOM     27  C   UNL     1       6.498  -3.371  -2.388  0.00  0.00    +0.000 A 
ATOM     28  C   UNL     1       5.960  -2.875  -1.216  0.00  0.00    +0.007 A 
ATOM     29  C   UNL     1       4.786  -3.405  -0.715  0.00  0.00    -0.003 A 
ATOM     30  C   UNL     1       4.153  -4.436  -1.384  0.00  0.00    +0.007 A 
ATOM     31  C   UNL     1       4.689  -4.930  -2.559  0.00  0.00    +0.000 A 
ENDBRANCH   1  29
TORSDOF 2
