REMARK  Name = ZINC09663140
REMARK  12 active torsions:
REMARK  status: ('A' for Active; 'I' for Inactive)
REMARK    1  A    between atoms: C_1  and  C_2
REMARK    2  A    between atoms: C_2  and  N_3
REMARK    3  A    between atoms: C_4  and  C_28
REMARK    4  A    between atoms: C_7  and  S_8
REMARK    5  A    between atoms: S_8  and  C_9
REMARK    6  A    between atoms: C_9  and  C_10
REMARK    7  A    between atoms: N_12  and  C_13
REMARK    8  A    between atoms: C_14  and  C_24
REMARK    9  A    between atoms: C_19  and  C_23
REMARK   10  A    between atoms: C_24  and  O_26
REMARK   11  A    between atoms: O_26  and  C_27
REMARK   12  A    between atoms: C_28  and  C_29
REMARK                            x       y       z     vdW  Elec       q    Type
REMARK                         _______ _______ _______ _____ _____    ______ ____
ROOT
ATOM      1  C   UNL     1      -2.523  -1.802  -2.755  0.00  0.00    +0.228 C 
ATOM      2  O   UNL     1      -2.140  -2.927  -2.513  0.00  0.00    -0.275 OA
ATOM      3  N   UNL     1      -1.800  -0.741  -2.346  0.00  0.00    -0.279 N 
ATOM      4  H   UNL     1      -2.107   0.159  -2.540  0.00  0.00    +0.155 HD
ENDROOT
BRANCH   3   5
ATOM      5  C   UNL     1      -0.618  -0.935  -1.649  0.00  0.00    +0.086 A 
ATOM      6  C   UNL     1       0.256   0.022  -1.150  0.00  0.00    +0.091 A 
ATOM      7  C   UNL     1       1.435  -0.451  -0.443  0.00  0.00    -0.021 A 
ATOM      8  C   UNL     1       1.553  -1.793  -0.354  0.00  0.00    -0.004 A 
ATOM      9  S   UNL     1       0.129  -2.429  -1.191  0.00  0.00    -0.077 S 
ATOM     10  C   UNL     1       2.654  -2.561   0.311  0.00  0.00    +0.046 C 
ATOM     11  C   UNL     1       3.830  -1.605   0.555  0.00  0.00    -0.009 C 
ATOM     12  C   UNL     1       3.297  -0.319   1.194  0.00  0.00    +0.008 C 
ATOM     13  C   UNL     1       2.483   0.472   0.168  0.00  0.00    +0.037 C 
ATOM     14  C   UNL     1       4.841  -2.266   1.495  0.00  0.00    +0.008 C 
BRANCH   6  15
ATOM     15  C   UNL     1      -0.003   1.452  -1.324  0.00  0.00    +0.342 C 
ATOM     16  O   UNL     1       0.428   2.034  -2.302  0.00  0.00    -0.245 OA
BRANCH  15  17
ATOM     17  O   UNL     1      -0.719   2.126  -0.401  0.00  0.00    -0.464 OA
ATOM     18  C   UNL     1      -0.936   3.541  -0.638  0.00  0.00    +0.280 C 
ENDBRANCH  15  17
ENDBRANCH   6  15
ENDBRANCH   3   5
BRANCH   1  19
ATOM     19  C   UNL     1      -3.809  -1.591  -3.513  0.00  0.00    +0.173 C 
BRANCH  19  20
ATOM     20  S   UNL     1      -4.540  -3.196  -3.919  0.00  0.00    -0.077 S 
BRANCH  20  25
ATOM     21  N   UNL     1      -6.943  -3.469  -5.327  0.00  0.00    -0.306 N 
ATOM     22  C   UNL     1      -7.864  -2.622  -5.879  0.00  0.00    +0.138 A 
ATOM     23  N   UNL     1      -7.454  -1.405  -5.656  0.00  0.00    -0.133 NA
ATOM     24  N   UNL     1      -6.348  -1.425  -5.001  0.00  0.00    -0.122 NA
ATOM     25  C   UNL     1      -5.985  -2.666  -4.776  0.00  0.00    +0.192 A 
BRANCH  21  27
ATOM     26  C   UNL     1      -7.607  -5.428  -4.022  0.00  0.00    +0.027 C 
ATOM     27  C   UNL     1      -6.978  -4.933  -5.325  0.00  0.00    +0.122 C 
ENDBRANCH  21  27
BRANCH  22  28
ATOM     28  C   UNL     1      -9.119  -3.021  -6.610  0.00  0.00    +0.111 C 
BRANCH  28  29
ATOM     29  C   UNL     1      -8.850  -3.048  -8.093  0.00  0.00    -0.040 A 
ATOM     30  C   UNL     1      -8.995  -1.896  -8.843  0.00  0.00    +0.004 A 
ATOM     31  C   UNL     1      -8.744  -1.920 -10.202  0.00  0.00    +0.000 A 
ATOM     32  C   UNL     1      -8.357  -3.098 -10.813  0.00  0.00    +0.000 A 
ATOM     33  C   UNL     1      -8.217  -4.251 -10.064  0.00  0.00    +0.000 A 
ATOM     34  C   UNL     1      -8.463  -4.226  -8.704  0.00  0.00    +0.004 A 
ENDBRANCH  28  29
ENDBRANCH  22  28
ENDBRANCH  20  25
ENDBRANCH  19  20
ENDBRANCH   1  19
TORSDOF 9
