REMARK  Name = ZINC49143597
REMARK  6 active torsions:
REMARK  status: ('A' for Active; 'I' for Inactive)
REMARK    1  A    between atoms: C_1  and  C_2
REMARK    2  A    between atoms: C_2  and  C_3
REMARK    3  A    between atoms: C_3  and  C_4
REMARK    4  A    between atoms: C_4  and  N_5
REMARK    5  A    between atoms: N_8  and  N_9
REMARK    6  A    between atoms: C_10  and  C_12
REMARK                            x       y       z     vdW  Elec       q    Type
REMARK                         _______ _______ _______ _____ _____    ______ ____
ROOT
ATOM      1  N   UNL     1      -5.357  -3.470   0.035  0.00  0.00    -0.229 N 
ATOM      2  C   UNL     1      -6.621  -3.936   0.044  0.00  0.00    +0.261 C 
ATOM      3  O   UNL     1      -6.827  -5.134   0.040  0.00  0.00    -0.269 OA
ATOM      4  H   UNL     1      -5.192  -2.514   0.038  0.00  0.00    +0.173 HD
ENDROOT
BRANCH   2   5
ATOM      5  C   UNL     1      -7.757  -2.991   0.060  0.00  0.00    +0.051 A 
ATOM      6  C   UNL     1      -7.524  -1.615   0.059  0.00  0.00    +0.015 A 
ATOM      7  C   UNL     1      -8.588  -0.738   0.074  0.00  0.00    +0.021 A 
ATOM      8  C   UNL     1      -9.886  -1.220   0.090  0.00  0.00    +0.042 A 
ATOM      9  C   UNL     1     -10.125  -2.584   0.091  0.00  0.00    +0.035 A 
ATOM     10  C   UNL     1      -9.068  -3.472   0.070  0.00  0.00    +0.027 A 
ATOM     11  I   UNL     1      -9.431  -5.535   0.062  0.00  0.00    -0.043 I 
ATOM     12 CL   UNL     1     -11.221  -0.109   0.109  0.00  0.00    -0.084 Cl
ENDBRANCH   2   5
BRANCH   1  16
ATOM     13  N   UNL     1      -2.787  -2.571   0.015  0.00  0.00    -0.298 N 
ATOM     14  C   UNL     1      -3.015  -3.899   0.010  0.00  0.00    +0.316 C 
ATOM     15  O   UNL     1      -2.080  -4.676  -0.003  0.00  0.00    -0.251 OA
ATOM     16  N   UNL     1      -4.280  -4.365   0.019  0.00  0.00    -0.218 N 
ATOM     17  H   UNL     1      -3.533  -1.950   0.025  0.00  0.00    +0.150 HD
ATOM     18  H   UNL     1      -4.444  -5.321   0.016  0.00  0.00    +0.174 HD
BRANCH  13  19
ATOM     19  C   UNL     1      -1.413  -2.063   0.004  0.00  0.00    +0.106 C 
BRANCH  19  20
ATOM     20  C   UNL     1      -1.433  -0.534   0.013  0.00  0.00    +0.018 C 
BRANCH  20  22
ATOM     21  C   UNL     1      -0.019   1.526   0.010  0.00  0.00    +0.004 C 
ATOM     22  C   UNL     1       0.002  -0.004   0.002  0.00  0.00    -0.002 C 
ENDBRANCH  20  22
ENDBRANCH  19  20
ENDBRANCH  13  19
ENDBRANCH   1  16
TORSDOF 5
