REMARK  Name = ZINC39215128
REMARK  5 active torsions:
REMARK  status: ('A' for Active; 'I' for Inactive)
REMARK    1  A    between atoms: C_4  and  N_7
REMARK    2  A    between atoms: C_8  and  S_16
REMARK    3  A    between atoms: C_14  and  N_15
REMARK    4  A    between atoms: S_16  and  C_17
REMARK    5  A    between atoms: C_17  and  C_18
REMARK                            x       y       z     vdW  Elec       q    Type
REMARK                         _______ _______ _______ _____ _____    ______ ____
ROOT
ATOM      1  N   UNL     1       3.616  -0.644  -0.051  0.00  0.00    -0.260 N 
ATOM      2  C   UNL     1       3.652  -2.109   0.046  0.00  0.00    +0.228 C 
ATOM      3  N   UNL     1       4.649  -2.627  -0.895  0.00  0.00    -0.284 N 
ATOM      4  C   UNL     1       5.739  -1.899  -1.202  0.00  0.00    +0.242 C 
ATOM      5  O   UNL     1       6.617  -2.389  -1.892  0.00  0.00    -0.271 OA
ATOM      6  C   UNL     1       5.875  -0.584  -0.736  0.00  0.00    +0.106 C 
ATOM      7  C   UNL     1       4.810   0.038  -0.149  0.00  0.00    +0.095 C 
ATOM      8  H   UNL     1       4.522  -3.500  -1.300  0.00  0.00    +0.152 HD
ENDROOT
BRANCH   1  12
ATOM      9  C   UNL     1      -0.013   1.400  -0.050  0.00  0.00    +0.000 A 
ATOM     10  C   UNL     1       0.774   1.392  -1.187  0.00  0.00    +0.002 A 
ATOM     11  C   UNL     1       1.978   0.716  -1.191  0.00  0.00    +0.023 A 
ATOM     12  C   UNL     1       2.398   0.042  -0.051  0.00  0.00    +0.037 A 
ATOM     13  C   UNL     1       1.606   0.052   1.090  0.00  0.00    +0.023 A 
ATOM     14  C   UNL     1       0.403   0.731   1.087  0.00  0.00    +0.002 A 
ENDBRANCH   1  12
BRANCH   7  15
ATOM     15  N   UNL     1       4.929   1.316   0.336  0.00  0.00    -0.346 N 
ATOM     16  H   UNL     1       4.196   1.718   0.827  0.00  0.00    +0.143 HD
ATOM     17  H   UNL     1       5.746   1.817   0.188  0.00  0.00    +0.143 HD
ENDBRANCH   7  15
BRANCH   2  18
ATOM     18  S   UNL     1       4.101  -2.594   1.736  0.00  0.00    -0.111 S 
BRANCH  18  19
ATOM     19  C   UNL     1       5.738  -1.853   1.984  0.00  0.00    +0.146 C 
BRANCH  19  20
ATOM     20  C   UNL     1       6.234  -2.183   3.369  0.00  0.00    +0.120 A 
ATOM     21  N   UNL     1       7.450  -1.709   3.748  0.00  0.00    -0.310 N 
ATOM     22  H   UNL     1       7.971  -1.173   3.130  0.00  0.00    +0.170 HD
ATOM     23  C   UNL     1       7.940  -1.978   4.980  0.00  0.00    +0.259 A 
ATOM     24  O   UNL     1       9.027  -1.558   5.334  0.00  0.00    -0.267 OA
ATOM     25  C   UNL     1       7.109  -2.795   5.876  0.00  0.00    +0.065 A 
ATOM     26  C   UNL     1       7.521  -3.128   7.165  0.00  0.00    +0.015 A 
ATOM     27  C   UNL     1       6.702  -3.897   7.962  0.00  0.00    +0.001 A 
ATOM     28  C   UNL     1       5.473  -4.341   7.492  0.00  0.00    +0.002 A 
ATOM     29  C   UNL     1       5.047  -4.023   6.222  0.00  0.00    +0.028 A 
ATOM     30  C   UNL     1       5.859  -3.244   5.395  0.00  0.00    +0.078 A 
ATOM     31  N   UNL     1       5.476  -2.902   4.139  0.00  0.00    -0.233 NA
ENDBRANCH  19  20
ENDBRANCH  18  19
ENDBRANCH   2  18
TORSDOF 5
