REMARK  Name = ZINC14655314
REMARK  11 active torsions:
REMARK  status: ('A' for Active; 'I' for Inactive)
REMARK    1  A    between atoms: C_1  and  C_2
REMARK    2  A    between atoms: C_2  and  C_3
REMARK    3  A    between atoms: C_3  and  C_4
REMARK    4  A    between atoms: C_4  and  N_5
REMARK    5  A    between atoms: C_6  and  N_33
REMARK    6  A    between atoms: C_7  and  N_14
REMARK    7  A    between atoms: N_14  and  C_15
REMARK    8  A    between atoms: C_16  and  C_18
REMARK    9  A    between atoms: N_23  and  C_25
REMARK   10  A    between atoms: C_29  and  C_32
REMARK   11  A    between atoms: C_30  and  C_31
REMARK                            x       y       z     vdW  Elec       q    Type
REMARK                         _______ _______ _______ _____ _____    ______ ____
ROOT
ATOM      1  N   UNL     1      -0.005  -1.886   1.627  0.00  0.00    -0.267 N 
ATOM      2  C   UNL     1      -0.070  -2.745   0.442  0.00  0.00    +0.138 C 
ATOM      3  C   UNL     1       0.015  -0.544   1.487  0.00  0.00    +0.225 C 
ATOM      4  O   UNL     1      -0.030   0.169   2.468  0.00  0.00    -0.275 OA
ENDROOT
BRANCH   1   7
ATOM      5  N   UNL     1      -0.947  -2.872   5.039  0.00  0.00    -0.280 N 
ATOM      6  C   UNL     1      -1.014  -2.293   3.793  0.00  0.00    +0.127 A 
ATOM      7  C   UNL     1       0.036  -2.462   2.914  0.00  0.00    +0.139 A 
ATOM      8  C   UNL     1       1.153  -3.213   3.327  0.00  0.00    +0.277 A 
ATOM      9  O   UNL     1       2.097  -3.374   2.572  0.00  0.00    -0.266 OA
ATOM     10  N   UNL     1       1.171  -3.754   4.561  0.00  0.00    -0.273 N 
ATOM     11  H   UNL     1       1.964  -4.288   4.855  0.00  0.00    +0.173 HD
ATOM     12  C   UNL     1       0.135  -3.584   5.401  0.00  0.00    +0.331 A 
ATOM     13  O   UNL     1       0.178  -4.083   6.509  0.00  0.00    -0.246 OA
BRANCH   6  14
ATOM     14  N   UNL     1      -2.117  -1.561   3.425  0.00  0.00    -0.343 N 
ATOM     15  H   UNL     1      -2.132  -1.103   2.570  0.00  0.00    +0.144 HD
ATOM     16  H   UNL     1      -2.881  -1.501   4.021  0.00  0.00    +0.144 HD
ENDBRANCH   6  14
BRANCH   5  17
ATOM     17  C   UNL     1      -2.058  -2.706   5.980  0.00  0.00    +0.128 C 
BRANCH  17  18
ATOM     18  C   UNL     1      -1.828  -1.450   6.823  0.00  0.00    +0.021 C 
BRANCH  18  20
ATOM     19  C   UNL     1      -2.759  -0.020   8.648  0.00  0.00    +0.004 C 
ATOM     20  C   UNL     1      -2.988  -1.276   7.805  0.00  0.00    -0.002 C 
ENDBRANCH  18  20
ENDBRANCH  17  18
ENDBRANCH   5  17
ENDBRANCH   1   7
BRANCH   3  21
ATOM     21  C   UNL     1       0.092   0.069   0.113  0.00  0.00    +0.102 C 
ATOM     22  C   UNL     1       1.460  -0.220  -0.546  0.00  0.00    +0.110 C 
ATOM     23  C   UNL     1       2.304   0.985  -0.194  0.00  0.00    +0.221 C 
ATOM     24  O   UNL     1       3.513   1.034  -0.275  0.00  0.00    -0.275 OA
ATOM     25  N   UNL     1       1.519   1.993   0.223  0.00  0.00    -0.270 N 
ATOM     26  C   UNL     1       0.102   1.612   0.196  0.00  0.00    +0.127 C 
BRANCH  25  27
ATOM     27  C   UNL     1       1.992   3.245   0.631  0.00  0.00    +0.039 A 
ATOM     28  C   UNL     1       2.307   3.469   1.966  0.00  0.00    +0.024 A 
ATOM     29  C   UNL     1       2.780   4.704   2.364  0.00  0.00    +0.002 A 
ATOM     30  C   UNL     1       2.927   5.721   1.438  0.00  0.00    +0.004 A 
ATOM     31  C   UNL     1       2.608   5.503   0.111  0.00  0.00    -0.046 A 
ATOM     32  C   UNL     1       2.141   4.269  -0.295  0.00  0.00    -0.026 A 
ATOM     33  C   UNL     1       1.794   4.032  -1.742  0.00  0.00    +0.046 C 
ATOM     34  C   UNL     1       2.771   6.614  -0.894  0.00  0.00    +0.044 C 
ENDBRANCH  25  27
ENDBRANCH   3  21
TORSDOF 7
