REMARK  Name = ZINC00691433
REMARK  6 active torsions:
REMARK  status: ('A' for Active; 'I' for Inactive)
REMARK    1  A    between atoms: C_4  and  C_7
REMARK    2  A    between atoms: C_12  and  C_26
REMARK    3  A    between atoms: C_14  and  C_24
REMARK    4  A    between atoms: C_15  and  N_23
REMARK    5  A    between atoms: N_16  and  N_17
REMARK    6  A    between atoms: C_31  and  C_32
REMARK                            x       y       z     vdW  Elec       q    Type
REMARK                         _______ _______ _______ _____ _____    ______ ____
ROOT
ATOM      1  C   UNL     1       1.379  -5.285   1.563  0.00  0.00    +0.032 C 
ATOM      2  C   UNL     1       2.747  -4.962   0.958  0.00  0.00    +0.061 C 
ATOM      3  C   UNL     1       2.667  -3.666   0.189  0.00  0.00    +0.037 C 
ATOM      4  C   UNL     1       1.818  -2.686   0.565  0.00  0.00    +0.026 C 
ATOM      5  C   UNL     1       1.754  -1.383  -0.193  0.00  0.00    +0.098 C 
ATOM      6  C   UNL     1       2.366  -1.520  -1.556  0.00  0.00    +0.078 C 
ATOM      7  C   UNL     1       3.194  -2.556  -1.852  0.00  0.00    +0.117 C 
ATOM      8  N   UNL     1       3.480  -3.505  -0.900  0.00  0.00    -0.223 N 
ATOM      9  C   UNL     1       0.966  -2.850   1.672  0.00  0.00    +0.162 C 
ATOM     10  O   UNL     1       0.219  -1.946   1.988  0.00  0.00    -0.292 OA
ATOM     11  C   UNL     1       0.963  -4.123   2.472  0.00  0.00    +0.088 C 
ENDROOT
BRANCH   1  15
ATOM     12  C   UNL     1       1.638  -8.880   3.856  0.00  0.00    +0.000 A 
ATOM     13  C   UNL     1       0.773  -8.807   2.780  0.00  0.00    +0.000 A 
ATOM     14  C   UNL     1       0.690  -7.644   2.038  0.00  0.00    +0.004 A 
ATOM     15  C   UNL     1       1.470  -6.553   2.373  0.00  0.00    -0.044 A 
ATOM     16  C   UNL     1       2.339  -6.628   3.446  0.00  0.00    +0.004 A 
ATOM     17  C   UNL     1       2.419  -7.789   4.190  0.00  0.00    +0.000 A 
ENDBRANCH   1  15
BRANCH   8  18
ATOM     18  N   UNL     1       4.586  -4.295  -1.042  0.00  0.00    -0.217 NA
ATOM     19  C   UNL     1       5.799  -3.479  -1.200  0.00  0.00    +0.134 C 
ATOM     20  C   UNL     1       7.018  -4.401  -1.295  0.00  0.00    +0.177 C 
ATOM     21  O   UNL     1       6.834  -5.314  -2.380  0.00  0.00    -0.377 OA
ATOM     22  C   UNL     1       5.662  -6.125  -2.258  0.00  0.00    +0.177 C 
ATOM     23  C   UNL     1       4.430  -5.221  -2.172  0.00  0.00    +0.134 C 
ENDBRANCH   8  18
BRANCH   5  24
ATOM     24  C   UNL     1       2.499  -0.325   0.579  0.00  0.00    -0.023 A 
ATOM     25  C   UNL     1       3.805  -0.549   0.976  0.00  0.00    +0.005 A 
ATOM     26  C   UNL     1       4.488   0.421   1.684  0.00  0.00    +0.000 A 
ATOM     27  C   UNL     1       3.866   1.616   1.996  0.00  0.00    +0.001 A 
ATOM     28  C   UNL     1       2.561   1.840   1.599  0.00  0.00    +0.012 A 
ATOM     29  C   UNL     1       1.878   0.869   0.891  0.00  0.00    +0.059 A 
BRANCH  29  30
ATOM     30  C   UNL     1       0.455   1.114   0.458  0.00  0.00    +0.418 C 
ATOM     31  F   UNL     1       0.096   2.432   0.760  0.00  0.00    -0.166 F 
ATOM     32  F   UNL     1       0.344   0.904  -0.920  0.00  0.00    -0.166 F 
ATOM     33  F   UNL     1      -0.396   0.232   1.134  0.00  0.00    -0.166 F 
ENDBRANCH  29  30
ENDBRANCH   5  24
BRANCH   7  34
ATOM     34  N   UNL     1       3.747  -2.655  -3.106  0.00  0.00    -0.344 N 
ATOM     35  H   UNL     1       3.237  -2.378  -3.884  0.00  0.00    +0.144 HD
ATOM     36  H   UNL     1       4.646  -3.002  -3.214  0.00  0.00    +0.144 HD
ENDBRANCH   7  34
BRANCH   6  37
ATOM     37  C   UNL     1       2.071  -0.544  -2.561  0.00  0.00    +0.099 C 
ATOM     38  N   UNL     1       1.838   0.230  -3.359  0.00  0.00    -0.191 NA
ENDBRANCH   6  37
TORSDOF 6
