REMARK  Name = ZINC33530145
REMARK  7 active torsions:
REMARK  status: ('A' for Active; 'I' for Inactive)
REMARK    1  A    between atoms: C_1  and  C_2
REMARK    2  A    between atoms: C_5  and  C_37
REMARK    3  A    between atoms: C_6  and  C_8
REMARK    4  A    between atoms: N_16  and  C_19
REMARK    5  A    between atoms: C_24  and  C_25
REMARK    6  A    between atoms: C_26  and  C_28
REMARK    7  A    between atoms: C_26  and  C_34
REMARK                            x       y       z     vdW  Elec       q    Type
REMARK                         _______ _______ _______ _____ _____    ______ ____
ROOT
ATOM      1  C   UNL     1       0.052  -2.871   2.473  0.00  0.00    -0.026 C 
ATOM      2  C   UNL     1      -1.331  -3.437   2.778  0.00  0.00    +0.078 C 
ATOM      3  C   UNL     1      -2.001  -2.085   3.230  0.00  0.00    +0.090 C 
ATOM      4  C   UNL     1      -3.406  -2.404   3.146  0.00  0.00    +0.229 C 
ATOM      5  O   UNL     1      -4.301  -1.990   3.852  0.00  0.00    -0.275 OA
ATOM      6  N   UNL     1      -3.509  -3.277   2.092  0.00  0.00    -0.210 N 
ATOM      7  C   UNL     1      -2.289  -3.772   1.679  0.00  0.00    +0.229 C 
ATOM      8  O   UNL     1      -2.037  -4.349   0.643  0.00  0.00    -0.275 OA
ATOM      9  C   UNL     1      -1.030  -1.520   4.175  0.00  0.00    +0.074 C 
ATOM     10  N   UNL     1       0.313  -1.959   3.634  0.00  0.00    +0.398 N 
ATOM     11  H   UNL     1       0.819  -2.456   4.352  0.00  0.00    -0.083 HD
ATOM     12  H   UNL     1       0.848  -1.160   3.328  0.00  0.00    -0.083 HD
ENDROOT
BRANCH   1  18
ATOM     13  C   UNL     1      -0.597   1.436   0.008  0.00  0.00    +0.044 C 
ATOM     14  C   UNL     1      -0.275  -0.036   0.001  0.00  0.00    -0.050 A 
ATOM     15  C   UNL     1       0.007  -0.676  -1.192  0.00  0.00    +0.003 A 
ATOM     16  C   UNL     1       0.302  -2.026  -1.198  0.00  0.00    +0.004 A 
ATOM     17  C   UNL     1       0.317  -2.737  -0.012  0.00  0.00    -0.049 A 
ATOM     18  C   UNL     1       0.036  -2.097   1.180  0.00  0.00    -0.057 A 
ATOM     19  C   UNL     1      -0.255  -0.745   1.187  0.00  0.00    +0.005 A 
ATOM     20  C   UNL     1       0.638  -4.209  -0.020  0.00  0.00    +0.044 C 
ENDBRANCH   1  18
BRANCH   6  21
ATOM     21  C   UNL     1      -4.728  -3.642   1.502  0.00  0.00    +0.047 A 
ATOM     22  C   UNL     1      -5.231  -2.908   0.436  0.00  0.00    +0.024 A 
ATOM     23  C   UNL     1      -6.432  -3.270  -0.143  0.00  0.00    +0.002 A 
ATOM     24  C   UNL     1      -7.132  -4.361   0.338  0.00  0.00    +0.000 A 
ATOM     25  C   UNL     1      -6.633  -5.093   1.399  0.00  0.00    +0.005 A 
ATOM     26  C   UNL     1      -5.430  -4.740   1.979  0.00  0.00    -0.029 A 
ATOM     27  C   UNL     1      -4.884  -5.542   3.132  0.00  0.00    +0.045 C 
ENDBRANCH   6  21
BRANCH   9  28
ATOM     28  C   UNL     1      -1.114  -0.015   4.179  0.00  0.00    -0.047 A 
ATOM     29  C   UNL     1      -2.317   0.610   3.912  0.00  0.00    +0.003 A 
ATOM     30  C   UNL     1      -2.394   1.990   3.916  0.00  0.00    +0.000 A 
ATOM     31  C   UNL     1      -1.268   2.745   4.187  0.00  0.00    +0.000 A 
ATOM     32  C   UNL     1      -0.065   2.119   4.455  0.00  0.00    +0.000 A 
ATOM     33  C   UNL     1       0.011   0.739   4.456  0.00  0.00    +0.003 A 
ENDBRANCH   9  28
BRANCH   9  34
ATOM     34  C   UNL     1      -1.266  -2.065   5.560  0.00  0.00    +0.350 C 
ATOM     35  O   UNL     1      -0.386  -2.689   6.128  0.00  0.00    -0.248 OA
ATOM     36  O   UNL     1      -2.337  -1.881   6.113  0.00  0.00    -0.248 OA
ENDBRANCH   9  34
TORSDOF 4
