REMARK  Name = ZINC65531146
REMARK  6 active torsions:
REMARK  status: ('A' for Active; 'I' for Inactive)
REMARK    1  A    between atoms: C_1  and  C_2
REMARK    2  A    between atoms: C_11  and  C_18
REMARK    3  A    between atoms: C_20  and  O_26
REMARK    4  A    between atoms: C_22  and  O_24
REMARK    5  A    between atoms: O_24  and  C_25
REMARK    6  A    between atoms: O_26  and  C_27
REMARK                            x       y       z     vdW  Elec       q    Type
REMARK                         _______ _______ _______ _____ _____    ______ ____
ROOT
ATOM      1  C   UNL     1      -0.018   1.503   0.010  0.00  0.00    +0.045 C 
ATOM      2  C   UNL     1       0.002  -0.004   0.002  0.00  0.00    -0.034 A 
ATOM      3  C   UNL     1       0.006  -0.697  -1.220  0.00  0.00    +0.008 A 
ATOM      4  C   UNL     1       0.026  -2.057  -1.225  0.00  0.00    +0.047 A 
ATOM      5  C   UNL     1       0.043  -2.750   0.003  0.00  0.00    +0.138 A 
ATOM      6  N   UNL     1       0.065  -4.037   0.304  0.00  0.00    -0.231 NA
ATOM      7  C   UNL     1       0.080  -4.183   1.641  0.00  0.00    +0.081 A 
ATOM      8  C   UNL     1       0.051  -2.964   2.202  0.00  0.00    +0.056 A 
ATOM      9  N   UNL     1       0.036  -2.047   1.176  0.00  0.00    -0.302 N 
ATOM     10  C   UNL     1       0.022  -0.682   1.169  0.00  0.00    +0.096 A 
ATOM     11  C   UNL     1       0.022  -2.568   3.655  0.00  0.00    +0.077 C 
ATOM     12  C   UNL     1      -0.244  -3.753   4.564  0.00  0.00    +0.110 C 
ATOM     13  C   UNL     1       0.864  -4.754   4.495  0.00  0.00    +0.214 C 
ATOM     14  O   UNL     1       1.599  -4.873   5.453  0.00  0.00    -0.276 OA
ATOM     15  N   UNL     1       1.078  -5.519   3.430  0.00  0.00    -0.310 N 
ATOM     16  C   UNL     1       0.134  -5.525   2.318  0.00  0.00    +0.161 C 
ATOM     17  H   UNL     1       1.870  -6.078   3.392  0.00  0.00    +0.149 HD
ENDROOT
BRANCH  11  18
ATOM     18  C   UNL     1      -1.062  -1.541   3.861  0.00  0.00    -0.031 A 
ATOM     19  C   UNL     1      -2.375  -1.857   3.571  0.00  0.00    +0.050 A 
ATOM     20  C   UNL     1      -3.375  -0.913   3.760  0.00  0.00    +0.124 A 
ATOM     21  C   UNL     1      -3.055   0.347   4.240  0.00  0.00    +0.091 A 
ATOM     22  C   UNL     1      -1.736   0.662   4.529  0.00  0.00    +0.124 A 
ATOM     23  C   UNL     1      -0.741  -0.287   4.344  0.00  0.00    +0.050 A 
BRANCH  22  24
ATOM     24  O   UNL     1      -1.419   1.897   5.000  0.00  0.00    -0.495 OA
ATOM     25  C   UNL     1      -2.495   2.822   5.171  0.00  0.00    +0.277 C 
ENDBRANCH  22  24
BRANCH  20  26
ATOM     26  O   UNL     1      -4.667  -1.225   3.475  0.00  0.00    -0.495 OA
ATOM     27  C   UNL     1      -5.643  -0.205   3.693  0.00  0.00    +0.277 C 
ENDBRANCH  20  26
ENDBRANCH  11  18
TORSDOF 3
