REMARK  Name = ZINC05591610
REMARK  10 active torsions:
REMARK  status: ('A' for Active; 'I' for Inactive)
REMARK    1  A    between atoms: C_1  and  C_2
REMARK    2  A    between atoms: C_2  and  N_3
REMARK    3  A    between atoms: N_3  and  C_4
REMARK    4  A    between atoms: N_3  and  S_6
REMARK    5  A    between atoms: C_4  and  C_5
REMARK    6  A    between atoms: S_6  and  C_9
REMARK    7  A    between atoms: C_12  and  O_29
REMARK    8  A    between atoms: C_13  and  N_15
REMARK    9  A    between atoms: C_16  and  C_18
REMARK   10  A    between atoms: C_18  and  N_19
REMARK                            x       y       z     vdW  Elec       q    Type
REMARK                         _______ _______ _______ _____ _____    ______ ____
ROOT
ATOM      1  C   UNL     1      -0.314   0.590  -3.508  0.00  0.00    +0.107 A 
ATOM      2  C   UNL     1      -1.383   1.444  -3.304  0.00  0.00    +0.032 A 
ATOM      3  C   UNL     1      -1.513   2.589  -4.068  0.00  0.00    +0.049 A 
ATOM      4  C   UNL     1      -0.572   2.884  -5.040  0.00  0.00    +0.138 A 
ATOM      5  C   UNL     1       0.505   2.025  -5.246  0.00  0.00    +0.077 A 
ATOM      6  C   UNL     1       0.632   0.881  -4.472  0.00  0.00    +0.055 A 
ENDROOT
BRANCH   5   7
ATOM      7  N   UNL     1       1.460   2.318  -6.228  0.00  0.00    -0.284 N 
ATOM      8  C   UNL     1       2.190   1.326  -6.776  0.00  0.00    +0.201 C 
ATOM      9  O   UNL     1       1.951   0.171  -6.495  0.00  0.00    -0.278 OA
ATOM     10  H   UNL     1       1.597   3.235  -6.513  0.00  0.00    +0.155 HD
BRANCH   8  11
ATOM     11  C   UNL     1       3.301   1.653  -7.740  0.00  0.00    +0.019 C 
BRANCH  11  12
ATOM     12  N   UNL     1       3.938   0.409  -8.193  0.00  0.00    +0.388 N 
ATOM     13  C   UNL     1       5.091   0.729  -9.047  0.00  0.00    -0.073 C 
ATOM     14  C   UNL     1       5.914  -0.544  -9.254  0.00  0.00    +0.017 C 
ATOM     15  C   UNL     1       5.014  -1.665  -9.709  0.00  0.00    -0.048 A 
ATOM     16  C   UNL     1       5.589  -2.790 -10.278  0.00  0.00    +0.004 A 
ATOM     17  C   UNL     1       4.797  -3.838 -10.704  0.00  0.00    +0.000 A 
ATOM     18  C   UNL     1       3.424  -3.764 -10.561  0.00  0.00    +0.000 A 
ATOM     19  C   UNL     1       2.850  -2.643  -9.996  0.00  0.00    +0.002 A 
ATOM     20  C   UNL     1       3.644  -1.589  -9.569  0.00  0.00    -0.061 A 
ATOM     21  C   UNL     1       2.976  -0.382  -8.966  0.00  0.00    -0.042 C 
ATOM     22  H   UNL     1       4.246  -0.123  -7.393  0.00  0.00    -0.081 HD
ENDBRANCH  11  12
ENDBRANCH   8  11
ENDBRANCH   5   7
BRANCH   1  23
ATOM     23  S   UNL     1      -0.155  -0.867  -2.531  0.00  0.00    +0.061 S 
ATOM     24  O   UNL     1       0.638  -1.776  -3.283  0.00  0.00    -0.153 OA
ATOM     25  O   UNL     1      -1.460  -1.194  -2.073  0.00  0.00    -0.153 OA
BRANCH  23  26
ATOM     26  N   UNL     1       0.730  -0.464  -1.190  0.00  0.00    -0.177 NA
BRANCH  26  28
ATOM     27  C   UNL     1       0.030   1.541   0.024  0.00  0.00    +0.022 C 
ATOM     28  C   UNL     1       0.052   0.011   0.019  0.00  0.00    +0.106 C 
ENDBRANCH  26  28
BRANCH  26  29
ATOM     29  C   UNL     1       2.190  -0.582  -1.213  0.00  0.00    +0.106 C 
ATOM     30  C   UNL     1       2.602  -1.935  -0.629  0.00  0.00    +0.022 C 
ENDBRANCH  26  29
ENDBRANCH  23  26
ENDBRANCH   1  23
BRANCH   4  31
ATOM     31  O   UNL     1      -0.699   4.009  -5.793  0.00  0.00    -0.505 OA
ATOM     32  H   UNL     1      -0.264   4.786  -5.416  0.00  0.00    +0.292 HD
ENDBRANCH   4  31
TORSDOF 8
