REMARK  Name = ZINC16045765
REMARK  7 active torsions:
REMARK  status: ('A' for Active; 'I' for Inactive)
REMARK    1  A    between atoms: C_1  and  C_2
REMARK    2  A    between atoms: C_4  and  C_18
REMARK    3  A    between atoms: C_5  and  C_17
REMARK    4  A    between atoms: N_6  and  C_7
REMARK    5  A    between atoms: C_7  and  C_8
REMARK    6  A    between atoms: C_18  and  C_20
REMARK    7  A    between atoms: C_20  and  N_21
REMARK                            x       y       z     vdW  Elec       q    Type
REMARK                         _______ _______ _______ _____ _____    ______ ____
ROOT
ATOM      1  C   UNL     1       1.604   3.793   1.428  0.00  0.00    +0.183 C 
ATOM      2  O   UNL     1       1.463   3.014   2.348  0.00  0.00    -0.290 OA
ENDROOT
BRANCH   1   6
ATOM      3  C   UNL     1       2.562   8.761   0.823  0.00  0.00    +0.063 C 
ATOM      4  C   UNL     1       2.304   7.399   1.415  0.00  0.00    +0.017 A 
ATOM      5  C   UNL     1       2.078   6.276   0.714  0.00  0.00    +0.034 A 
ATOM      6  C   UNL     1       1.881   5.205   1.701  0.00  0.00    +0.040 A 
ATOM      7  C   UNL     1       2.006   5.805   2.940  0.00  0.00    +0.027 A 
ATOM      8  N   UNL     1       2.264   7.112   2.749  0.00  0.00    -0.343 N 
ATOM      9  C   UNL     1       1.879   5.115   4.273  0.00  0.00    +0.064 C 
BRANCH   8  10
ATOM     10  C   UNL     1       2.465   8.089   3.821  0.00  0.00    +0.157 C 
BRANCH  10  11
ATOM     11  C   UNL     1       1.140   8.695   4.204  0.00  0.00    -0.024 A 
ATOM     12  C   UNL     1       0.375   8.110   5.196  0.00  0.00    +0.009 A 
ATOM     13  C   UNL     1      -0.842   8.662   5.551  0.00  0.00    +0.050 A 
ATOM     14  C   UNL     1      -1.298   9.804   4.912  0.00  0.00    +0.166 A 
ATOM     15  C   UNL     1      -0.527  10.394   3.914  0.00  0.00    +0.167 A 
ATOM     16  C   UNL     1       0.694   9.838   3.567  0.00  0.00    +0.055 A 
ATOM     17  O   UNL     1      -1.186  11.494   3.446  0.00  0.00    -0.453 OA
ATOM     18  C   UNL     1      -2.173  11.805   4.447  0.00  0.00    +0.466 C 
ATOM     19  O   UNL     1      -2.440  10.535   5.071  0.00  0.00    -0.453 OA
ENDBRANCH  10  11
ENDBRANCH   8  10
ENDBRANCH   1   6
BRANCH   1  20
ATOM     20  C   UNL     1       1.494   3.308   0.006  0.00  0.00    +0.197 C 
BRANCH  20  21
ATOM     21  N   UNL     1       1.214   1.870   0.001  0.00  0.00    -0.216 N 
ATOM     22  C   UNL     1       2.165   0.913  -0.014  0.00  0.00    +0.252 C 
ATOM     23  O   UNL     1       3.367   1.072  -0.025  0.00  0.00    -0.272 OA
ATOM     24  C   UNL     1       1.416  -0.400  -0.014  0.00  0.00    +0.144 C 
ATOM     25  C   UNL     1       1.734  -1.194  -1.277  0.00  0.00    +0.081 C 
ATOM     26  C   UNL     1       1.167  -2.611  -1.111  0.00  0.00    +0.232 C 
ATOM     27  O   UNL     1       1.845  -3.244  -0.025  0.00  0.00    -0.492 OA
ATOM     28  C   UNL     1       1.946  -2.567   1.148  0.00  0.00    +0.126 A 
ATOM     29  C   UNL     1       1.754  -1.197   1.215  0.00  0.00    +0.027 A 
ATOM     30  C   UNL     1       1.872  -0.544   2.430  0.00  0.00    +0.010 A 
ATOM     31  C   UNL     1       2.177  -1.254   3.576  0.00  0.00    +0.001 A 
ATOM     32  C   UNL     1       2.365  -2.622   3.512  0.00  0.00    +0.004 A 
ATOM     33  C   UNL     1       2.251  -3.278   2.303  0.00  0.00    +0.046 A 
ATOM     34  N   UNL     1       0.002  -0.004   0.002  0.00  0.00    -0.281 N 
ATOM     35  C   UNL     1      -0.016   1.343   0.009  0.00  0.00    +0.310 C 
ATOM     36  O   UNL     1      -1.035   2.005   0.018  0.00  0.00    -0.252 OA
ATOM     37  H   UNL     1      -0.767  -0.596   0.007  0.00  0.00    +0.152 HD
ENDBRANCH  20  21
ENDBRANCH   1  20
TORSDOF 5
