REMARK  Name = ZINC63339748
REMARK  12 active torsions:
REMARK  status: ('A' for Active; 'I' for Inactive)
REMARK    1  A    between atoms: C_1  and  C_2
REMARK    2  A    between atoms: C_2  and  C_3
REMARK    3  A    between atoms: C_2  and  C_4
REMARK    4  A    between atoms: C_2  and  O_5
REMARK    5  A    between atoms: O_5  and  C_6
REMARK    6  A    between atoms: N_8  and  C_9
REMARK    7  A    between atoms: C_9  and  C_11
REMARK    8  A    between atoms: C_9  and  C_21
REMARK    9  A    between atoms: C_11  and  C_12
REMARK   10  A    between atoms: C_25  and  S_28
REMARK   11  A    between atoms: S_28  and  C_29
REMARK   12  A    between atoms: C_29  and  C_30
REMARK                            x       y       z     vdW  Elec       q    Type
REMARK                         _______ _______ _______ _____ _____    ______ ____
ROOT
ATOM      1  C   UNL     1       4.112  -0.678  -2.092  0.00  0.00    +0.125 C 
ENDROOT
BRANCH   1   2
ATOM      2  C   UNL     1       4.770  -1.308  -0.862  0.00  0.00    +0.223 C 
ATOM      3  N   UNL     1       6.227  -1.015  -0.838  0.00  0.00    -0.225 NA
ATOM      4  N   UNL     1       6.785  -2.107  -0.031  0.00  0.00    -0.218 NA
ATOM      5  C   UNL     1       5.802  -3.207  -0.103  0.00  0.00    +0.263 C 
ATOM      6  O   UNL     1       4.721  -2.751  -0.940  0.00  0.00    -0.330 OA
ATOM      7  H   UNL     1       6.613  -1.022  -1.770  0.00  0.00    +0.143 HD
ATOM      8  H   UNL     1       7.682  -2.399  -0.389  0.00  0.00    +0.144 HD
BRANCH   5   9
ATOM      9  S   UNL     1       6.572  -4.681  -0.827  0.00  0.00    -0.108 S 
BRANCH   9  10
ATOM     10  C   UNL     1       7.210  -4.102  -2.424  0.00  0.00    +0.111 C 
BRANCH  10  11
ATOM     11  C   UNL     1       7.773  -5.270  -3.192  0.00  0.00    -0.002 A 
ATOM     12  C   UNL     1       9.073  -5.683  -2.969  0.00  0.00    +0.007 A 
ATOM     13  C   UNL     1       9.590  -6.754  -3.674  0.00  0.00    +0.000 A 
ATOM     14  C   UNL     1       8.807  -7.413  -4.603  0.00  0.00    +0.003 A 
ATOM     15  C   UNL     1       7.507  -7.003  -4.828  0.00  0.00    +0.038 A 
ATOM     16  C   UNL     1       6.986  -5.933  -4.118  0.00  0.00    +0.127 A 
ATOM     17  F   UNL     1       5.714  -5.534  -4.334  0.00  0.00    -0.205 F 
ENDBRANCH  10  11
ENDBRANCH   9  10
ENDBRANCH   5   9
ENDBRANCH   1   2
BRANCH   1  20
ATOM     18  C   UNL     1       1.896  -0.740  -1.082  0.00  0.00    +0.401 C 
ATOM     19  O   UNL     1       2.369  -0.244  -0.079  0.00  0.00    -0.226 OA
ATOM     20  N   UNL     1       2.693  -1.040  -2.126  0.00  0.00    -0.274 N 
ATOM     21  H   UNL     1       2.328  -1.496  -2.901  0.00  0.00    +0.152 HD
BRANCH  18  22
ATOM     22  O   UNL     1       0.575  -0.991  -1.151  0.00  0.00    -0.445 OA
BRANCH  22  24
ATOM     23  C   UNL     1      -0.085   0.721   0.423  0.00  0.00    +0.055 C 
ATOM     24  C   UNL     1      -0.193  -0.754   0.032  0.00  0.00    +0.107 C 
ATOM     25  C   UNL     1       0.343  -1.624   1.170  0.00  0.00    +0.055 C 
ATOM     26  C   UNL     1      -1.658  -1.106  -0.233  0.00  0.00    +0.055 C 
ENDBRANCH  22  24
ENDBRANCH  18  22
ENDBRANCH   1  20
BRANCH   1  27
ATOM     27  C   UNL     1       4.249   0.844  -2.019  0.00  0.00    +0.059 C 
BRANCH  27  28
ATOM     28  C   UNL     1       3.712   1.458  -3.286  0.00  0.00    -0.040 C 
ATOM     29  C   UNL     1       2.467   1.946  -3.489  0.00  0.00    -0.001 A 
ATOM     30  C   UNL     1       1.285   2.047  -2.624  0.00  0.00    +0.010 A 
ATOM     31  C   UNL     1       0.153   2.596  -3.121  0.00  0.00    +0.001 A 
ATOM     32  C   UNL     1       0.081   3.071  -4.438  0.00  0.00    +0.002 A 
ATOM     33  C   UNL     1       1.125   3.013  -5.293  0.00  0.00    +0.026 A 
ATOM     34  C   UNL     1       2.365   2.454  -4.876  0.00  0.00    +0.043 A 
ATOM     35  N   UNL     1       3.502   2.287  -5.505  0.00  0.00    -0.380 N 
ATOM     36  C   UNL     1       4.457   1.658  -4.587  0.00  0.00    +0.144 C 
ATOM     37  H   UNL     1       3.683   2.541  -6.424  0.00  0.00    +0.160 HD
ENDBRANCH  27  28
ENDBRANCH   1  27
TORSDOF 9
