REMARK  Name = ZINC39943798
REMARK  9 active torsions:
REMARK  status: ('A' for Active; 'I' for Inactive)
REMARK    1  A    between atoms: C_1  and  C_2
REMARK    2  A    between atoms: C_2  and  C_22
REMARK    3  A    between atoms: N_3  and  N_4
REMARK    4  A    between atoms: C_5  and  C_7
REMARK    5  A    between atoms: C_10  and  C_18
REMARK    6  A    between atoms: C_18  and  C_19
REMARK    7  A    between atoms: C_18  and  C_20
REMARK    8  A    between atoms: C_18  and  C_21
REMARK    9  A    between atoms: C_27  and  O_28
REMARK                            x       y       z     vdW  Elec       q    Type
REMARK                         _______ _______ _______ _____ _____    ______ ____
ROOT
ATOM      1  N   UNL     1      -0.690  -0.196   2.788  0.00  0.00    -0.201 N 
ATOM      2  C   UNL     1      -0.466  -0.821   3.962  0.00  0.00    +0.283 C 
ATOM      3  O   UNL     1      -0.432  -2.035   4.007  0.00  0.00    -0.267 OA
ATOM      4  H   UNL     1      -0.718   0.773   2.752  0.00  0.00    +0.178 HD
ENDROOT
BRANCH   2   5
ATOM      5  C   UNL     1      -0.263  -0.029   5.192  0.00  0.00    +0.150 C 
ATOM      6  C   UNL     1      -0.030  -0.538   6.401  0.00  0.00    -0.011 C 
ATOM      7  C   UNL     1       0.283  -1.933   6.867  0.00  0.00    +0.039 C 
ATOM      8  C   UNL     1       1.592  -1.843   7.672  0.00  0.00    -0.001 C 
ATOM      9  C   UNL     1       1.489  -0.735   8.717  0.00  0.00    +0.007 C 
ATOM     10  C   UNL     1       1.322   0.639   8.060  0.00  0.00    +0.033 C 
ATOM     11  C   UNL     1      -0.025   0.667   7.334  0.00  0.00    +0.156 C 
ATOM     12  N   UNL     1      -0.134   1.791   6.402  0.00  0.00    -0.179 NA
ATOM     13  N   UNL     1      -0.280   1.335   5.261  0.00  0.00    -0.149 NA
BRANCH   8  14
ATOM     14  C   UNL     1       2.752  -1.536   6.722  0.00  0.00    -0.035 C 
ATOM     15  C   UNL     1       2.265  -0.607   5.607  0.00  0.00    +0.011 C 
ATOM     16  C   UNL     1       3.880  -0.854   7.498  0.00  0.00    +0.011 C 
ATOM     17  C   UNL     1       3.269  -2.839   6.110  0.00  0.00    +0.011 C 
ENDBRANCH   8  14
ENDBRANCH   2   5
BRANCH   1  20
ATOM     18  C   UNL     1      -1.141   1.160   0.434  0.00  0.00    +0.068 C 
ATOM     19  C   UNL     1      -1.098  -0.346   0.491  0.00  0.00    +0.067 C 
ATOM     20  N   UNL     1      -0.883  -0.947   1.621  0.00  0.00    -0.184 NA
BRANCH  19  21
ATOM     21  C   UNL     1      -1.301  -1.135  -0.737  0.00  0.00    +0.039 A 
ATOM     22  C   UNL     1      -1.528  -0.492  -1.956  0.00  0.00    +0.013 A 
ATOM     23  C   UNL     1      -1.716  -1.237  -3.101  0.00  0.00    +0.001 A 
ATOM     24  C   UNL     1      -1.683  -2.620  -3.048  0.00  0.00    +0.004 A 
ATOM     25  C   UNL     1      -1.460  -3.268  -1.847  0.00  0.00    +0.046 A 
ATOM     26  C   UNL     1      -1.262  -2.535  -0.689  0.00  0.00    +0.126 A 
BRANCH  26  27
ATOM     27  O   UNL     1      -1.038  -3.171   0.490  0.00  0.00    -0.506 OA
ATOM     28  H   UNL     1      -1.842  -3.374   0.987  0.00  0.00    +0.292 HD
ENDBRANCH  26  27
ENDBRANCH  19  21
ENDBRANCH   1  20
TORSDOF 5
