REMARK  Name = ZINC20579625
REMARK  7 active torsions:
REMARK  status: ('A' for Active; 'I' for Inactive)
REMARK    1  A    between atoms: C_1  and  C_2
REMARK    2  A    between atoms: C_2  and  C_3
REMARK    3  A    between atoms: C_6  and  N_9
REMARK    4  A    between atoms: C_11  and  C_16
REMARK    5  A    between atoms: C_22  and  C_24
REMARK    6  A    between atoms: C_25  and  C_26
REMARK    7  A    between atoms: C_30  and  N_32
REMARK                            x       y       z     vdW  Elec       q    Type
REMARK                         _______ _______ _______ _____ _____    ______ ____
ROOT
ATOM      1  C   UNL     1       2.522  12.189   0.035  0.00  0.00    +0.109 A 
ATOM      2  N   UNL     1       1.321  11.646   0.057  0.00  0.00    -0.144 NA
ATOM      3  N   UNL     1       1.149  10.397   0.054  0.00  0.00    -0.126 NA
ATOM      4  C   UNL     1       2.169   9.550   0.038  0.00  0.00    +0.188 A 
ATOM      5  S   UNL     1       3.532  10.710   0.013  0.00  0.00    -0.035 S 
ATOM      6  N   UNL     1       2.177   8.161   0.035  0.00  0.00    -0.260 N 
ATOM      7  C   UNL     1       1.015   7.479   0.056  0.00  0.00    +0.243 C 
ATOM      8  O   UNL     1      -0.043   8.082   0.078  0.00  0.00    -0.270 OA
ATOM      9  H   UNL     1       3.133   7.617   0.015  0.00  0.00    +0.157 HD
ENDROOT
BRANCH   1  12
ATOM     10  N   UNL     1       1.976  15.728  -0.663  0.00  0.00    -0.271 N 
ATOM     11  C   UNL     1       2.298  14.387  -1.166  0.00  0.00    +0.124 C 
ATOM     12  C   UNL     1       2.930  13.640   0.030  0.00  0.00    +0.073 C 
ATOM     13  C   UNL     1       2.315  14.392   1.233  0.00  0.00    +0.108 C 
ATOM     14  C   UNL     1       1.972  15.758   0.681  0.00  0.00    +0.220 C 
ATOM     15  O   UNL     1       1.730  16.738   1.353  0.00  0.00    -0.275 OA
BRANCH  10  19
ATOM     16  C   UNL     1       1.177  19.018  -3.091  0.00  0.00    -0.048 A 
ATOM     17  C   UNL     1       1.586  17.826  -3.658  0.00  0.00    +0.005 A 
ATOM     18  C   UNL     1       1.852  16.733  -2.856  0.00  0.00    +0.024 A 
ATOM     19  C   UNL     1       1.708  16.833  -1.479  0.00  0.00    +0.036 A 
ATOM     20  C   UNL     1       1.291  18.031  -0.912  0.00  0.00    +0.024 A 
ATOM     21  C   UNL     1       1.032  19.121  -1.719  0.00  0.00    +0.005 A 
BRANCH  16  23
ATOM     22  C   UNL     1      -0.587  20.192  -4.379  0.00  0.00    +0.009 C 
ATOM     23  C   UNL     1       0.887  20.208  -3.969  0.00  0.00    +0.032 C 
ENDBRANCH  16  23
ENDBRANCH  10  19
ENDBRANCH   1  12
BRANCH   7  24
ATOM     24  C   UNL     1       1.024   6.016   0.053  0.00  0.00    +0.068 C 
ATOM     25  C   UNL     1      -0.140   5.335   0.075  0.00  0.00    +0.013 C 
BRANCH  25  26
ATOM     26  C   UNL     1      -0.131   3.863   0.071  0.00  0.00    -0.023 A 
ATOM     27  C   UNL     1       1.082   3.167   0.046  0.00  0.00    +0.008 A 
ATOM     28  C   UNL     1       1.083   1.788   0.043  0.00  0.00    +0.003 A 
ATOM     29  C   UNL     1      -0.114   1.093   0.064  0.00  0.00    +0.033 A 
ATOM     30  C   UNL     1      -1.318   1.773   0.084  0.00  0.00    +0.127 A 
ATOM     31  C   UNL     1      -1.335   3.152   0.093  0.00  0.00    +0.040 A 
BRANCH  30  32
ATOM     32  N   UNL     1      -2.592   1.020   0.100  0.00  0.00    +0.056 N 
ATOM     33  O   UNL     1      -2.579  -0.198   0.096  0.00  0.00    -0.126 OA
ATOM     34  O   UNL     1      -3.653   1.617   0.118  0.00  0.00    -0.126 OA
ENDBRANCH  30  32
ENDBRANCH  25  26
ENDBRANCH   7  24
TORSDOF 6
