REMARK  Name = ZINC67392572
REMARK  11 active torsions:
REMARK  status: ('A' for Active; 'I' for Inactive)
REMARK    1  A    between atoms: C_1  and  C_2
REMARK    2  A    between atoms: N_7  and  C_9
REMARK    3  A    between atoms: C_9  and  C_10
REMARK    4  A    between atoms: C_9  and  C_11
REMARK    5  A    between atoms: C_9  and  C_12
REMARK    6  A    between atoms: C_12  and  N_13
REMARK    7  A    between atoms: C_14  and  C_16
REMARK    8  A    between atoms: C_22  and  C_24
REMARK    9  A    between atoms: C_24  and  C_25
REMARK   10  A    between atoms: C_24  and  C_26
REMARK   11  A    between atoms: C_24  and  C_27
REMARK                            x       y       z     vdW  Elec       q    Type
REMARK                         _______ _______ _______ _____ _____    ______ ____
ROOT
ATOM      1  N   UNL     1       2.186  -4.461   1.142  0.00  0.00    -0.309 N 
ATOM      2  C   UNL     1       2.321  -5.782   0.914  0.00  0.00    +0.299 C 
ATOM      3  O   UNL     1       1.925  -6.583   1.736  0.00  0.00    -0.265 OA
ATOM      4  H   UNL     1       2.502  -3.821   0.485  0.00  0.00    +0.149 HD
ENDROOT
BRANCH   2   5
ATOM      5  C   UNL     1       2.956  -6.261  -0.349  0.00  0.00    +0.305 C 
ATOM      6  O   UNL     1       3.352  -5.460  -1.171  0.00  0.00    -0.265 OA
ATOM      7  N   UNL     1       3.091  -7.583  -0.577  0.00  0.00    -0.255 N 
ATOM      8  C   UNL     1       3.682  -8.028  -1.751  0.00  0.00    +0.188 A 
ATOM      9  N   UNL     1       4.183  -7.340  -2.768  0.00  0.00    -0.126 NA
ATOM     10  N   UNL     1       4.690  -7.911  -3.772  0.00  0.00    -0.144 NA
ATOM     11  C   UNL     1       4.754  -9.224  -3.875  0.00  0.00    +0.109 A 
ATOM     12  S   UNL     1       3.993  -9.696  -2.324  0.00  0.00    -0.035 S 
ATOM     13  H   UNL     1       2.775  -8.223   0.080  0.00  0.00    +0.157 HD
BRANCH  11  14
ATOM     14  C   UNL     1       5.314 -10.083  -4.979  0.00  0.00    +0.013 C 
ATOM     15  C   UNL     1       6.800  -9.771  -5.165  0.00  0.00    +0.018 C 
ATOM     16  C   UNL     1       5.145 -11.559  -4.613  0.00  0.00    +0.018 C 
ATOM     17  C   UNL     1       4.565  -9.792  -6.281  0.00  0.00    +0.018 C 
ENDBRANCH  11  14
ENDBRANCH   2   5
BRANCH   1  18
ATOM     18  C   UNL     1       1.562  -3.991   2.382  0.00  0.00    +0.092 C 
BRANCH  18  19
ATOM     19  C   UNL     1       1.534  -2.461   2.390  0.00  0.00    -0.055 C 
ATOM     20  C   UNL     1       2.963  -1.924   2.303  0.00  0.00    -0.008 C 
ATOM     21  C   UNL     1       0.882  -1.970   3.685  0.00  0.00    -0.008 C 
BRANCH  19  27
ATOM     22  C   UNL     1      -0.019   1.526   0.010  0.00  0.00    +0.005 C 
ATOM     23  C   UNL     1       0.002  -0.004   0.002  0.00  0.00    -0.031 C 
ATOM     24  C   UNL     1      -1.434  -0.535   0.015  0.00  0.00    -0.001 C 
ATOM     25  C   UNL     1      -1.402  -2.064   0.086  0.00  0.00    -0.018 C 
ATOM     26  C   UNL     1      -0.613  -2.496   1.324  0.00  0.00    -0.078 C 
ATOM     27  N   UNL     1       0.758  -1.980   1.239  0.00  0.00    +0.384 N 
ATOM     28  C   UNL     1       0.740  -0.512   1.242  0.00  0.00    -0.075 C 
ATOM     29  H   UNL     1       1.188  -2.307   0.386  0.00  0.00    -0.081 HD
ENDBRANCH  19  27
ENDBRANCH  18  19
ENDBRANCH   1  18
TORSDOF 5
