REMARK  Name = ZINC21712843
REMARK  7 active torsions:
REMARK  status: ('A' for Active; 'I' for Inactive)
REMARK    1  A    between atoms: C_1  and  C_2
REMARK    2  A    between atoms: C_2  and  C_3
REMARK    3  A    between atoms: C_9  and  C_13
REMARK    4  A    between atoms: C_13  and  O_14
REMARK    5  A    between atoms: O_14  and  C_15
REMARK    6  A    between atoms: C_15  and  C_17
REMARK    7  A    between atoms: C_22  and  N_23
REMARK                            x       y       z     vdW  Elec       q    Type
REMARK                         _______ _______ _______ _____ _____    ______ ____
ROOT
ATOM      1  O   UNL     1      -0.583  -0.502   1.235  0.00  0.00    -0.455 OA
ENDROOT
BRANCH   1   2
ATOM      2  C   UNL     1      -0.619  -1.840   1.397  0.00  0.00    +0.341 C 
ATOM      3  O   UNL     1      -0.194  -2.569   0.522  0.00  0.00    -0.245 OA
BRANCH   2   4
ATOM      4  C   UNL     1      -1.171  -2.417   2.634  0.00  0.00    +0.082 A 
ATOM      5  C   UNL     1      -1.546  -1.585   3.692  0.00  0.00    +0.037 A 
ATOM      6  C   UNL     1      -2.063  -2.131   4.847  0.00  0.00    +0.043 A 
ATOM      7  C   UNL     1      -2.215  -3.505   4.965  0.00  0.00    +0.042 A 
ATOM      8  C   UNL     1      -1.849  -4.340   3.929  0.00  0.00    +0.064 A 
ATOM      9  C   UNL     1      -1.330  -3.807   2.755  0.00  0.00    +0.057 A 
ATOM     10 CL   UNL     1      -2.043  -6.058   4.090  0.00  0.00    -0.082 Cl
ATOM     11 CL   UNL     1      -2.528  -1.095   6.160  0.00  0.00    -0.083 Cl
BRANCH   9  12
ATOM     12  N   UNL     1      -0.967  -4.645   1.708  0.00  0.00    -0.356 N 
ATOM     13  H   UNL     1      -1.092  -5.733   1.806  0.00  0.00    +0.142 HD
ATOM     14  H   UNL     1      -0.553  -4.220   0.781  0.00  0.00    +0.142 HD
ENDBRANCH   9  12
ENDBRANCH   2   4
ENDBRANCH   1   2
BRANCH   1  15
ATOM     15  C   UNL     1      -0.025  -0.004  -0.009  0.00  0.00    +0.288 C 
BRANCH  15  22
ATOM     16  C   UNL     1      -1.617   6.114  -0.009  0.00  0.00    +0.102 A 
ATOM     17  N   UNL     1      -0.411   5.631  -0.014  0.00  0.00    -0.159 NA
ATOM     18  N   UNL     1      -0.174   4.260  -0.014  0.00  0.00    -0.171 N 
ATOM     19  C   UNL     1       1.038   3.632  -0.019  0.00  0.00    +0.275 A 
ATOM     20  O   UNL     1       2.068   4.289  -0.025  0.00  0.00    -0.266 OA
ATOM     21  C   UNL     1       1.099   2.238  -0.018  0.00  0.00    +0.099 A 
ATOM     22  C   UNL     1      -0.068   1.503  -0.011  0.00  0.00    +0.087 A 
ATOM     23  N   UNL     1      -1.232   2.147  -0.012  0.00  0.00    -0.223 NA
ATOM     24  C   UNL     1      -1.280   3.455  -0.008  0.00  0.00    +0.199 A 
ATOM     25  S   UNL     1      -2.613   4.633  -0.002  0.00  0.00    -0.033 S 
BRANCH  16  27
ATOM     26  C   UNL     1      -0.832   8.467  -0.014  0.00  0.00    +0.011 C 
ATOM     27  C   UNL     1      -2.060   7.555  -0.007  0.00  0.00    +0.061 C 
ENDBRANCH  16  27
ENDBRANCH  15  22
ENDBRANCH   1  15
TORSDOF 6
