REMARK  Name = ZINC00933700
REMARK  10 active torsions:
REMARK  status: ('A' for Active; 'I' for Inactive)
REMARK    1  A    between atoms: C_1  and  C_2
REMARK    2  A    between atoms: N_8  and  S_9
REMARK    3  A    between atoms: S_9  and  C_12
REMARK    4  A    between atoms: C_15  and  S_18
REMARK    5  A    between atoms: S_18  and  N_21
REMARK    6  A    between atoms: N_21  and  C_22
REMARK    7  A    between atoms: N_21  and  C_30
REMARK    8  A    between atoms: C_22  and  C_23
REMARK    9  A    between atoms: C_23  and  C_24
REMARK   10  A    between atoms: C_30  and  C_31
REMARK                            x       y       z     vdW  Elec       q    Type
REMARK                         _______ _______ _______ _____ _____    ______ ____
ROOT
ATOM      1  S   UNL     1      -0.914   6.416  -5.220  0.00  0.00    +0.061 S 
ATOM      2  O   UNL     1      -1.453   6.901  -6.441  0.00  0.00    -0.153 OA
ATOM      3  O   UNL     1      -1.521   6.678  -3.962  0.00  0.00    -0.153 OA
ENDROOT
BRANCH   1   7
ATOM      4  C   UNL     1       3.325   7.984  -4.963  0.00  0.00    +0.106 A 
ATOM      5  C   UNL     1       2.710   7.851  -6.194  0.00  0.00    +0.030 A 
ATOM      6  C   UNL     1       1.416   7.373  -6.273  0.00  0.00    +0.030 A 
ATOM      7  C   UNL     1       0.736   7.026  -5.120  0.00  0.00    +0.106 A 
ATOM      8  C   UNL     1       1.349   7.163  -3.888  0.00  0.00    +0.030 A 
ATOM      9  C   UNL     1       2.645   7.638  -3.811  0.00  0.00    +0.030 A 
BRANCH   4  10
ATOM     10  S   UNL     1       4.974   8.595  -4.864  0.00  0.00    +0.061 S 
ATOM     11  O   UNL     1       5.513   8.110  -3.641  0.00  0.00    -0.153 OA
ATOM     12  O   UNL     1       5.581   8.332  -6.121  0.00  0.00    -0.153 OA
BRANCH  10  19
ATOM     13  C   UNL     1       4.876  10.233  -7.170  0.00  0.00    +0.026 C 
ATOM     14  C   UNL     1       4.743  11.091  -5.910  0.00  0.00    +0.077 C 
ATOM     15  C   UNL     1       5.843  12.150  -5.895  0.00  0.00    +0.020 C 
ATOM     16  C   UNL     1       5.796  12.913  -4.570  0.00  0.00    +0.003 C 
ATOM     17  C   UNL     1       6.041  11.944  -3.411  0.00  0.00    +0.017 C 
ATOM     18  C   UNL     1       4.936  10.882  -3.398  0.00  0.00    +0.110 C 
ATOM     19  N   UNL     1       4.879  10.242  -4.719  0.00  0.00    -0.174 NA
ENDBRANCH  10  19
ENDBRANCH   4  10
ENDBRANCH   1   7
BRANCH   1  20
ATOM     20  N   UNL     1      -0.819   4.769  -5.365  0.00  0.00    -0.172 NA
BRANCH  20  21
ATOM     21  C   UNL     1      -0.679   3.934  -4.169  0.00  0.00    +0.114 C 
BRANCH  21  22
ATOM     22  C   UNL     1      -2.060   3.449  -3.722  0.00  0.00    +0.047 C 
BRANCH  22  23
ATOM     23  C   UNL     1      -1.916   2.591  -2.492  0.00  0.00    -0.072 C 
ATOM     24  C   UNL     1      -2.069   3.155  -1.337  0.00  0.00    -0.028 C 
ATOM     25  C   UNL     1      -1.946   2.435  -0.026  0.00  0.00    +0.027 C 
ATOM     26  C   UNL     1      -2.040   0.924  -0.240  0.00  0.00    +0.004 C 
ATOM     27  C   UNL     1      -1.085   0.533  -1.375  0.00  0.00    +0.005 C 
ATOM     28  C   UNL     1      -1.605   1.135  -2.682  0.00  0.00    +0.030 C 
ENDBRANCH  22  23
ENDBRANCH  21  22
ENDBRANCH  20  21
BRANCH  20  29
ATOM     29  C   UNL     1      -0.874   4.146  -6.690  0.00  0.00    +0.147 C 
BRANCH  29  30
ATOM     30  C   UNL     1       0.525   3.841  -7.161  0.00  0.00    +0.003 A 
ATOM     31  C   UNL     1       1.163   4.701  -8.034  0.00  0.00    +0.008 A 
ATOM     32  C   UNL     1       2.449   4.424  -8.461  0.00  0.00    +0.000 A 
ATOM     33  C   UNL     1       3.093   3.281  -8.024  0.00  0.00    +0.003 A 
ATOM     34  C   UNL     1       2.454   2.417  -7.155  0.00  0.00    +0.038 A 
ATOM     35  C   UNL     1       1.169   2.697  -6.722  0.00  0.00    +0.128 A 
ATOM     36  F   UNL     1       0.543   1.852  -5.873  0.00  0.00    -0.205 F 
ENDBRANCH  29  30
ENDBRANCH  20  29
ENDBRANCH   1  20
TORSDOF 9
