REMARK  Name = ZINC39937987
REMARK  8 active torsions:
REMARK  status: ('A' for Active; 'I' for Inactive)
REMARK    1  A    between atoms: C_1  and  C_2
REMARK    2  A    between atoms: C_2  and  C_3
REMARK    3  A    between atoms: C_2  and  C_4
REMARK    4  A    between atoms: C_4  and  C_6
REMARK    5  A    between atoms: C_4  and  N_20
REMARK    6  A    between atoms: N_8  and  N_9
REMARK    7  A    between atoms: C_10  and  C_11
REMARK    8  A    between atoms: C_21  and  C_23
REMARK                            x       y       z     vdW  Elec       q    Type
REMARK                         _______ _______ _______ _____ _____    ______ ____
ROOT
ATOM      1  C   UNL     1       0.739  -2.004  -1.265  0.00  0.00    +0.253 C 
ATOM      2  O   UNL     1       0.213  -2.613  -2.173  0.00  0.00    -0.272 OA
ATOM      3  N   UNL     1       1.341  -2.676  -0.264  0.00  0.00    -0.205 N 
ATOM      4  H   UNL     1       1.761  -2.189   0.463  0.00  0.00    +0.177 HD
ENDROOT
BRANCH   3   5
ATOM      5  N   UNL     1       1.360  -4.077  -0.271  0.00  0.00    -0.188 NA
ATOM      6  C   UNL     1       1.945  -4.729   0.702  0.00  0.00    +0.136 C 
BRANCH   6   7
ATOM      7  C   UNL     1       1.964  -6.131   0.694  0.00  0.00    +0.000 C 
ATOM      8  C   UNL     1       2.534  -6.970   1.648  0.00  0.00    +0.004 A 
ATOM      9  C   UNL     1       3.232  -6.715   2.849  0.00  0.00    +0.010 A 
ATOM     10  C   UNL     1       3.686  -7.752   3.597  0.00  0.00    +0.001 A 
ATOM     11  C   UNL     1       3.482  -9.080   3.209  0.00  0.00    +0.002 A 
ATOM     12  C   UNL     1       2.822  -9.399   2.070  0.00  0.00    +0.026 A 
ATOM     13  C   UNL     1       2.317  -8.368   1.234  0.00  0.00    +0.043 A 
ATOM     14  N   UNL     1       1.655  -8.414   0.098  0.00  0.00    -0.380 N 
ATOM     15  C   UNL     1       1.364  -7.048  -0.349  0.00  0.00    +0.150 C 
ATOM     16  H   UNL     1       1.396  -9.224  -0.369  0.00  0.00    +0.160 HD
ENDBRANCH   6   7
ENDBRANCH   3   5
BRANCH   1  17
ATOM     17  C   UNL     1       0.718  -0.497  -1.257  0.00  0.00    +0.163 C 
BRANCH  17  18
ATOM     18  N   UNL     1       0.010  -0.012  -2.444  0.00  0.00    -0.300 N 
ATOM     19  C   UNL     1       0.274   1.216  -2.931  0.00  0.00    +0.245 C 
ATOM     20  O   UNL     1       1.101   1.921  -2.386  0.00  0.00    -0.270 OA
ATOM     21  H   UNL     1      -0.650  -0.575  -2.879  0.00  0.00    +0.150 HD
BRANCH  19  22
ATOM     22  C   UNL     1      -0.441   1.706  -4.128  0.00  0.00    +0.037 A 
ATOM     23  C   UNL     1      -1.395   0.900  -4.753  0.00  0.00    +0.014 A 
ATOM     24  C   UNL     1      -2.059   1.363  -5.870  0.00  0.00    +0.021 A 
ATOM     25  C   UNL     1      -1.780   2.623  -6.372  0.00  0.00    +0.041 A 
ATOM     26  C   UNL     1      -0.835   3.427  -5.756  0.00  0.00    +0.021 A 
ATOM     27  C   UNL     1      -0.169   2.978  -4.636  0.00  0.00    +0.014 A 
ATOM     28 CL   UNL     1      -2.620   3.198  -7.779  0.00  0.00    -0.084 Cl
ENDBRANCH  19  22
ENDBRANCH  17  18
BRANCH  17  30
ATOM     29  C   UNL     1      -0.019   1.526   0.010  0.00  0.00    +0.009 C 
ATOM     30  C   UNL     1       0.002  -0.004   0.002  0.00  0.00    +0.012 C 
ATOM     31  C   UNL     1      -1.433  -0.534   0.013  0.00  0.00    +0.009 C 
ENDBRANCH  17  30
ENDBRANCH   1  17
TORSDOF 6
