REMARK  Name = ZINC05679195
REMARK  5 active torsions:
REMARK  status: ('A' for Active; 'I' for Inactive)
REMARK    1  A    between atoms: C_1  and  C_2
REMARK    2  A    between atoms: C_4  and  O_10
REMARK    3  A    between atoms: C_7  and  C_8
REMARK    4  A    between atoms: O_10  and  C_11
REMARK    5  A    between atoms: C_13  and  O_18
REMARK                            x       y       z     vdW  Elec       q    Type
REMARK                         _______ _______ _______ _____ _____    ______ ____
ROOT
ATOM      1  O   UNL     1       1.831   4.789  -1.543  0.00  0.00    -0.446 OA
ENDROOT
BRANCH   1   5
ATOM      2  C   UNL     1      -0.415   5.605   2.712  0.00  0.00    +0.044 C 
ATOM      3  C   UNL     1       0.184   6.104   1.422  0.00  0.00    -0.044 A 
ATOM      4  C   UNL     1       0.736   5.209   0.526  0.00  0.00    +0.051 A 
ATOM      5  C   UNL     1       1.288   5.668  -0.661  0.00  0.00    +0.147 A 
ATOM      6  C   UNL     1       1.289   7.028  -0.943  0.00  0.00    +0.083 A 
ATOM      7  C   UNL     1       0.730   7.918  -0.045  0.00  0.00    +0.027 A 
ATOM      8  C   UNL     1       0.181   7.457   1.137  0.00  0.00    -0.046 A 
ATOM      9  C   UNL     1      -0.421   8.430   2.117  0.00  0.00    +0.044 C 
ATOM     10 CL   UNL     1       1.984   7.608  -2.424  0.00  0.00    -0.080 Cl
ENDBRANCH   1   5
BRANCH   1  11
ATOM     11  C   UNL     1       3.164   4.533  -1.450  0.00  0.00    +0.232 C 
ATOM     12  C   UNL     1       4.012   5.139  -0.611  0.00  0.00    +0.135 C 
ATOM     13  C   UNL     1       5.376   4.538  -0.858  0.00  0.00    +0.356 C 
ATOM     14  O   UNL     1       5.197   3.549  -1.910  0.00  0.00    -0.424 OA
ATOM     15  C   UNL     1       3.896   3.549  -2.255  0.00  0.00    +0.379 C 
ATOM     16  O   UNL     1       3.401   2.839  -3.108  0.00  0.00    -0.241 OA
ATOM     17 CL   UNL     1       3.621   6.378   0.541  0.00  0.00    -0.078 Cl
BRANCH  13  18
ATOM     18  O   UNL     1       5.859   3.910   0.331  0.00  0.00    -0.353 OA
ATOM     19  H   UNL     1       6.726   3.493   0.231  0.00  0.00    +0.214 HD
ENDBRANCH  13  18
ENDBRANCH   1  11
TORSDOF 3
