REMARK  Name = ZINC08910167
REMARK  5 active torsions:
REMARK  status: ('A' for Active; 'I' for Inactive)
REMARK    1  A    between atoms: C_3  and  N_29
REMARK    2  A    between atoms: C_6  and  C_7
REMARK    3  A    between atoms: C_8  and  C_9
REMARK    4  A    between atoms: N_11  and  C_12
REMARK    5  A    between atoms: N_16  and  C_17
REMARK                            x       y       z     vdW  Elec       q    Type
REMARK                         _______ _______ _______ _____ _____    ______ ____
ROOT
ATOM      1  C   UNL     1      -2.714   5.886  -0.286  0.00  0.00    +0.134 A 
ATOM      2  C   UNL     1      -3.899   6.554  -0.072  0.00  0.00    +0.038 A 
ATOM      3  C   UNL     1      -3.592   7.842   0.334  0.00  0.00    +0.091 A 
ATOM      4  N   UNL     1      -2.272   7.963   0.368  0.00  0.00    -0.168 NA
ATOM      5  N   UNL     1      -1.703   6.747  -0.011  0.00  0.00    -0.218 N 
ATOM      6  C   UNL     1      -4.770   8.768   0.629  0.00  0.00    +0.223 C 
ATOM      7  S   UNL     1      -6.166   7.865  -0.158  0.00  0.00    -0.021 S 
ATOM      8  O   UNL     1      -6.332   8.325  -1.492  0.00  0.00    -0.174 OA
ATOM      9  O   UNL     1      -7.278   7.850   0.727  0.00  0.00    -0.174 OA
ATOM     10  C   UNL     1      -5.381   6.201  -0.179  0.00  0.00    +0.206 C 
ENDROOT
BRANCH   5  11
ATOM     11  C   UNL     1      -0.332   6.466  -0.096  0.00  0.00    +0.068 A 
ATOM     12  C   UNL     1       0.170   5.286   0.436  0.00  0.00    +0.029 A 
ATOM     13  C   UNL     1       1.520   5.010   0.346  0.00  0.00    +0.022 A 
ATOM     14  C   UNL     1       2.374   5.913  -0.263  0.00  0.00    +0.041 A 
ATOM     15  C   UNL     1       1.876   7.092  -0.788  0.00  0.00    +0.022 A 
ATOM     16  C   UNL     1       0.526   7.371  -0.707  0.00  0.00    +0.029 A 
ATOM     17 CL   UNL     1       4.072   5.566  -0.367  0.00  0.00    -0.084 Cl
ENDBRANCH   5  11
BRANCH   1  20
ATOM     18  C   UNL     1      -3.535   3.662  -0.407  0.00  0.00    +0.242 C 
ATOM     19  O   UNL     1      -4.549   4.016   0.166  0.00  0.00    -0.270 OA
ATOM     20  N   UNL     1      -2.579   4.564  -0.703  0.00  0.00    -0.266 N 
ATOM     21  H   UNL     1      -1.796   4.292  -1.208  0.00  0.00    +0.157 HD
BRANCH  18  23
ATOM     22  C   UNL     1      -4.256   1.335  -0.376  0.00  0.00    +0.013 C 
ATOM     23  C   UNL     1      -3.355   2.256  -0.773  0.00  0.00    +0.068 C 
BRANCH  22  29
ATOM     24  C   UNL     1      -4.840   2.353   1.819  0.00  0.00    +0.010 A 
ATOM     25  C   UNL     1      -5.770   2.667   2.787  0.00  0.00    +0.033 A 
ATOM     26  C   UNL     1      -7.095   2.300   2.625  0.00  0.00    +0.126 A 
ATOM     27  C   UNL     1      -7.498   1.620   1.489  0.00  0.00    +0.033 A 
ATOM     28  C   UNL     1      -6.581   1.303   0.509  0.00  0.00    +0.010 A 
ATOM     29  C   UNL     1      -5.241   1.670   0.665  0.00  0.00    -0.025 A 
BRANCH  26  30
ATOM     30  N   UNL     1      -8.085   2.637   3.672  0.00  0.00    +0.056 N 
ATOM     31  O   UNL     1      -9.231   2.233   3.579  0.00  0.00    -0.126 OA
ATOM     32  O   UNL     1      -7.755   3.317   4.627  0.00  0.00    -0.126 OA
ENDBRANCH  26  30
ENDBRANCH  22  29
ENDBRANCH  18  23
ENDBRANCH   1  20
TORSDOF 5
