REMARK  Name = ZINC36652590
REMARK  7 active torsions:
REMARK  status: ('A' for Active; 'I' for Inactive)
REMARK    1  A    between atoms: C_1  and  C_2
REMARK    2  A    between atoms: C_4  and  C_14
REMARK    3  A    between atoms: C_20  and  C_22
REMARK    4  A    between atoms: C_26  and  S_28
REMARK    5  A    between atoms: S_28  and  C_31
REMARK    6  A    between atoms: C_31  and  C_32
REMARK    7  A    between atoms: C_31  and  C_33
REMARK                            x       y       z     vdW  Elec       q    Type
REMARK                         _______ _______ _______ _____ _____    ______ ____
ROOT
ATOM      1  C   UNL     1       0.134   0.035  -2.651  0.00  0.00    +0.265 C 
ATOM      2  O   UNL     1      -0.449  -0.750  -3.369  0.00  0.00    -0.271 OA
ATOM      3  N   UNL     1       0.235   1.330  -3.009  0.00  0.00    -0.235 N 
ATOM      4  C   UNL     1      -0.416   1.788  -4.144  0.00  0.00    +0.315 A 
ATOM      5  N   UNL     1      -1.164   1.074  -4.950  0.00  0.00    -0.092 NA
ATOM      6  N   UNL     1      -1.608   1.822  -5.897  0.00  0.00    -0.106 NA
ATOM      7  C   UNL     1      -1.161   3.044  -5.733  0.00  0.00    +0.250 A 
ATOM      8  O   UNL     1      -0.401   3.048  -4.616  0.00  0.00    -0.405 OA
ATOM      9  H   UNL     1       0.764   1.941  -2.474  0.00  0.00    +0.159 HD
ENDROOT
BRANCH   1  12
ATOM     10  C   UNL     1       1.356  -2.629  -2.411  0.00  0.00    +0.056 C 
ATOM     11  C   UNL     1       1.893  -1.413  -1.653  0.00  0.00    +0.220 C 
ATOM     12  C   UNL     1       0.744  -0.439  -1.357  0.00  0.00    +0.299 C 
ATOM     13  O   UNL     1       1.278   0.677  -0.637  0.00  0.00    -0.472 OA
ATOM     14  C   UNL     1       2.115   0.394   0.398  0.00  0.00    +0.163 A 
ATOM     15  C   UNL     1       2.376   1.369   1.349  0.00  0.00    +0.049 A 
ATOM     16  C   UNL     1       3.227   1.097   2.404  0.00  0.00    +0.004 A 
ATOM     17  C   UNL     1       3.820  -0.147   2.514  0.00  0.00    +0.004 A 
ATOM     18  C   UNL     1       3.563  -1.124   1.570  0.00  0.00    +0.049 A 
ATOM     19  C   UNL     1       2.709  -0.858   0.510  0.00  0.00    +0.163 A 
ATOM     20  O   UNL     1       2.459  -1.832  -0.407  0.00  0.00    -0.481 OA
ENDBRANCH   1  12
BRANCH   7  21
ATOM     21  C   UNL     1      -1.441   4.204  -6.605  0.00  0.00    +0.040 A 
ATOM     22  C   UNL     1      -0.890   5.452  -6.310  0.00  0.00    +0.013 A 
ATOM     23  C   UNL     1      -1.155   6.530  -7.129  0.00  0.00    +0.003 A 
ATOM     24  C   UNL     1      -1.965   6.376  -8.240  0.00  0.00    +0.027 A 
ATOM     25  C   UNL     1      -2.514   5.142  -8.538  0.00  0.00    +0.089 A 
ATOM     26  C   UNL     1      -2.253   4.054  -7.730  0.00  0.00    +0.040 A 
BRANCH  25  27
ATOM     27  S   UNL     1      -3.545   4.958  -9.955  0.00  0.00    -0.001 S 
ATOM     28  O   UNL     1      -4.391   3.858  -9.648  0.00  0.00    -0.169 OA
ATOM     29  O   UNL     1      -4.091   6.251 -10.177  0.00  0.00    -0.169 OA
BRANCH  27  30
ATOM     30  C   UNL     1      -2.412   4.518 -11.301  0.00  0.00    +0.130 C 
ATOM     31  C   UNL     1      -3.187   4.453 -12.619  0.00  0.00    +0.032 C 
ATOM     32  C   UNL     1      -1.312   5.575 -11.408  0.00  0.00    +0.032 C 
ENDBRANCH  27  30
ENDBRANCH  25  27
ENDBRANCH   7  21
TORSDOF 4
