REMARK  Name = ZINC00931046
REMARK  8 active torsions:
REMARK  status: ('A' for Active; 'I' for Inactive)
REMARK    1  A    between atoms: C_1  and  C_2
REMARK    2  A    between atoms: C_2  and  C_4
REMARK    3  A    between atoms: C_7  and  N_10
REMARK    4  A    between atoms: N_10  and  C_11
REMARK    5  A    between atoms: C_11  and  C_13
REMARK    6  A    between atoms: C_11  and  C_18
REMARK    7  A    between atoms: N_20  and  C_21
REMARK    8  A    between atoms: C_27  and  C_29
REMARK                            x       y       z     vdW  Elec       q    Type
REMARK                         _______ _______ _______ _____ _____    ______ ____
ROOT
ATOM      1  N   UNL     1      -0.735   1.541   1.326  0.00  0.00    -0.249 N 
ATOM      2  C   UNL     1      -1.393   0.722   2.169  0.00  0.00    +0.265 C 
ATOM      3  O   UNL     1      -2.075   1.187   3.058  0.00  0.00    -0.271 OA
ENDROOT
BRANCH   2   4
ATOM      4  C   UNL     1      -1.282  -0.772   2.009  0.00  0.00    +0.296 C 
ATOM      5  C   UNL     1      -2.045  -1.216   0.753  0.00  0.00    +0.283 C 
ATOM      6  O   UNL     1      -1.931  -2.639   0.638  0.00  0.00    -0.484 OA
ATOM      7  C   UNL     1      -2.147  -3.364   1.770  0.00  0.00    +0.162 A 
ATOM      8  C   UNL     1      -2.403  -4.723   1.669  0.00  0.00    +0.049 A 
ATOM      9  C   UNL     1      -2.621  -5.473   2.810  0.00  0.00    +0.004 A 
ATOM     10  C   UNL     1      -2.584  -4.870   4.054  0.00  0.00    +0.004 A 
ATOM     11  C   UNL     1      -2.330  -3.516   4.161  0.00  0.00    +0.049 A 
ATOM     12  C   UNL     1      -2.111  -2.758   3.020  0.00  0.00    +0.163 A 
ATOM     13  O   UNL     1      -1.866  -1.425   3.142  0.00  0.00    -0.472 OA
ENDBRANCH   2   4
BRANCH   1  17
ATOM     14  C   UNL     1      -0.723   5.647   1.998  0.00  0.00    +0.017 A 
ATOM     15  C   UNL     1      -1.275   4.780   2.950  0.00  0.00    +0.013 A 
ATOM     16  C   UNL     1      -1.277   3.428   2.724  0.00  0.00    +0.024 A 
ATOM     17  C   UNL     1      -0.731   2.916   1.551  0.00  0.00    +0.038 A 
ATOM     18  C   UNL     1      -0.175   3.772   0.605  0.00  0.00    +0.024 A 
ATOM     19  C   UNL     1      -0.174   5.126   0.819  0.00  0.00    +0.013 A 
BRANCH  14  21
ATOM     20  C   UNL     1      -0.124   8.026   1.210  0.00  0.00    +0.091 C 
ATOM     21  C   UNL     1      -0.720   7.096   2.235  0.00  0.00    +0.160 C 
ATOM     22  O   UNL     1      -1.196   7.544   3.257  0.00  0.00    -0.292 OA
ENDBRANCH  14  21
ENDBRANCH   1  17
BRANCH   1  23
ATOM     23  C   UNL     1      -0.023   0.986   0.172  0.00  0.00    +0.233 C 
BRANCH  23  24
ATOM     24  C   UNL     1      -0.709   1.420  -1.098  0.00  0.00    +0.135 A 
ATOM     25  C   UNL     1      -0.903   0.655  -2.188  0.00  0.00    +0.047 A 
ATOM     26  C   UNL     1      -1.583   1.456  -3.134  0.00  0.00    +0.041 A 
ATOM     27  C   UNL     1      -1.756   2.665  -2.569  0.00  0.00    +0.195 A 
ATOM     28  O   UNL     1      -1.225   2.637  -1.335  0.00  0.00    -0.465 OA
ENDBRANCH  23  24
BRANCH  23  29
ATOM     29  C   UNL     1       1.399   1.485   0.170  0.00  0.00    +0.242 C 
ATOM     30  O   UNL     1       1.780   2.232   1.047  0.00  0.00    -0.273 OA
ATOM     31  N   UNL     1       2.247   1.103  -0.805  0.00  0.00    -0.311 N 
ATOM     32  H   UNL     1       1.942   0.506  -1.506  0.00  0.00    +0.149 HD
BRANCH  31  33
ATOM     33  C   UNL     1       3.629   1.588  -0.806  0.00  0.00    +0.073 C 
ATOM     34  C   UNL     1       3.689   2.955  -1.492  0.00  0.00    +0.022 C 
ATOM     35  C   UNL     1       5.132   3.462  -1.494  0.00  0.00    +0.002 C 
ATOM     36  C   UNL     1       6.020   2.472  -2.250  0.00  0.00    +0.000 C 
ATOM     37  C   UNL     1       5.960   1.106  -1.565  0.00  0.00    +0.002 C 
ATOM     38  C   UNL     1       4.517   0.598  -1.563  0.00  0.00    +0.022 C 
ENDBRANCH  31  33
ENDBRANCH  23  29
ENDBRANCH   1  23
TORSDOF 7
