REMARK  Name = ZINC09018104
REMARK  4 active torsions:
REMARK  status: ('A' for Active; 'I' for Inactive)
REMARK    1  A    between atoms: C_1  and  C_2
REMARK    2  A    between atoms: C_4  and  N_19
REMARK    3  A    between atoms: C_20  and  C_22
REMARK    4  A    between atoms: C_22  and  C_23
REMARK                            x       y       z     vdW  Elec       q    Type
REMARK                         _______ _______ _______ _____ _____    ______ ____
ROOT
ATOM      1  C   UNL     1       5.353  -1.632  -6.716  0.00  0.00    +0.067 C 
ATOM      2  C   UNL     1       5.738  -1.849  -5.275  0.00  0.00    +0.062 A 
ATOM      3  C   UNL     1       5.000  -1.435  -4.161  0.00  0.00    +0.068 A 
ATOM      4  C   UNL     1       5.678  -1.816  -3.045  0.00  0.00    +0.132 A 
ATOM      5  N   UNL     1       6.816  -2.449  -3.456  0.00  0.00    -0.185 N 
ATOM      6  N   UNL     1       6.818  -2.457  -4.857  0.00  0.00    -0.167 NA
ATOM      7  C   UNL     1       7.790  -2.988  -2.636  0.00  0.00    +0.234 A 
ATOM      8  N   UNL     1       8.874  -3.591  -3.192  0.00  0.00    -0.291 N 
ATOM      9  H   UNL     1       8.964  -3.641  -4.157  0.00  0.00    +0.172 HD
ATOM     10  C   UNL     1       9.822  -4.120  -2.394  0.00  0.00    +0.256 A 
ATOM     11  O   UNL     1      10.803  -4.664  -2.874  0.00  0.00    -0.267 OA
ATOM     12  C   UNL     1       9.665  -4.035  -0.992  0.00  0.00    +0.038 A 
ATOM     13  C   UNL     1       8.566  -3.415  -0.493  0.00  0.00    +0.053 A 
ATOM     14  N   UNL     1       7.657  -2.904  -1.333  0.00  0.00    -0.217 NA
ATOM     15  C   UNL     1       8.319  -3.264   0.985  0.00  0.00    +0.056 C 
ATOM     16  C   UNL     1       9.178  -4.248   1.776  0.00  0.00    +0.006 C 
ATOM     17  C   UNL     1      10.631  -4.109   1.305  0.00  0.00    +0.005 C 
ATOM     18  C   UNL     1      10.727  -4.649  -0.121  0.00  0.00    +0.042 C 
ENDROOT
BRANCH   4  19
ATOM     19  N   UNL     1       5.287  -1.596  -1.727  0.00  0.00    -0.270 N 
ATOM     20  C   UNL     1       4.134  -0.949  -1.465  0.00  0.00    +0.223 C 
ATOM     21  O   UNL     1       3.438  -0.557  -2.378  0.00  0.00    -0.275 OA
ATOM     22  H   UNL     1       5.844  -1.909  -0.997  0.00  0.00    +0.156 HD
BRANCH  20  23
ATOM     23  C   UNL     1       3.711  -0.711  -0.039  0.00  0.00    +0.131 C 
BRANCH  23  24
ATOM     24  C   UNL     1       2.397   0.027  -0.021  0.00  0.00    -0.036 A 
ATOM     25  C   UNL     1       1.208  -0.679  -0.013  0.00  0.00    +0.007 A 
ATOM     26  C   UNL     1       0.002  -0.004   0.002  0.00  0.00    +0.041 A 
ATOM     27  C   UNL     1      -0.017   1.380   0.010  0.00  0.00    +0.158 A 
ATOM     28  C   UNL     1       1.175   2.088   0.002  0.00  0.00    +0.159 A 
ATOM     29  C   UNL     1       2.382   1.409  -0.014  0.00  0.00    +0.045 A 
ATOM     30  F   UNL     1       1.159   3.439   0.009  0.00  0.00    -0.202 F 
ATOM     31  F   UNL     1      -1.195   2.040   0.019  0.00  0.00    -0.202 F 
ENDBRANCH  23  24
ENDBRANCH  20  23
ENDBRANCH   4  19
TORSDOF 3
