REMARK  Name = ZINC44857630
REMARK  3 active torsions:
REMARK  status: ('A' for Active; 'I' for Inactive)
REMARK    1  A    between atoms: C_4  and  C_7
REMARK    2  A    between atoms: C_7  and  N_8
REMARK    3  A    between atoms: C_16  and  C_18
REMARK                            x       y       z     vdW  Elec       q    Type
REMARK                         _______ _______ _______ _____ _____    ______ ____
ROOT
ATOM      1  N   UNL     1       4.153  -0.953   1.342  0.00  0.00    +0.389 N 
ATOM      2  C   UNL     1       5.452  -1.678   1.357  0.00  0.00    -0.063 C 
ATOM      3  C   UNL     1       6.506  -0.603   1.033  0.00  0.00    -0.016 C 
ATOM      4  C   UNL     1       5.841   0.738   1.410  0.00  0.00    -0.013 C 
ATOM      5  C   UNL     1       4.478   0.328   2.027  0.00  0.00    -0.044 C 
ATOM      6  C   UNL     1       4.763  -0.010   3.477  0.00  0.00    -0.038 C 
ATOM      7  C   UNL     1       5.312  -1.166   3.795  0.00  0.00    -0.047 C 
ATOM      8  C   UNL     1       5.658  -2.227   2.770  0.00  0.00    +0.020 C 
ATOM      9  H   UNL     1       3.451  -1.464   1.855  0.00  0.00    -0.080 HD
ENDROOT
BRANCH   7  10
ATOM     10  C   UNL     1       5.591  -1.447   5.218  0.00  0.00    -0.022 A 
ATOM     11  C   UNL     1       6.920  -1.587   5.654  0.00  0.00    +0.009 A 
ATOM     12  C   UNL     1       7.201  -1.846   6.957  0.00  0.00    +0.009 A 
ATOM     13  C   UNL     1       6.157  -1.976   7.890  0.00  0.00    -0.018 A 
ATOM     14  C   UNL     1       6.423  -2.243   9.244  0.00  0.00    +0.008 A 
ATOM     15  C   UNL     1       5.391  -2.364  10.123  0.00  0.00    +0.001 A 
ATOM     16  C   UNL     1       4.070  -2.227   9.703  0.00  0.00    +0.001 A 
ATOM     17  C   UNL     1       3.773  -1.968   8.401  0.00  0.00    +0.008 A 
ATOM     18  C   UNL     1       4.812  -1.837   7.463  0.00  0.00    -0.017 A 
ATOM     19  C   UNL     1       4.541  -1.564   6.113  0.00  0.00    +0.016 A 
ENDBRANCH   7  10
BRANCH   1  20
ATOM     20  C   UNL     1       3.711  -0.707  -0.038  0.00  0.00    -0.042 C 
BRANCH  20  24
ATOM     21  C   UNL     1      -0.017   1.378   0.010  0.00  0.00    +0.000 A 
ATOM     22  C   UNL     1       1.171   2.086   0.002  0.00  0.00    +0.000 A 
ATOM     23  C   UNL     1       2.377   1.411  -0.013  0.00  0.00    +0.002 A 
ATOM     24  C   UNL     1       2.396   0.029  -0.020  0.00  0.00    -0.064 A 
ATOM     25  C   UNL     1       1.208  -0.679  -0.012  0.00  0.00    +0.002 A 
ATOM     26  C   UNL     1       0.002  -0.004   0.002  0.00  0.00    +0.000 A 
ENDBRANCH  20  24
ENDBRANCH   1  20
TORSDOF 3
