REMARK  Name = ZINC18968059
REMARK  6 active torsions:
REMARK  status: ('A' for Active; 'I' for Inactive)
REMARK    1  A    between atoms: C_1  and  C_2
REMARK    2  A    between atoms: C_2  and  C_4
REMARK    3  A    between atoms: C_2  and  O_17
REMARK    4  A    between atoms: N_6  and  C_7
REMARK    5  A    between atoms: O_17  and  C_18
REMARK    6  A    between atoms: C_18  and  C_20
REMARK                            x       y       z     vdW  Elec       q    Type
REMARK                         _______ _______ _______ _____ _____    ______ ____
ROOT
ATOM      1  C   UNL     1       5.678  -4.943  -0.420  0.00  0.00    +0.340 C 
ATOM      2  O   UNL     1       6.693  -4.434  -0.850  0.00  0.00    -0.245 OA
ENDROOT
BRANCH   1   3
ATOM      3  C   UNL     1       5.503  -6.411  -0.482  0.00  0.00    +0.061 A 
ATOM      4  C   UNL     1       4.332  -6.987   0.016  0.00  0.00    +0.016 A 
ATOM      5  C   UNL     1       4.134  -8.343  -0.055  0.00  0.00    +0.016 A 
ATOM      6  C   UNL     1       5.129  -9.155  -0.596  0.00  0.00    +0.065 A 
ATOM      7  C   UNL     1       6.330  -8.590  -1.079  0.00  0.00    +0.079 A 
ATOM      8  C   UNL     1       6.499  -7.209  -1.030  0.00  0.00    +0.043 A 
ATOM      9  N   UNL     1       7.287  -9.422  -1.536  0.00  0.00    -0.233 NA
ATOM     10  C   UNL     1       7.181 -10.729  -1.491  0.00  0.00    +0.113 A 
ATOM     11  N   UNL     1       6.046 -11.349  -1.115  0.00  0.00    -0.296 N 
ATOM     12  C   UNL     1       4.975 -10.616  -0.707  0.00  0.00    +0.262 A 
ATOM     13  O   UNL     1       3.928 -11.164  -0.438  0.00  0.00    -0.267 OA
ATOM     14  C   UNL     1       5.877 -12.808  -1.138  0.00  0.00    +0.126 C 
ATOM     15  C   UNL     1       6.584 -13.416   0.076  0.00  0.00    +0.022 C 
ATOM     16  C   UNL     1       8.053 -13.680  -0.234  0.00  0.00    +0.002 C 
ATOM     17  C   UNL     1       8.387 -13.970  -1.691  0.00  0.00    +0.000 C 
ATOM     18  C   UNL     1       8.198 -12.762  -2.616  0.00  0.00    +0.008 C 
ATOM     19  C   UNL     1       8.442 -11.478  -1.825  0.00  0.00    +0.074 C 
ENDBRANCH   1   3
BRANCH   1  20
ATOM     20  O   UNL     1       4.713  -4.171   0.115  0.00  0.00    -0.449 OA
BRANCH  20  22
ATOM     21  C   UNL     1       5.653  -2.365   1.451  0.00  0.00    +0.062 C 
ATOM     22  C   UNL     1       4.953  -2.739   0.143  0.00  0.00    +0.259 C 
BRANCH  22  23
ATOM     23  C   UNL     1       3.639  -2.007   0.050  0.00  0.00    +0.258 C 
ATOM     24  O   UNL     1       2.597  -2.628   0.058  0.00  0.00    -0.271 OA
ATOM     25  N   UNL     1       3.621  -0.663  -0.044  0.00  0.00    -0.282 N 
ATOM     26  H   UNL     1       4.454  -0.172  -0.128  0.00  0.00    +0.155 HD
BRANCH  25  27
ATOM     27  C   UNL     1       2.401   0.025  -0.020  0.00  0.00    +0.037 A 
ATOM     28  C   UNL     1       1.345  -0.460   0.740  0.00  0.00    +0.027 A 
ATOM     29  C   UNL     1       0.142   0.218   0.764  0.00  0.00    +0.051 A 
ATOM     30  C   UNL     1      -0.016   1.384   0.030  0.00  0.00    +0.162 A 
ATOM     31  C   UNL     1       1.040   1.873  -0.730  0.00  0.00    +0.164 A 
ATOM     32  C   UNL     1       2.248   1.192  -0.755  0.00  0.00    +0.072 A 
ATOM     33  O   UNL     1       0.907   3.021  -1.451  0.00  0.00    -0.485 OA
ATOM     34  C   UNL     1      -0.428   3.474  -1.700  0.00  0.00    +0.270 C 
ATOM     35  C   UNL     1      -1.215   3.396  -0.384  0.00  0.00    +0.270 C 
ATOM     36  O   UNL     1      -1.212   2.034   0.059  0.00  0.00    -0.485 OA
ENDBRANCH  25  27
ENDBRANCH  22  23
ENDBRANCH  20  22
ENDBRANCH   1  20
TORSDOF 5
