REMARK  Name = ZINC63627829
REMARK  9 active torsions:
REMARK  status: ('A' for Active; 'I' for Inactive)
REMARK    1  A    between atoms: C_1  and  C_2
REMARK    2  A    between atoms: C_2  and  O_3
REMARK    3  A    between atoms: O_3  and  C_4
REMARK    4  A    between atoms: C_7  and  C_13
REMARK    5  A    between atoms: C_9  and  O_10
REMARK    6  A    between atoms: O_10  and  C_11
REMARK    7  A    between atoms: C_11  and  C_12
REMARK    8  A    between atoms: N_15  and  C_16
REMARK    9  A    between atoms: C_19  and  C_22
REMARK                            x       y       z     vdW  Elec       q    Type
REMARK                         _______ _______ _______ _____ _____    ______ ____
ROOT
ATOM      1  C   UNL     1      -1.992  -6.068  -0.011  0.00  0.00    +0.248 C 
ATOM      2  O   UNL     1      -3.108  -6.551   0.001  0.00  0.00    -0.270 OA
ATOM      3  N   UNL     1      -0.910  -6.872  -0.022  0.00  0.00    -0.282 N 
ATOM      4  H   UNL     1      -0.023  -6.489  -0.099  0.00  0.00    +0.155 HD
ENDROOT
BRANCH   1   8
ATOM      5  C   UNL     1      -1.498  -1.847  -0.015  0.00  0.00    +0.162 A 
ATOM      6  C   UNL     1      -0.384  -2.676  -0.026  0.00  0.00    +0.050 A 
ATOM      7  C   UNL     1      -0.541  -4.045  -0.025  0.00  0.00    +0.017 A 
ATOM      8  C   UNL     1      -1.823  -4.602  -0.011  0.00  0.00    +0.041 A 
ATOM      9  C   UNL     1      -2.943  -3.767   0.000  0.00  0.00    +0.062 A 
ATOM     10  C   UNL     1      -2.779  -2.396   0.004  0.00  0.00    +0.163 A 
BRANCH   5  11
ATOM     11  O   UNL     1      -1.338  -0.499  -0.017  0.00  0.00    -0.489 OA
BRANCH  11  13
ATOM     12  C   UNL     1      -0.018   1.526  -0.036  0.00  0.00    +0.048 C 
ATOM     13  C   UNL     1       0.003  -0.004  -0.037  0.00  0.00    +0.226 C 
ENDBRANCH  11  13
ENDBRANCH   5  11
BRANCH  10  14
ATOM     14  O   UNL     1      -3.868  -1.581   0.021  0.00  0.00    -0.489 OA
BRANCH  14  15
ATOM     15  C   UNL     1      -5.150  -2.211   0.040  0.00  0.00    +0.226 C 
ATOM     16  C   UNL     1      -6.244  -1.141   0.056  0.00  0.00    +0.048 C 
ENDBRANCH  14  15
ENDBRANCH  10  14
ENDBRANCH   1   8
BRANCH   3  17
ATOM     17  C   UNL     1      -1.068  -8.258   0.076  0.00  0.00    +0.034 A 
ATOM     18  C   UNL     1      -0.133  -9.017   0.769  0.00  0.00    +0.023 A 
ATOM     19  C   UNL     1      -0.292 -10.385   0.865  0.00  0.00    +0.008 A 
ATOM     20  C   UNL     1      -1.380 -11.000   0.273  0.00  0.00    -0.021 A 
ATOM     21  C   UNL     1      -2.312 -10.247  -0.418  0.00  0.00    +0.008 A 
ATOM     22  C   UNL     1      -2.162  -8.877  -0.513  0.00  0.00    +0.023 A 
BRANCH  20  23
ATOM     23  C   UNL     1      -1.550 -12.493   0.379  0.00  0.00    +0.133 C 
ATOM     24  C   UNL     1      -1.136 -13.159  -0.914  0.00  0.00    +0.012 C 
ATOM     25  C   UNL     1      -2.236 -13.796  -1.376  0.00  0.00    -0.004 A 
ATOM     26  C   UNL     1      -2.485 -14.612  -2.571  0.00  0.00    +0.010 A 
ATOM     27  C   UNL     1      -3.719 -15.128  -2.768  0.00  0.00    +0.001 A 
ATOM     28  C   UNL     1      -4.765 -14.904  -1.861  0.00  0.00    +0.002 A 
ATOM     29  C   UNL     1      -4.614 -14.165  -0.742  0.00  0.00    +0.026 A 
ATOM     30  C   UNL     1      -3.357 -13.574  -0.435  0.00  0.00    +0.043 A 
ATOM     31  N   UNL     1      -2.965 -12.829   0.572  0.00  0.00    -0.374 N 
ATOM     32  H   UNL     1      -3.517 -12.547   1.318  0.00  0.00    +0.161 HD
ENDBRANCH  20  23
ENDBRANCH   3  17
TORSDOF 7
