REMARK  Name = ZINC27575175
REMARK  9 active torsions:
REMARK  status: ('A' for Active; 'I' for Inactive)
REMARK    1  A    between atoms: C_1  and  C_2
REMARK    2  A    between atoms: N_5  and  C_8
REMARK    3  A    between atoms: C_8  and  C_10
REMARK    4  A    between atoms: C_8  and  C_28
REMARK    5  A    between atoms: C_10  and  N_11
REMARK    6  A    between atoms: C_12  and  C_14
REMARK    7  A    between atoms: C_14  and  C_15
REMARK    8  A    between atoms: C_15  and  C_16
REMARK    9  A    between atoms: C_19  and  C_21
REMARK                            x       y       z     vdW  Elec       q    Type
REMARK                         _______ _______ _______ _____ _____    ______ ____
ROOT
ATOM      1  N   UNL     1      -3.480  -2.587   2.449  0.00  0.00    -0.317 N 
ATOM      2  C   UNL     1      -3.077  -2.199   1.222  0.00  0.00    +0.213 C 
ATOM      3  O   UNL     1      -3.732  -2.499   0.246  0.00  0.00    -0.276 OA
ATOM      4  H   UNL     1      -2.886  -2.314   3.334  0.00  0.00    +0.149 HD
ENDROOT
BRANCH   1   5
ATOM      5  C   UNL     1      -4.707  -3.371   2.603  0.00  0.00    +0.094 C 
BRANCH   5   6
ATOM      6  C   UNL     1      -4.934  -3.677   4.085  0.00  0.00    -0.013 C 
BRANCH   6  11
ATOM      7  C   UNL     1      -5.893   1.046   7.158  0.00  0.00    +0.007 C 
ATOM      8  C   UNL     1      -6.080  -0.269   6.398  0.00  0.00    -0.018 C 
ATOM      9  C   UNL     1      -5.214  -1.357   7.038  0.00  0.00    -0.015 C 
ATOM     10  C   UNL     1      -5.359  -2.654   6.237  0.00  0.00    -0.078 C 
ATOM     11  N   UNL     1      -4.940  -2.422   4.849  0.00  0.00    +0.386 N 
ATOM     12  C   UNL     1      -5.788  -1.415   4.199  0.00  0.00    -0.078 C 
ATOM     13  C   UNL     1      -5.656  -0.081   4.939  0.00  0.00    -0.015 C 
ATOM     14  H   UNL     1      -3.912  -2.032   4.870  0.00  0.00    -0.081 HD
ENDBRANCH   6  11
BRANCH   6  15
ATOM     15  C   UNL     1      -6.258  -4.376   4.257  0.00  0.00    -0.022 A 
ATOM     16  C   UNL     1      -6.505  -5.675   4.554  0.00  0.00    +0.009 A 
ATOM     17  C   UNL     1      -7.816  -6.100   4.664  0.00  0.00    +0.008 A 
ATOM     18  C   UNL     1      -8.815  -5.205   4.472  0.00  0.00    +0.045 A 
ATOM     19  S   UNL     1      -7.908  -3.706   4.130  0.00  0.00    -0.103 S 
ENDBRANCH   6  15
ENDBRANCH   5   6
ENDBRANCH   1   5
BRANCH   2  20
ATOM     20  C   UNL     1      -1.814  -1.393   1.063  0.00  0.00    +0.105 C 
BRANCH  20  21
ATOM     21  C   UNL     1      -1.588  -1.086  -0.419  0.00  0.00    +0.105 C 
BRANCH  21  22
ATOM     22  C   UNL     1      -0.325  -0.280  -0.578  0.00  0.00    +0.197 A 
ATOM     23  N   UNL     1       0.869  -0.771  -0.756  0.00  0.00    -0.221 NA
ATOM     24  C   UNL     1       1.745   0.240  -0.856  0.00  0.00    +0.161 A 
ATOM     25  C   UNL     1       1.048   1.398  -0.731  0.00  0.00    +0.155 A 
ATOM     26  O   UNL     1      -0.248   1.058  -0.557  0.00  0.00    -0.440 OA
BRANCH  25  27
ATOM     27  C   UNL     1       1.600   2.768  -0.777  0.00  0.00    +0.019 A 
ATOM     28  C   UNL     1       0.754   3.870  -0.640  0.00  0.00    +0.014 A 
ATOM     29  C   UNL     1       1.276   5.146  -0.678  0.00  0.00    +0.039 A 
ATOM     30  C   UNL     1       2.636   5.336  -0.865  0.00  0.00    +0.123 A 
ATOM     31  C   UNL     1       3.480   4.246  -1.007  0.00  0.00    +0.039 A 
ATOM     32  C   UNL     1       2.970   2.966  -0.964  0.00  0.00    +0.014 A 
ATOM     33  F   UNL     1       3.141   6.589  -0.908  0.00  0.00    -0.205 F 
ENDBRANCH  25  27
ENDBRANCH  21  22
ENDBRANCH  20  21
ENDBRANCH   2  20
TORSDOF 8
