REMARK  Name = ZINC12275725
REMARK  7 active torsions:
REMARK  status: ('A' for Active; 'I' for Inactive)
REMARK    1  A    between atoms: C_1  and  C_2
REMARK    2  A    between atoms: N_8  and  N_9
REMARK    3  A    between atoms: N_9  and  C_10
REMARK    4  A    between atoms: C_13  and  N_16
REMARK    5  A    between atoms: N_16  and  C_17
REMARK    6  A    between atoms: C_18  and  C_20
REMARK    7  A    between atoms: C_23  and  C_26
REMARK                            x       y       z     vdW  Elec       q    Type
REMARK                         _______ _______ _______ _____ _____    ______ ____
ROOT
ATOM      1  C   UNL     1      -0.190   1.429   0.001  0.00  0.00    +0.070 C 
ATOM      2  C   UNL     1      -0.101  -0.075   0.003  0.00  0.00    +0.089 C 
ATOM      3  N   UNL     1      -0.073  -0.844  -1.043  0.00  0.00    -0.173 NA
ATOM      4  N   UNL     1       0.013  -2.188  -0.685  0.00  0.00    -0.130 N 
ATOM      5  C   UNL     1       0.042  -2.310   0.658  0.00  0.00    +0.294 C 
ATOM      6  O   UNL     1       0.115  -3.344   1.299  0.00  0.00    -0.266 OA
ATOM      7  C   UNL     1      -0.024  -0.940   1.191  0.00  0.00    +0.168 C 
ATOM      8  N   UNL     1      -0.019  -0.567   2.459  0.00  0.00    -0.175 NA
ATOM      9  C   UNL     1       0.060  -3.251  -1.583  0.00  0.00    +0.189 A 
ATOM     10  N   UNL     1       0.043  -3.230  -2.902  0.00  0.00    -0.223 NA
ATOM     11  C   UNL     1       0.096  -4.349  -3.608  0.00  0.00    +0.080 A 
ATOM     12  C   UNL     1       0.172  -5.550  -2.958  0.00  0.00    +0.077 A 
ATOM     13  S   UNL     1       0.170  -5.004  -1.255  0.00  0.00    -0.058 S 
ENDROOT
BRANCH  11  14
ATOM     14  C   UNL     1       0.074  -4.300  -5.090  0.00  0.00    +0.001 A 
ATOM     15  C   UNL     1       0.124  -5.481  -5.830  0.00  0.00    +0.011 A 
ATOM     16  C   UNL     1       0.103  -5.430  -7.208  0.00  0.00    +0.016 A 
ATOM     17  C   UNL     1       0.032  -4.210  -7.858  0.00  0.00    +0.018 A 
ATOM     18  C   UNL     1      -0.018  -3.035  -7.128  0.00  0.00    +0.016 A 
ATOM     19  C   UNL     1      -0.003  -3.074  -5.749  0.00  0.00    +0.011 A 
ATOM     20 BR   UNL     1       0.003  -4.148  -9.747  0.00  0.00    -0.050 Br
ENDBRANCH  11  14
BRANCH   8  21
ATOM     21  N   UNL     1       0.054  -1.455   3.392  0.00  0.00    -0.237 N 
ATOM     22  H   UNL     1       0.105  -2.397   3.162  0.00  0.00    +0.174 HD
BRANCH  21  23
ATOM     23  C   UNL     1       0.059  -1.062   4.730  0.00  0.00    +0.048 A 
ATOM     24  C   UNL     1      -0.020   0.286   5.059  0.00  0.00    +0.026 A 
ATOM     25  C   UNL     1      -0.014   0.675   6.383  0.00  0.00    +0.025 A 
ATOM     26  C   UNL     1       0.071  -0.282   7.387  0.00  0.00    +0.036 A 
ATOM     27  C   UNL     1       0.150  -1.629   7.059  0.00  0.00    +0.025 A 
ATOM     28  C   UNL     1       0.138  -2.019   5.736  0.00  0.00    +0.026 A 
BRANCH  26  29
ATOM     29  N   UNL     1       0.077   0.113   8.730  0.00  0.00    -0.275 N 
ATOM     30  C   UNL     1       0.157   1.534   9.076  0.00  0.00    +0.138 C 
ATOM     31  C   UNL     1       0.009  -0.815   9.705  0.00  0.00    +0.216 C 
ATOM     32  O   UNL     1       0.032  -1.994   9.423  0.00  0.00    -0.276 OA
ATOM     33  C   UNL     1      -0.096  -0.387  11.147  0.00  0.00    +0.109 C 
ENDBRANCH  26  29
ENDBRANCH  21  23
ENDBRANCH   8  21
TORSDOF 4
