REMARK  Name = ZINC27753870
REMARK  8 active torsions:
REMARK  status: ('A' for Active; 'I' for Inactive)
REMARK    1  A    between atoms: C_1  and  O_2
REMARK    2  A    between atoms: O_2  and  C_3
REMARK    3  A    between atoms: C_5  and  C_10
REMARK    4  A    between atoms: C_8  and  O_9
REMARK    5  A    between atoms: C_12  and  C_26
REMARK    6  A    between atoms: C_14  and  C_19
REMARK    7  A    between atoms: C_14  and  O_25
REMARK    8  A    between atoms: C_26  and  C_28
REMARK                            x       y       z     vdW  Elec       q    Type
REMARK                         _______ _______ _______ _____ _____    ______ ____
ROOT
ATOM      1  C   UNL     1       4.936   1.003  -0.066  0.00  0.00    +0.120 C 
ATOM      2  C   UNL     1       5.496   1.204   1.346  0.00  0.00    +0.144 C 
ATOM      3  C   UNL     1       6.904   0.602   1.403  0.00  0.00    +0.172 C 
ATOM      4  N   UNL     1       7.726   1.203   0.351  0.00  0.00    -0.267 N 
ATOM      5  C   UNL     1       7.182   1.647  -0.792  0.00  0.00    +0.302 C 
ATOM      6  O   UNL     1       7.911   2.129  -1.637  0.00  0.00    -0.253 OA
ATOM      7  N   UNL     1       5.865   1.581  -1.039  0.00  0.00    -0.292 N 
ATOM      8  H   UNL     1       8.813   1.297   0.489  0.00  0.00    +0.153 HD
ATOM      9  H   UNL     1       5.486   1.972  -1.996  0.00  0.00    +0.151 HD
ENDROOT
BRANCH   1  12
ATOM     10  C   UNL     1       1.208   1.561  -0.309  0.00  0.00    +0.162 A 
ATOM     11  C   UNL     1       2.439   0.934  -0.205  0.00  0.00    +0.055 A 
ATOM     12  C   UNL     1       3.598   1.687  -0.179  0.00  0.00    -0.023 A 
ATOM     13  C   UNL     1       3.532   3.066  -0.257  0.00  0.00    +0.009 A 
ATOM     14  C   UNL     1       2.307   3.697  -0.360  0.00  0.00    +0.049 A 
ATOM     15  C   UNL     1       1.142   2.949  -0.392  0.00  0.00    +0.158 A 
BRANCH  10  17
ATOM     16  C   UNL     1       0.211  -0.597  -0.250  0.00  0.00    +0.277 C 
ATOM     17  O   UNL     1       0.066   0.822  -0.334  0.00  0.00    -0.491 OA
ENDBRANCH  10  17
BRANCH  15  18
ATOM     18  O   UNL     1      -0.064   3.568  -0.500  0.00  0.00    -0.503 OA
ATOM     19  H   UNL     1      -0.115   4.665  -0.566  0.00  0.00    +0.292 HD
ENDBRANCH  15  18
ENDBRANCH   1  12
BRANCH   3  20
ATOM     20  C   UNL     1       7.520   0.887   2.748  0.00  0.00    +0.003 A 
ATOM     21  C   UNL     1       8.262   2.038   2.938  0.00  0.00    +0.008 A 
ATOM     22  C   UNL     1       8.824   2.302   4.174  0.00  0.00    +0.000 A 
ATOM     23  C   UNL     1       8.651   1.411   5.216  0.00  0.00    +0.000 A 
ATOM     24  C   UNL     1       7.913   0.258   5.024  0.00  0.00    +0.000 A 
ATOM     25  C   UNL     1       7.348  -0.004   3.790  0.00  0.00    +0.008 A 
ENDBRANCH   3  20
BRANCH   3  26
ATOM     26  O   UNL     1       6.828  -0.811   1.201  0.00  0.00    -0.367 OA
ATOM     27  H   UNL     1       7.745  -1.418   1.208  0.00  0.00    +0.212 HD
ENDBRANCH   3  26
BRANCH   2  28
ATOM     28  C   UNL     1       4.608   0.510   2.346  0.00  0.00    +0.245 C 
ATOM     29  O   UNL     1       4.399  -0.675   2.248  0.00  0.00    -0.287 OA
BRANCH  28  30
ATOM     30  C   UNL     1       3.981   1.295   3.469  0.00  0.00    +0.451 C 
ATOM     31  F   UNL     1       3.293   0.423   4.320  0.00  0.00    -0.163 F 
ATOM     32  F   UNL     1       4.980   1.958   4.190  0.00  0.00    -0.163 F 
ATOM     33  F   UNL     1       3.088   2.233   2.941  0.00  0.00    -0.163 F 
ENDBRANCH  28  30
ENDBRANCH   2  28
TORSDOF 7
