REMARK  Name = ZINC01194911
REMARK  5 active torsions:
REMARK  status: ('A' for Active; 'I' for Inactive)
REMARK    1  A    between atoms: C_1  and  C_2
REMARK    2  A    between atoms: C_2  and  S_3
REMARK    3  A    between atoms: S_3  and  C_4
REMARK    4  A    between atoms: C_17  and  C_20
REMARK    5  A    between atoms: C_24  and  C_26
REMARK                            x       y       z     vdW  Elec       q    Type
REMARK                         _______ _______ _______ _____ _____    ______ ____
ROOT
ATOM      1  C   UNL     1       5.996   3.417  -0.066  0.00  0.00    +0.212 A 
ATOM      2  N   UNL     1       5.845   2.428   0.809  0.00  0.00    -0.184 NA
ATOM      3  C   UNL     1       4.697   1.774   0.855  0.00  0.00    +0.248 A 
ATOM      4  C   UNL     1       3.667   2.147  -0.038  0.00  0.00    +0.156 A 
ATOM      5  N   UNL     1       3.881   3.144  -0.884  0.00  0.00    -0.141 NA
ATOM      6  N   UNL     1       5.014   3.756  -0.892  0.00  0.00    -0.122 NA
ATOM      7  C   UNL     1       2.380   1.422  -0.013  0.00  0.00    +0.028 A 
ATOM      8  C   UNL     1       1.165   2.095   0.002  0.00  0.00    +0.012 A 
ATOM      9  C   UNL     1      -0.017   1.380   0.010  0.00  0.00    +0.001 A 
ATOM     10  C   UNL     1       0.002  -0.004   0.002  0.00  0.00    +0.002 A 
ATOM     11  C   UNL     1       1.204  -0.688  -0.008  0.00  0.00    +0.024 A 
ATOM     12  C   UNL     1       2.395   0.014  -0.010  0.00  0.00    +0.039 A 
ATOM     13  N   UNL     1       3.629  -0.644   0.013  0.00  0.00    -0.304 N 
ATOM     14  C   UNL     1       4.449  -0.558   1.218  0.00  0.00    +0.312 C 
ATOM     15  O   UNL     1       4.492   0.766   1.736  0.00  0.00    -0.447 OA
ATOM     16  H   UNL     1       3.934  -1.148  -0.757  0.00  0.00    +0.150 HD
ENDROOT
BRANCH  14  17
ATOM     17  C   UNL     1       3.878  -1.478   2.267  0.00  0.00    +0.100 A 
ATOM     18  C   UNL     1       4.074  -1.192   3.605  0.00  0.00    +0.029 A 
ATOM     19  C   UNL     1       3.540  -2.041   4.562  0.00  0.00    +0.004 A 
ATOM     20  C   UNL     1       2.835  -3.156   4.135  0.00  0.00    +0.023 A 
ATOM     21  C   UNL     1       2.685  -3.380   2.780  0.00  0.00    +0.039 A 
ATOM     22  N   UNL     1       3.203  -2.548   1.897  0.00  0.00    -0.251 NA
ATOM     23  C   UNL     1       1.921  -4.589   2.305  0.00  0.00    +0.065 C 
ENDBRANCH  14  17
BRANCH   1  24
ATOM     24  S   UNL     1       7.524   4.292  -0.131  0.00  0.00    -0.085 S 
BRANCH  24  26
ATOM     25  C   UNL     1       8.373   6.365  -1.694  0.00  0.00    +0.016 C 
ATOM     26  C   UNL     1       7.155   5.471  -1.454  0.00  0.00    +0.074 C 
ENDBRANCH  24  26
ENDBRANCH   1  24
TORSDOF 3
