REMARK  Name = ZINC39736702
REMARK  8 active torsions:
REMARK  status: ('A' for Active; 'I' for Inactive)
REMARK    1  A    between atoms: C_1  and  C_2
REMARK    2  A    between atoms: C_4  and  C_25
REMARK    3  A    between atoms: C_5  and  C_24
REMARK    4  A    between atoms: C_6  and  C_8
REMARK    5  A    between atoms: N_10  and  C_11
REMARK    6  A    between atoms: C_20  and  C_23
REMARK    7  A    between atoms: C_25  and  O_27
REMARK    8  A    between atoms: O_27  and  C_28
REMARK                            x       y       z     vdW  Elec       q    Type
REMARK                         _______ _______ _______ _____ _____    ______ ____
ROOT
ATOM      1  C   UNL     1       0.082  -1.908   3.163  0.00  0.00    +0.266 C 
ATOM      2  O   UNL     1      -0.787  -2.553   3.713  0.00  0.00    -0.268 OA
ATOM      3  N   UNL     1       1.303  -1.806   3.724  0.00  0.00    -0.280 N 
ATOM      4  H   UNL     1       2.017  -1.348   3.253  0.00  0.00    +0.155 HD
ENDROOT
BRANCH   3   5
ATOM      5  C   UNL     1       1.542  -2.361   4.986  0.00  0.00    +0.036 A 
ATOM      6  C   UNL     1       0.918  -3.547   5.352  0.00  0.00    +0.027 A 
ATOM      7  C   UNL     1       1.151  -4.099   6.598  0.00  0.00    +0.049 A 
ATOM      8  C   UNL     1       2.007  -3.470   7.484  0.00  0.00    +0.143 A 
ATOM      9  C   UNL     1       2.635  -2.279   7.120  0.00  0.00    +0.077 A 
ATOM     10  C   UNL     1       2.407  -1.729   5.870  0.00  0.00    +0.050 A 
ATOM     11  N   UNL     1       3.498  -1.653   8.030  0.00  0.00    -0.279 N 
ATOM     12  C   UNL     1       3.950  -2.354   9.092  0.00  0.00    +0.258 C 
ATOM     13  O   UNL     1       4.674  -1.824   9.909  0.00  0.00    -0.271 OA
ATOM     14  C   UNL     1       3.552  -3.799   9.259  0.00  0.00    +0.256 C 
ATOM     15  O   UNL     1       2.246  -4.003   8.713  0.00  0.00    -0.478 OA
ATOM     16  C   UNL     1       4.555  -4.692   8.527  0.00  0.00    +0.062 C 
ATOM     17  H   UNL     1       3.768  -0.731   7.898  0.00  0.00    +0.155 HD
ENDBRANCH   3   5
BRANCH   1  22
ATOM     18  C   UNL     1      -0.005   1.508  -0.010  0.00  0.00    +0.038 C 
ATOM     19  C   UNL     1       0.009  -0.022  -0.009  0.00  0.00    +0.140 C 
ATOM     20  C   UNL     1      -1.405  -0.558   0.033  0.00  0.00    +0.066 C 
ATOM     21  C   UNL     1      -1.493  -1.276   1.171  0.00  0.00    -0.008 C 
ATOM     22  C   UNL     1      -0.201  -1.231   1.869  0.00  0.00    +0.124 C 
ATOM     23  N   UNL     1       0.661  -0.522   1.207  0.00  0.00    -0.271 NA
ATOM     24  C   UNL     1      -2.720  -2.008   1.650  0.00  0.00    +0.047 C 
BRANCH  20  25
ATOM     25  C   UNL     1      -2.465  -0.340  -0.961  0.00  0.00    +0.337 C 
ATOM     26  O   UNL     1      -3.562  -0.835  -0.797  0.00  0.00    -0.245 OA
BRANCH  25  27
ATOM     27  O   UNL     1      -2.219   0.409  -2.054  0.00  0.00    -0.465 OA
ATOM     28  C   UNL     1      -3.295   0.579  -2.979  0.00  0.00    +0.280 C 
ENDBRANCH  25  27
ENDBRANCH  20  25
ENDBRANCH   1  22
TORSDOF 4
