REMARK  Name = ZINC56722422
REMARK  5 active torsions:
REMARK  status: ('A' for Active; 'I' for Inactive)
REMARK    1  A    between atoms: C_3  and  N_11
REMARK    2  A    between atoms: N_14  and  C_15
REMARK    3  A    between atoms: C_15  and  C_16
REMARK    4  A    between atoms: C_16  and  C_18
REMARK    5  A    between atoms: C_16  and  N_23
REMARK                            x       y       z     vdW  Elec       q    Type
REMARK                         _______ _______ _______ _____ _____    ______ ____
ROOT
ATOM      1  N   UNL     1       2.313   5.650  -2.809  0.00  0.00    -0.266 N 
ATOM      2  C   UNL     1       2.811   5.558  -1.560  0.00  0.00    +0.304 C 
ATOM      3  O   UNL     1       2.149   5.046  -0.678  0.00  0.00    -0.253 OA
ATOM      4  N   UNL     1       4.042   6.034  -1.288  0.00  0.00    -0.300 N 
ATOM      5  H   UNL     1       2.870   5.986  -3.529  0.00  0.00    +0.156 HD
ATOM      6  H   UNL     1       4.570   6.442  -1.992  0.00  0.00    +0.150 HD
ENDROOT
BRANCH   1   9
ATOM      7  C   UNL     1      -1.249   4.880  -2.300  0.00  0.00    +0.006 A 
ATOM      8  C   UNL     1       0.054   5.264  -2.045  0.00  0.00    +0.027 A 
ATOM      9  C   UNL     1       0.992   5.260  -3.068  0.00  0.00    +0.080 A 
ATOM     10  C   UNL     1       0.620   4.868  -4.351  0.00  0.00    +0.183 A 
ATOM     11  C   UNL     1      -0.689   4.481  -4.601  0.00  0.00    +0.164 A 
ATOM     12  C   UNL     1      -1.622   4.490  -3.572  0.00  0.00    +0.049 A 
ATOM     13  O   UNL     1      -1.073   4.086  -5.846  0.00  0.00    -0.485 OA
ATOM     14  C   UNL     1      -0.209   4.445  -6.930  0.00  0.00    +0.270 C 
ATOM     15  C   UNL     1       1.234   4.118  -6.523  0.00  0.00    +0.270 C 
ATOM     16  O   UNL     1       1.548   4.872  -5.347  0.00  0.00    -0.483 OA
ENDBRANCH   1   9
BRANCH   4  17
ATOM     17  C   UNL     1       4.583   5.934   0.070  0.00  0.00    +0.098 C 
BRANCH  17  18
ATOM     18  C   UNL     1       5.931   6.653   0.136  0.00  0.00    +0.016 C 
BRANCH  18  19
ATOM     19  N   UNL     1       6.830   6.105  -0.889  0.00  0.00    +0.387 N 
ATOM     20  C   UNL     1       6.938   4.651  -0.715  0.00  0.00    -0.078 C 
ATOM     21  C   UNL     1       7.808   4.064  -1.828  0.00  0.00    -0.019 C 
ATOM     22  C   UNL     1       9.203   4.693  -1.764  0.00  0.00    -0.004 C 
ATOM     23  C   UNL     1       9.072   6.215  -1.872  0.00  0.00    -0.019 C 
ATOM     24  C   UNL     1       8.155   6.723  -0.757  0.00  0.00    -0.078 C 
ATOM     25  H   UNL     1       6.456   6.305  -1.804  0.00  0.00    -0.081 HD
ENDBRANCH  18  19
BRANCH  18  26
ATOM     26  C   UNL     1       5.728   8.126  -0.111  0.00  0.00    +0.093 A 
ATOM     27  C   UNL     1       5.677   9.082   0.834  0.00  0.00    +0.043 A 
ATOM     28  C   UNL     1       5.473  10.310   0.163  0.00  0.00    +0.041 A 
ATOM     29  C   UNL     1       5.411  10.030  -1.152  0.00  0.00    +0.195 A 
ATOM     30  O   UNL     1       5.572   8.707  -1.312  0.00  0.00    -0.469 OA
ENDBRANCH  18  26
ENDBRANCH  17  18
ENDBRANCH   4  17
TORSDOF 5
