REMARK  Name = ZINC04388603
REMARK  7 active torsions:
REMARK  status: ('A' for Active; 'I' for Inactive)
REMARK    1  A    between atoms: C_1  and  O_2
REMARK    2  A    between atoms: O_2  and  C_3
REMARK    3  A    between atoms: C_3  and  C_5
REMARK    4  A    between atoms: C_5  and  C_28
REMARK    5  A    between atoms: C_10  and  C_12
REMARK    6  A    between atoms: N_19  and  C_22
REMARK    7  A    between atoms: C_28  and  O_29
REMARK                            x       y       z     vdW  Elec       q    Type
REMARK                         _______ _______ _______ _____ _____    ______ ____
ROOT
ATOM      1  C   UNL     1      -1.380   8.031   1.306  0.00  0.00    +0.067 C 
ATOM      2  C   UNL     1      -0.873   7.429  -0.020  0.00  0.00    +0.088 C 
ATOM      3  C   UNL     1       0.675   7.449   0.100  0.00  0.00    +0.078 C 
ATOM      4  C   UNL     1       0.956   8.062   1.487  0.00  0.00    -0.020 C 
ATOM      5  C   UNL     1       1.043   5.982   0.119  0.00  0.00    +0.229 C 
ATOM      6  O   UNL     1       2.170   5.544   0.204  0.00  0.00    -0.275 OA
ATOM      7  N   UNL     1      -0.069   5.244   0.029  0.00  0.00    -0.210 N 
ATOM      8  C   UNL     1      -1.200   5.953  -0.060  0.00  0.00    +0.229 C 
ATOM      9  O   UNL     1      -2.315   5.485  -0.155  0.00  0.00    -0.275 OA
ATOM     10  N   UNL     1      -0.274   7.809   2.237  0.00  0.00    +0.397 N 
ATOM     11  H   UNL     1      -0.287   6.842   2.581  0.00  0.00    -0.083 HD
ATOM     12  H   UNL     1      -0.344   8.456   3.032  0.00  0.00    -0.083 HD
ENDROOT
BRANCH   7  13
ATOM     13  C   UNL     1      -0.050   3.842   0.022  0.00  0.00    +0.044 A 
ATOM     14  C   UNL     1      -0.588   3.134   1.088  0.00  0.00    +0.024 A 
ATOM     15  C   UNL     1      -0.568   1.753   1.079  0.00  0.00    +0.002 A 
ATOM     16  C   UNL     1      -0.012   1.076   0.009  0.00  0.00    +0.000 A 
ATOM     17  C   UNL     1       0.530   1.778  -1.052  0.00  0.00    +0.002 A 
ATOM     18  C   UNL     1       0.507   3.159  -1.050  0.00  0.00    +0.024 A 
ENDBRANCH   7  13
BRANCH   4  19
ATOM     19  C   UNL     1       2.141   7.387   2.129  0.00  0.00    -0.023 A 
ATOM     20  C   UNL     1       3.427   7.809   2.203  0.00  0.00    +0.009 A 
ATOM     21  C   UNL     1       4.357   7.016   2.849  0.00  0.00    +0.008 A 
ATOM     22  C   UNL     1       3.955   5.840   3.390  0.00  0.00    +0.045 A 
ATOM     23  S   UNL     1       2.214   5.828   2.995  0.00  0.00    -0.103 S 
ENDBRANCH   4  19
BRANCH   1  24
ATOM     24  C   UNL     1      -1.639   9.507   1.148  0.00  0.00    +0.299 C 
ATOM     25  O   UNL     1      -1.886   9.963   0.057  0.00  0.00    -0.252 OA
BRANCH  24  27
ATOM     26  C   UNL     1      -1.852  11.726   1.992  0.00  0.00    +0.280 C 
ATOM     27  O   UNL     1      -1.593  10.315   2.219  0.00  0.00    -0.469 OA
ENDBRANCH  24  27
ENDBRANCH   1  24
BRANCH   1  28
ATOM     28  C   UNL     1      -2.651   7.313   1.766  0.00  0.00    +0.155 C 
BRANCH  28  29
ATOM     29  O   UNL     1      -3.103   7.885   2.995  0.00  0.00    -0.396 OA
ATOM     30  H   UNL     1      -3.907   7.478   3.346  0.00  0.00    +0.209 HD
ENDBRANCH  28  29
ENDBRANCH   1  28
TORSDOF 6
