REMARK  Name = ZINC64126654
REMARK  3 active torsions:
REMARK  status: ('A' for Active; 'I' for Inactive)
REMARK    1  A    between atoms: C_6  and  C_7
REMARK    2  A    between atoms: N_12  and  C_15
REMARK    3  A    between atoms: C_15  and  C_16
REMARK                            x       y       z     vdW  Elec       q    Type
REMARK                         _______ _______ _______ _____ _____    ______ ____
ROOT
ATOM      1  C   UNL     1      -1.081  -0.556   0.225  0.00  0.00    +0.247 C 
ATOM      2  O   UNL     1      -0.079   0.124   0.331  0.00  0.00    -0.270 OA
ATOM      3  N   UNL     1      -2.285   0.034   0.084  0.00  0.00    -0.301 N 
ATOM      4  C   UNL     1      -2.398   1.493  -0.069  0.00  0.00    +0.089 C 
ATOM      5  C   UNL     1      -3.434   2.007   0.936  0.00  0.00    -0.060 C 
ATOM      6  N   UNL     1      -4.696   1.278   0.753  0.00  0.00    +0.382 N 
ATOM      7  C   UNL     1      -4.505  -0.142   1.074  0.00  0.00    -0.060 C 
ATOM      8  C   UNL     1      -3.521  -0.762   0.070  0.00  0.00    +0.089 C 
ATOM      9  H   UNL     1      -4.998   1.367  -0.206  0.00  0.00    -0.082 HD
ENDROOT
BRANCH   1  15
ATOM     10  C   UNL     1      -1.866  -2.805  -0.500  0.00  0.00    +0.015 A 
ATOM     11  C   UNL     1      -1.772  -4.178  -0.476  0.00  0.00    +0.028 A 
ATOM     12  C   UNL     1      -0.796  -4.801   0.299  0.00  0.00    +0.066 A 
ATOM     13  C   UNL     1       0.092  -4.030   1.055  0.00  0.00    +0.066 A 
ATOM     14  C   UNL     1      -0.001  -2.647   1.031  0.00  0.00    +0.040 A 
ATOM     15  C   UNL     1      -0.980  -2.029   0.253  0.00  0.00    +0.039 A 
ATOM     16  N   UNL     1       1.073  -4.640   1.834  0.00  0.00    -0.316 N 
ATOM     17  H   UNL     1       1.684  -4.097   2.356  0.00  0.00    +0.169 HD
ATOM     18  C   UNL     1       1.172  -5.984   1.864  0.00  0.00    +0.314 A 
ATOM     19  O   UNL     1       2.025  -6.521   2.542  0.00  0.00    -0.262 OA
ATOM     20  C   UNL     1       0.223  -6.804   1.057  0.00  0.00    +0.314 A 
ATOM     21  O   UNL     1       0.295  -8.017   1.071  0.00  0.00    -0.262 OA
ATOM     22  N   UNL     1      -0.716  -6.187   0.312  0.00  0.00    -0.316 N 
ATOM     23  H   UNL     1      -1.337  -6.713  -0.215  0.00  0.00    +0.169 HD
ENDBRANCH   1  15
BRANCH   6  24
ATOM     24  C   UNL     1      -5.720   1.845   1.640  0.00  0.00    -0.075 C 
BRANCH  24  25
ATOM     25  C   UNL     1      -6.048   3.272   1.194  0.00  0.00    -0.028 C 
ATOM     26  C   UNL     1      -6.653   3.241  -0.210  0.00  0.00    +0.002 C 
ATOM     27  C   UNL     1      -6.981   4.668  -0.656  0.00  0.00    +0.000 C 
ATOM     28  C   UNL     1      -7.984   5.289   0.318  0.00  0.00    +0.000 C 
ATOM     29  C   UNL     1      -7.379   5.319   1.723  0.00  0.00    +0.000 C 
ATOM     30  C   UNL     1      -7.051   3.893   2.168  0.00  0.00    +0.002 C 
ENDBRANCH  24  25
ENDBRANCH   6  24
TORSDOF 3
