REMARK  Name = ZINC39494900
REMARK  12 active torsions:
REMARK  status: ('A' for Active; 'I' for Inactive)
REMARK    1  A    between atoms: C_1  and  C_2
REMARK    2  A    between atoms: C_2  and  C_3
REMARK    3  A    between atoms: C_2  and  S_4
REMARK    4  A    between atoms: S_4  and  C_7
REMARK    5  A    between atoms: C_7  and  C_9
REMARK    6  A    between atoms: C_7  and  C_30
REMARK    7  A    between atoms: C_9  and  C_11
REMARK    8  A    between atoms: C_9  and  N_17
REMARK    9  A    between atoms: C_18  and  S_20
REMARK   10  A    between atoms: S_20  and  O_23
REMARK   11  A    between atoms: O_23  and  C_24
REMARK   12  A    between atoms: C_30  and  C_32
REMARK                            x       y       z     vdW  Elec       q    Type
REMARK                         _______ _______ _______ _____ _____    ______ ____
ROOT
ATOM      1  C   UNL     1      -2.953   1.380  -2.342  0.00  0.00    +0.137 C 
ENDROOT
BRANCH   1   2
ATOM      2  C   UNL     1      -4.069   1.938  -1.497  0.00  0.00    -0.025 A 
ATOM      3  C   UNL     1      -5.350   1.435  -1.625  0.00  0.00    +0.005 A 
ATOM      4  C   UNL     1      -6.374   1.947  -0.850  0.00  0.00    +0.000 A 
ATOM      5  C   UNL     1      -6.116   2.962   0.053  0.00  0.00    +0.000 A 
ATOM      6  C   UNL     1      -4.835   3.464   0.181  0.00  0.00    +0.000 A 
ATOM      7  C   UNL     1      -3.810   2.949  -0.590  0.00  0.00    +0.005 A 
ENDBRANCH   1   2
BRANCH   1   8
ATOM      8  N   UNL     1      -3.482   0.982  -3.649  0.00  0.00    -0.285 N 
ATOM      9  C   UNL     1      -3.538   1.878  -4.655  0.00  0.00    +0.391 C 
ATOM     10  O   UNL     1      -3.150   3.013  -4.478  0.00  0.00    -0.246 OA
ATOM     11  H   UNL     1      -3.791   0.074  -3.791  0.00  0.00    +0.151 HD
BRANCH   9  12
ATOM     12  S   UNL     1      -4.174   1.399  -6.226  0.00  0.00    +0.203 S 
ATOM     13  O   UNL     1      -3.912   2.476  -7.116  0.00  0.00    -0.127 OA
ATOM     14  O   UNL     1      -3.706   0.079  -6.469  0.00  0.00    -0.127 OA
BRANCH  12  15
ATOM     15  O   UNL     1      -5.687   1.305  -6.090  0.00  0.00    -0.339 OA
BRANCH  15  16
ATOM     16  C   UNL     1      -6.313   2.511  -6.043  0.00  0.00    +0.157 A 
ATOM     17  C   UNL     1      -6.521   3.138  -4.823  0.00  0.00    +0.048 A 
ATOM     18  C   UNL     1      -7.157   4.364  -4.778  0.00  0.00    +0.004 A 
ATOM     19  C   UNL     1      -7.587   4.964  -5.947  0.00  0.00    +0.000 A 
ATOM     20  C   UNL     1      -7.382   4.340  -7.164  0.00  0.00    +0.004 A 
ATOM     21  C   UNL     1      -6.740   3.118  -7.215  0.00  0.00    +0.048 A 
ENDBRANCH  15  16
ENDBRANCH  12  15
ENDBRANCH   9  12
ENDBRANCH   1   8
BRANCH   1  22
ATOM     22  C   UNL     1      -2.346   0.161  -1.645  0.00  0.00    +0.226 C 
BRANCH  22  23
ATOM     23  S   UNL     1      -0.899  -0.411  -2.578  0.00  0.00    -0.017 S 
ATOM     24  O   UNL     1      -1.284  -0.602  -3.932  0.00  0.00    -0.173 OA
ATOM     25  O   UNL     1      -0.306  -1.491  -1.869  0.00  0.00    -0.173 OA
BRANCH  23  27
ATOM     26  C   UNL     1       0.578   1.298  -1.035  0.00  0.00    +0.031 C 
ATOM     27  C   UNL     1       0.221   1.014  -2.495  0.00  0.00    +0.125 C 
ATOM     28  C   UNL     1       1.496   0.706  -3.282  0.00  0.00    +0.031 C 
ENDBRANCH  23  27
ENDBRANCH  22  23
BRANCH  22  29
ATOM     29  C   UNL     1      -3.370  -0.942  -1.579  0.00  0.00    +0.189 C 
ATOM     30  O   UNL     1      -3.450  -1.749  -2.481  0.00  0.00    -0.290 OA
BRANCH  29  31
ATOM     31  C   UNL     1      -4.274  -1.040  -0.422  0.00  0.00    +0.019 A 
ATOM     32  C   UNL     1      -4.105  -0.189   0.675  0.00  0.00    +0.011 A 
ATOM     33  C   UNL     1      -4.956  -0.287   1.756  0.00  0.00    +0.001 A 
ATOM     34  C   UNL     1      -5.975  -1.223   1.756  0.00  0.00    +0.000 A 
ATOM     35  C   UNL     1      -6.148  -2.069   0.675  0.00  0.00    +0.001 A 
ATOM     36  C   UNL     1      -5.309  -1.980  -0.416  0.00  0.00    +0.011 A 
ENDBRANCH  29  31
ENDBRANCH  22  29
ENDBRANCH   1  22
TORSDOF 10
