REMARK  Name = ZINC47147006
REMARK  4 active torsions:
REMARK  status: ('A' for Active; 'I' for Inactive)
REMARK    1  A    between atoms: C_4  and  N_11
REMARK    2  A    between atoms: C_5  and  C_7
REMARK    3  A    between atoms: C_16  and  C_30
REMARK    4  A    between atoms: C_33  and  O_36
REMARK                            x       y       z     vdW  Elec       q    Type
REMARK                         _______ _______ _______ _____ _____    ______ ____
ROOT
ATOM      1  N   UNL     1       3.468  -1.101   0.017  0.00  0.00    -0.209 N 
ATOM      2  C   UNL     1       4.140  -1.315  -1.139  0.00  0.00    +0.232 C 
ATOM      3  O   UNL     1       3.817  -0.954  -2.249  0.00  0.00    -0.274 OA
ATOM      4  C   UNL     1       5.365  -2.090  -0.764  0.00  0.00    +0.110 C 
ATOM      5  C   UNL     1       6.520  -2.114  -1.691  0.00  0.00    +0.072 C 
ATOM      6  C   UNL     1       7.483  -0.991  -1.549  0.00  0.00    +0.033 A 
ATOM      7  C   UNL     1       7.565  -0.071  -0.570  0.00  0.00    +0.088 A 
ATOM      8  N   UNL     1       8.597   0.830  -0.707  0.00  0.00    -0.311 N 
ATOM      9  H   UNL     1       8.736   1.514  -0.033  0.00  0.00    +0.170 HD
ATOM     10  C   UNL     1       9.413   0.763  -1.775  0.00  0.00    +0.289 A 
ATOM     11  O   UNL     1      10.360   1.479  -2.049  0.00  0.00    -0.260 OA
ATOM     12  S   UNL     1       8.810  -0.547  -2.640  0.00  0.00    -0.030 S 
ATOM     13  S   UNL     1       6.398  -0.040   0.765  0.00  0.00    -0.093 S 
ATOM     14  C   UNL     1       5.621  -1.672   0.690  0.00  0.00    +0.152 C 
ATOM     15  C   UNL     1       4.164  -1.433   1.122  0.00  0.00    +0.240 C 
ATOM     16  O   UNL     1       3.725  -1.528   2.248  0.00  0.00    -0.274 OA
ENDROOT
BRANCH   1  20
ATOM     17  C   UNL     1      -0.396   0.459   0.144  0.00  0.00    +0.001 A 
ATOM     18  C   UNL     1       0.693   1.310   0.174  0.00  0.00    +0.002 A 
ATOM     19  C   UNL     1       1.975   0.797   0.132  0.00  0.00    +0.024 A 
ATOM     20  C   UNL     1       2.168  -0.576   0.060  0.00  0.00    +0.056 A 
ATOM     21  C   UNL     1       1.073  -1.428   0.030  0.00  0.00    +0.077 A 
ATOM     22  C   UNL     1      -0.206  -0.909   0.072  0.00  0.00    +0.014 A 
BRANCH  21  23
ATOM     23  C   UNL     1       1.279  -2.919  -0.048  0.00  0.00    +0.419 C 
ATOM     24  F   UNL     1       0.037  -3.562  -0.065  0.00  0.00    -0.166 F 
ATOM     25  F   UNL     1       1.982  -3.232  -1.217  0.00  0.00    -0.166 F 
ATOM     26  F   UNL     1       2.011  -3.348   1.065  0.00  0.00    -0.166 F 
ENDBRANCH  21  23
ENDBRANCH   1  20
BRANCH   5  27
ATOM     27  C   UNL     1       5.992  -2.102  -3.102  0.00  0.00    -0.038 A 
ATOM     28  C   UNL     1       5.832  -0.901  -3.769  0.00  0.00    +0.008 A 
ATOM     29  C   UNL     1       5.348  -0.887  -5.063  0.00  0.00    +0.045 A 
ATOM     30  C   UNL     1       5.023  -2.080  -5.693  0.00  0.00    +0.117 A 
ATOM     31  C   UNL     1       5.185  -3.283  -5.022  0.00  0.00    +0.045 A 
ATOM     32  C   UNL     1       5.674  -3.292  -3.730  0.00  0.00    +0.008 A 
BRANCH  30  33
ATOM     33  O   UNL     1       4.546  -2.069  -6.966  0.00  0.00    -0.507 OA
ATOM     34  H   UNL     1       5.233  -2.127  -7.644  0.00  0.00    +0.292 HD
ENDBRANCH  30  33
ENDBRANCH   5  27
TORSDOF 4
