REMARK  Name = ZINC41514304
REMARK  7 active torsions:
REMARK  status: ('A' for Active; 'I' for Inactive)
REMARK    1  A    between atoms: C_1  and  C_2
REMARK    2  A    between atoms: C_2  and  C_3
REMARK    3  A    between atoms: C_6  and  C_9
REMARK    4  A    between atoms: C_14  and  C_29
REMARK    5  A    between atoms: C_16  and  O_28
REMARK    6  A    between atoms: C_17  and  C_20
REMARK    7  A    between atoms: C_20  and  N_21
REMARK                            x       y       z     vdW  Elec       q    Type
REMARK                         _______ _______ _______ _____ _____    ______ ____
ROOT
ATOM      1  C   UNL     1       3.063  -1.272   5.358  0.00  0.00    +0.058 C 
ATOM      2  C   UNL     1       2.265  -1.618   6.398  0.00  0.00    +0.176 C 
ATOM      3  C   UNL     1       2.711  -2.118   7.709  0.00  0.00    +0.232 C 
ATOM      4  O   UNL     1       3.855  -2.306   8.085  0.00  0.00    -0.283 OA
ATOM      5  C   UNL     1       1.465  -2.339   8.464  0.00  0.00    +0.071 A 
ATOM      6  C   UNL     1       1.200  -2.800   9.754  0.00  0.00    -0.033 A 
ATOM      7  C   UNL     1      -0.091  -2.902  10.189  0.00  0.00    +0.050 A 
ATOM      8  C   UNL     1      -1.143  -2.547   9.347  0.00  0.00    +0.122 A 
ATOM      9  C   UNL     1      -0.894  -2.087   8.064  0.00  0.00    +0.020 A 
ATOM     10  C   UNL     1       0.413  -1.978   7.606  0.00  0.00    +0.145 A 
ATOM     11  O   UNL     1       0.912  -1.561   6.422  0.00  0.00    -0.451 OA
ATOM     12  C   UNL     1       2.336  -3.185  10.666  0.00  0.00    +0.045 C 
ENDROOT
BRANCH   1  16
ATOM     13  C   UNL     1       1.375   0.465   1.877  0.00  0.00    -0.048 A 
ATOM     14  C   UNL     1       0.548  -0.002   2.884  0.00  0.00    +0.004 A 
ATOM     15  C   UNL     1       1.088  -0.568   4.019  0.00  0.00    +0.008 A 
ATOM     16  C   UNL     1       2.478  -0.670   4.151  0.00  0.00    -0.021 A 
ATOM     17  C   UNL     1       3.307  -0.195   3.129  0.00  0.00    +0.008 A 
ATOM     18  C   UNL     1       2.750   0.363   1.998  0.00  0.00    +0.004 A 
BRANCH  13  20
ATOM     19  C   UNL     1       0.531  -0.007  -0.406  0.00  0.00    +0.009 C 
ATOM     20  C   UNL     1       0.775   1.082   0.640  0.00  0.00    +0.032 C 
ENDBRANCH  13  20
ENDBRANCH   1  16
BRANCH   8  21
ATOM     21  O   UNL     1      -2.422  -2.652   9.788  0.00  0.00    -0.506 OA
ATOM     22  H   UNL     1      -2.782  -1.831  10.152  0.00  0.00    +0.292 HD
ENDBRANCH   8  21
BRANCH   9  23
ATOM     23  C   UNL     1      -2.042  -1.707   7.164  0.00  0.00    -0.036 C 
BRANCH  23  24
ATOM     24  N   UNL     1      -2.583  -2.914   6.525  0.00  0.00    +0.383 N 
ATOM     25  C   UNL     1      -1.529  -3.519   5.688  0.00  0.00    -0.078 C 
ATOM     26  C   UNL     1      -1.833  -4.988   5.533  0.00  0.00    -0.019 C 
ATOM     27  C   UNL     1      -2.592  -5.272   4.223  0.00  0.00    -0.002 C 
ATOM     28  C   UNL     1      -3.662  -4.200   3.938  0.00  0.00    -0.002 C 
ATOM     29  C   UNL     1      -4.415  -3.796   5.180  0.00  0.00    -0.019 C 
ATOM     30  C   UNL     1      -3.728  -2.565   5.807  0.00  0.00    -0.078 C 
ATOM     31  H   UNL     1      -2.841  -3.573   7.244  0.00  0.00    -0.081 HD
ENDBRANCH  23  24
ENDBRANCH   9  23
TORSDOF 5
