REMARK  Name = ZINC20597793
REMARK  9 active torsions:
REMARK  status: ('A' for Active; 'I' for Inactive)
REMARK    1  A    between atoms: C_1  and  C_2
REMARK    2  A    between atoms: C_3  and  C_17
REMARK    3  A    between atoms: N_6  and  C_7
REMARK    4  A    between atoms: C_12  and  C_13
REMARK    5  A    between atoms: C_23  and  C_25
REMARK    6  A    between atoms: C_27  and  O_33
REMARK    7  A    between atoms: C_29  and  O_31
REMARK    8  A    between atoms: O_31  and  C_32
REMARK    9  A    between atoms: O_33  and  C_34
REMARK                            x       y       z     vdW  Elec       q    Type
REMARK                         _______ _______ _______ _____ _____    ______ ____
ROOT
ATOM      1  C   UNL     1      -0.333   6.791  -0.058  0.00  0.00    +0.192 A 
ATOM      2  N   UNL     1       0.217   7.988   0.008  0.00  0.00    -0.202 NA
ATOM      3  C   UNL     1      -0.570   9.052  -0.036  0.00  0.00    +0.185 A 
ATOM      4  S   UNL     1      -2.139   8.324  -0.165  0.00  0.00    +0.050 S 
ATOM      5  N   UNL     1      -1.644   6.685  -0.157  0.00  0.00    -0.186 NA
ATOM      6  N   UNL     1      -0.229  10.395   0.012  0.00  0.00    -0.259 N 
ATOM      7  C   UNL     1      -1.191  11.337  -0.043  0.00  0.00    +0.250 C 
ATOM      8  O   UNL     1      -2.358  11.009  -0.135  0.00  0.00    -0.270 OA
ATOM      9  H   UNL     1       0.827  10.692   0.095  0.00  0.00    +0.157 HD
ENDROOT
BRANCH   1  12
ATOM     10  C   UNL     1      -1.370   3.844  -0.186  0.00  0.00    +0.068 C 
ATOM     11  C   UNL     1       0.065   4.290  -0.071  0.00  0.00    +0.073 A 
ATOM     12  C   UNL     1       0.515   5.574  -0.016  0.00  0.00    +0.153 A 
ATOM     13  N   UNL     1       1.852   5.556   0.084  0.00  0.00    -0.126 NA
ATOM     14  N   UNL     1       2.272   4.339   0.100  0.00  0.00    -0.060 NA
ATOM     15  N   UNL     1       1.162   3.488  -0.003  0.00  0.00    -0.216 N 
BRANCH  15  16
ATOM     16  C   UNL     1       1.179   2.086  -0.026  0.00  0.00    +0.079 A 
ATOM     17  C   UNL     1       0.365   1.367   0.839  0.00  0.00    +0.028 A 
ATOM     18  C   UNL     1       0.384  -0.014   0.814  0.00  0.00    +0.002 A 
ATOM     19  C   UNL     1       1.212  -0.680  -0.072  0.00  0.00    +0.001 A 
ATOM     20  C   UNL     1       2.024   0.034  -0.933  0.00  0.00    +0.014 A 
ATOM     21  C   UNL     1       2.010   1.415  -0.913  0.00  0.00    +0.080 A 
BRANCH  21  22
ATOM     22  C   UNL     1       2.895   2.192  -1.852  0.00  0.00    +0.419 C 
ATOM     23  F   UNL     1       3.633   1.303  -2.641  0.00  0.00    -0.166 F 
ATOM     24  F   UNL     1       2.105   3.001  -2.676  0.00  0.00    -0.166 F 
ATOM     25  F   UNL     1       3.770   2.995  -1.112  0.00  0.00    -0.166 F 
ENDBRANCH  21  22
ENDBRANCH  15  16
ENDBRANCH   1  12
BRANCH   7  26
ATOM     26  C   UNL     1      -0.828  12.769   0.008  0.00  0.00    +0.044 A 
ATOM     27  C   UNL     1       0.510  13.148   0.118  0.00  0.00    +0.059 A 
ATOM     28  C   UNL     1       0.847  14.491   0.161  0.00  0.00    +0.124 A 
ATOM     29  C   UNL     1      -0.146  15.459   0.104  0.00  0.00    +0.091 A 
ATOM     30  C   UNL     1      -1.478  15.086  -0.001  0.00  0.00    +0.124 A 
ATOM     31  C   UNL     1      -1.823  13.746  -0.049  0.00  0.00    +0.059 A 
BRANCH  30  32
ATOM     32  O   UNL     1      -2.446  16.038  -0.056  0.00  0.00    -0.495 OA
ATOM     33  C   UNL     1      -2.020  17.401  -0.001  0.00  0.00    +0.277 C 
ENDBRANCH  30  32
BRANCH  28  34
ATOM     34  O   UNL     1       2.150  14.861   0.264  0.00  0.00    -0.495 OA
ATOM     35  C   UNL     1       2.425  16.262   0.307  0.00  0.00    +0.277 C 
ENDBRANCH  28  34
ENDBRANCH   7  26
TORSDOF 6
