REMARK  Name = ZINC16413235
REMARK  8 active torsions:
REMARK  status: ('A' for Active; 'I' for Inactive)
REMARK    1  A    between atoms: C_1  and  C_2
REMARK    2  A    between atoms: C_2  and  C_4
REMARK    3  A    between atoms: C_2  and  O_14
REMARK    4  A    between atoms: N_6  and  C_7
REMARK    5  A    between atoms: O_14  and  C_15
REMARK    6  A    between atoms: C_15  and  C_17
REMARK    7  A    between atoms: C_26  and  N_27
REMARK    8  A    between atoms: C_28  and  C_30
REMARK                            x       y       z     vdW  Elec       q    Type
REMARK                         _______ _______ _______ _____ _____    ______ ____
ROOT
ATOM      1  C   UNL     1      -1.802  -0.596  -0.690  0.00  0.00    +0.342 C 
ATOM      2  O   UNL     1      -0.967  -0.310  -1.525  0.00  0.00    -0.245 OA
ENDROOT
BRANCH   1   3
ATOM      3  C   UNL     1      -3.098  -1.162  -1.107  0.00  0.00    +0.081 A 
ATOM      4  C   UNL     1      -4.087  -1.388  -0.163  0.00  0.00    +0.025 A 
ATOM      5  C   UNL     1      -5.317  -1.926  -0.565  0.00  0.00    -0.017 A 
ATOM      6  C   UNL     1      -6.343  -2.167   0.367  0.00  0.00    +0.008 A 
ATOM      7  C   UNL     1      -7.527  -2.690  -0.054  0.00  0.00    +0.001 A 
ATOM      8  C   UNL     1      -7.741  -2.990  -1.398  0.00  0.00    +0.001 A 
ATOM      9  C   UNL     1      -6.773  -2.771  -2.329  0.00  0.00    +0.008 A 
ATOM     10  C   UNL     1      -5.535  -2.232  -1.934  0.00  0.00    -0.016 A 
ATOM     11  C   UNL     1      -4.518  -1.994  -2.872  0.00  0.00    +0.032 A 
ATOM     12  C   UNL     1      -3.327  -1.464  -2.468  0.00  0.00    +0.048 A 
BRANCH  12  13
ATOM     13  N   UNL     1      -2.323  -1.226  -3.406  0.00  0.00    -0.285 N 
ATOM     14  C   UNL     1      -2.157  -2.069  -4.444  0.00  0.00    +0.214 C 
ATOM     15  O   UNL     1      -2.928  -2.991  -4.606  0.00  0.00    -0.276 OA
ATOM     16  C   UNL     1      -1.012  -1.866  -5.404  0.00  0.00    +0.109 C 
ATOM     17  H   UNL     1      -1.745  -0.452  -3.312  0.00  0.00    +0.155 HD
ENDBRANCH  12  13
ENDBRANCH   1   3
BRANCH   1  18
ATOM     18  O   UNL     1      -1.543  -0.397   0.618  0.00  0.00    -0.449 OA
BRANCH  18  20
ATOM     19  C   UNL     1      -0.362   1.681   0.974  0.00  0.00    +0.062 C 
ATOM     20  C   UNL     1      -0.267   0.154   0.950  0.00  0.00    +0.259 C 
BRANCH  20  21
ATOM     21  C   UNL     1       0.157  -0.344   2.307  0.00  0.00    +0.258 C 
ATOM     22  O   UNL     1      -0.600  -1.024   2.968  0.00  0.00    -0.271 OA
ATOM     23  N   UNL     1       1.378  -0.035   2.787  0.00  0.00    -0.282 N 
ATOM     24  H   UNL     1       2.007   0.453   2.233  0.00  0.00    +0.155 HD
BRANCH  23  25
ATOM     25  C   UNL     1       1.738  -0.419   4.083  0.00  0.00    +0.035 A 
ATOM     26  C   UNL     1       2.547   0.406   4.854  0.00  0.00    +0.023 A 
ATOM     27  C   UNL     1       2.900   0.025   6.134  0.00  0.00    +0.003 A 
ATOM     28  C   UNL     1       2.450  -1.177   6.648  0.00  0.00    +0.020 A 
ATOM     29  C   UNL     1       1.644  -2.002   5.883  0.00  0.00    +0.043 A 
ATOM     30  C   UNL     1       1.283  -1.623   4.604  0.00  0.00    +0.043 A 
ATOM     31 CL   UNL     1       1.082  -3.510   6.533  0.00  0.00    -0.083 Cl
ENDBRANCH  23  25
ENDBRANCH  20  21
ENDBRANCH  18  20
ENDBRANCH   1  18
TORSDOF 6
