REMARK  Name = ZINC39035004
REMARK  8 active torsions:
REMARK  status: ('A' for Active; 'I' for Inactive)
REMARK    1  A    between atoms: C_1  and  C_2
REMARK    2  A    between atoms: C_2  and  S_3
REMARK    3  A    between atoms: S_3  and  C_4
REMARK    4  A    between atoms: C_7  and  C_10
REMARK    5  A    between atoms: C_11  and  C_21
REMARK    6  A    between atoms: N_13  and  C_15
REMARK    7  A    between atoms: C_22  and  C_23
REMARK    8  A    between atoms: C_22  and  C_25
REMARK                            x       y       z     vdW  Elec       q    Type
REMARK                         _______ _______ _______ _____ _____    ______ ____
ROOT
ATOM      1  C   UNL     1      -0.507  -7.281  -1.088  0.00  0.00    +0.100 A 
ATOM      2  C   UNL     1      -0.233  -7.978  -2.350  0.00  0.00    +0.022 A 
ATOM      3  C   UNL     1      -0.424  -9.323  -2.102  0.00  0.00    +0.123 A 
ATOM      4  N   UNL     1      -0.784  -9.457  -0.812  0.00  0.00    -0.239 N 
ATOM      5  N   UNL     1      -0.825  -8.200  -0.203  0.00  0.00    -0.166 NA
ENDROOT
BRANCH   1   9
ATOM      6  C   UNL     1      -0.297  -3.087  -0.416  0.00  0.00    +0.008 A 
ATOM      7  C   UNL     1      -1.259  -3.849   0.241  0.00  0.00    +0.015 A 
ATOM      8  C   UNL     1      -1.329  -5.208   0.024  0.00  0.00    +0.011 A 
ATOM      9  C   UNL     1      -0.434  -5.820  -0.854  0.00  0.00    +0.003 A 
ATOM     10  C   UNL     1       0.529  -5.055  -1.512  0.00  0.00    +0.011 A 
ATOM     11  C   UNL     1       0.592  -3.695  -1.296  0.00  0.00    +0.015 A 
BRANCH   6  12
ATOM     12  S   UNL     1      -0.210  -1.350  -0.137  0.00  0.00    -0.125 S 
BRANCH  12  14
ATOM     13  C   UNL     1      -1.574   0.463   1.392  0.00  0.00    +0.015 C 
ATOM     14  C   UNL     1      -1.537  -1.030   1.058  0.00  0.00    +0.071 C 
ENDBRANCH  12  14
ENDBRANCH   6  12
ENDBRANCH   1   9
BRANCH   4  15
ATOM     15  C   UNL     1      -1.068 -10.672  -0.175  0.00  0.00    +0.065 A 
ATOM     16  C   UNL     1      -0.983 -11.864  -0.882  0.00  0.00    +0.028 A 
ATOM     17  C   UNL     1      -1.264 -13.060  -0.251  0.00  0.00    +0.002 A 
ATOM     18  C   UNL     1      -1.630 -13.072   1.083  0.00  0.00    +0.000 A 
ATOM     19  C   UNL     1      -1.715 -11.886   1.789  0.00  0.00    +0.002 A 
ATOM     20  C   UNL     1      -1.430 -10.687   1.166  0.00  0.00    +0.028 A 
ENDBRANCH   4  15
BRANCH   2  21
ATOM     21  C   UNL     1       0.166  -7.366  -3.624  0.00  0.00    +0.030 C 
ATOM     22  C   UNL     1       0.969  -8.041  -4.476  0.00  0.00    +0.072 C 
BRANCH  22  23
ATOM     23  C   UNL     1       1.612  -9.333  -4.041  0.00  0.00    +0.216 C 
ATOM     24  N   UNL     1       3.042  -9.321  -4.373  0.00  0.00    -0.359 N 
ATOM     25  C   UNL     1       3.261 -10.308  -5.193  0.00  0.00    +0.060 A 
ATOM     26  C   UNL     1       4.472 -10.800  -5.864  0.00  0.00    +0.027 A 
ATOM     27  C   UNL     1       4.393 -11.871  -6.678  0.00  0.00    +0.002 A 
ATOM     28  C   UNL     1       3.187 -12.552  -6.920  0.00  0.00    +0.002 A 
ATOM     29  C   UNL     1       2.019 -12.184  -6.356  0.00  0.00    +0.027 A 
ATOM     30  C   UNL     1       1.984 -11.029  -5.449  0.00  0.00    +0.060 A 
ATOM     31  N   UNL     1       1.025 -10.460  -4.777  0.00  0.00    -0.359 N 
ATOM     32  H   UNL     1       3.703  -8.692  -4.043  0.00  0.00    +0.162 HD
ATOM     33  H   UNL     1       0.094 -10.730  -4.765  0.00  0.00    +0.162 HD
ENDBRANCH  22  23
BRANCH  22  34
ATOM     34  C   UNL     1       1.210  -7.528  -5.791  0.00  0.00    +0.099 C 
ATOM     35  N   UNL     1       1.401  -7.122  -6.835  0.00  0.00    -0.191 NA
ENDBRANCH  22  34
ENDBRANCH   2  21
TORSDOF 7
