REMARK  Name = ZINC34787196
REMARK  12 active torsions:
REMARK  status: ('A' for Active; 'I' for Inactive)
REMARK    1  A    between atoms: C_1  and  C_2
REMARK    2  A    between atoms: C_4  and  C_37
REMARK    3  A    between atoms: C_11  and  C_17
REMARK    4  A    between atoms: C_12  and  C_16
REMARK    5  A    between atoms: N_18  and  N_19
REMARK    6  A    between atoms: N_18  and  N_28
REMARK    7  A    between atoms: N_19  and  C_20
REMARK    8  A    between atoms: C_23  and  O_26
REMARK    9  A    between atoms: O_26  and  C_27
REMARK   10  A    between atoms: N_28  and  C_29
REMARK   11  A    between atoms: C_32  and  O_35
REMARK   12  A    between atoms: O_35  and  C_36
REMARK                            x       y       z     vdW  Elec       q    Type
REMARK                         _______ _______ _______ _____ _____    ______ ____
ROOT
ATOM      1  C   UNL     1       4.771  -5.161  -0.664  0.00  0.00    +0.067 C 
ATOM      2  C   UNL     1       3.319  -5.404  -0.343  0.00  0.00    +0.061 A 
ATOM      3  C   UNL     1       2.294  -5.593  -1.277  0.00  0.00    +0.048 A 
ATOM      4  C   UNL     1       1.140  -5.780  -0.598  0.00  0.00    +0.045 A 
ATOM      5  N   UNL     1       1.428  -5.712   0.729  0.00  0.00    -0.202 N 
ATOM      6  N   UNL     1       2.803  -5.481   0.857  0.00  0.00    -0.169 NA
ATOM      7  C   UNL     1       0.516  -5.852   1.776  0.00  0.00    +0.254 A 
ATOM      8  N   UNL     1       0.945  -5.755   3.027  0.00  0.00    -0.192 NA
ATOM      9  C   UNL     1       0.130  -5.878   4.061  0.00  0.00    +0.170 A 
ATOM     10  C   UNL     1      -1.253  -6.122   3.831  0.00  0.00    +0.054 A 
ATOM     11  C   UNL     1      -2.336  -6.292   4.785  0.00  0.00    -0.028 A 
ATOM     12  C   UNL     1      -3.578  -6.515   4.332  0.00  0.00    -0.008 A 
ATOM     13  S   UNL     1      -3.382  -6.513   2.559  0.00  0.00    -0.073 S 
ATOM     14  C   UNL     1      -1.637  -6.213   2.475  0.00  0.00    +0.116 A 
ATOM     15  N   UNL     1      -0.759  -6.073   1.501  0.00  0.00    -0.203 NA
ATOM     16  C   UNL     1      -4.840  -6.720   5.130  0.00  0.00    +0.052 C 
ATOM     17  C   UNL     1      -2.067  -6.219   6.265  0.00  0.00    +0.045 C 
ATOM     18  N   UNL     1       0.616  -5.770   5.351  0.00  0.00    -0.151 N 
ATOM     19  C   UNL     1      -0.220  -6.021  -1.202  0.00  0.00    +0.066 C 
ENDROOT
BRANCH  18  20
ATOM     20  N   UNL     1       1.350  -4.640   5.732  0.00  0.00    -0.246 N 
ATOM     21  H   UNL     1       2.293  -4.723   5.942  0.00  0.00    +0.172 HD
BRANCH  20  22
ATOM     22  C   UNL     1       0.724  -3.391   5.807  0.00  0.00    +0.046 A 
ATOM     23  C   UNL     1      -0.608  -3.258   5.437  0.00  0.00    +0.028 A 
ATOM     24  C   UNL     1      -1.226  -2.026   5.513  0.00  0.00    +0.047 A 
ATOM     25  C   UNL     1      -0.517  -0.920   5.957  0.00  0.00    +0.120 A 
ATOM     26  C   UNL     1       0.814  -1.051   6.326  0.00  0.00    +0.047 A 
ATOM     27  C   UNL     1       1.431  -2.284   6.258  0.00  0.00    +0.028 A 
BRANCH  25  28
ATOM     28  O   UNL     1      -1.126   0.294   6.031  0.00  0.00    -0.495 OA
ATOM     29  C   UNL     1      -0.336   1.389   6.497  0.00  0.00    +0.277 C 
ENDBRANCH  25  28
ENDBRANCH  20  22
ENDBRANCH  18  20
BRANCH  18  30
ATOM     30  N   UNL     1       0.373  -6.792   6.278  0.00  0.00    -0.246 N 
ATOM     31  H   UNL     1      -0.233  -6.640   7.021  0.00  0.00    +0.172 HD
BRANCH  30  32
ATOM     32  C   UNL     1       1.005  -8.033   6.133  0.00  0.00    +0.046 A 
ATOM     33  C   UNL     1       1.960  -8.214   5.143  0.00  0.00    +0.028 A 
ATOM     34  C   UNL     1       2.583  -9.438   5.001  0.00  0.00    +0.047 A 
ATOM     35  C   UNL     1       2.254 -10.487   5.847  0.00  0.00    +0.120 A 
ATOM     36  C   UNL     1       1.299 -10.307   6.837  0.00  0.00    +0.047 A 
ATOM     37  C   UNL     1       0.680  -9.081   6.984  0.00  0.00    +0.028 A 
BRANCH  35  38
ATOM     38  O   UNL     1       2.868 -11.692   5.706  0.00  0.00    -0.495 OA
ATOM     39  C   UNL     1       2.481 -12.727   6.612  0.00  0.00    +0.277 C 
ENDBRANCH  35  38
ENDBRANCH  30  32
ENDBRANCH  18  30
TORSDOF 6
