REMARK  Name = ZINC05102202
REMARK  9 active torsions:
REMARK  status: ('A' for Active; 'I' for Inactive)
REMARK    1  A    between atoms: C_1  and  C_2
REMARK    2  A    between atoms: C_2  and  O_3
REMARK    3  A    between atoms: O_3  and  C_4
REMARK    4  A    between atoms: C_7  and  C_10
REMARK    5  A    between atoms: C_10  and  C_12
REMARK    6  A    between atoms: C_10  and  N_23
REMARK    7  A    between atoms: C_21  and  O_22
REMARK    8  A    between atoms: N_23  and  C_24
REMARK    9  A    between atoms: C_28  and  C_29
REMARK                            x       y       z     vdW  Elec       q    Type
REMARK                         _______ _______ _______ _____ _____    ______ ____
ROOT
ATOM      1  C   UNL     1      -0.422   2.823   5.881  0.00  0.00    +0.136 C 
ENDROOT
BRANCH   1   2
ATOM      2  C   UNL     1      -1.180   4.112   5.695  0.00  0.00    +0.021 A 
ATOM      3  C   UNL     1      -1.742   4.404   4.455  0.00  0.00    +0.010 A 
ATOM      4  C   UNL     1      -2.433   5.560   4.254  0.00  0.00    +0.010 A 
ATOM      5  C   UNL     1      -2.583   6.474   5.310  0.00  0.00    +0.004 A 
ATOM      6  C   UNL     1      -3.291   7.679   5.141  0.00  0.00    +0.011 A 
ATOM      7  C   UNL     1      -3.397   8.520   6.212  0.00  0.00    +0.020 A 
ATOM      8  C   UNL     1      -2.812   8.173   7.428  0.00  0.00    +0.111 A 
ATOM      9  N   UNL     1      -2.154   7.050   7.582  0.00  0.00    -0.251 NA
ATOM     10  C   UNL     1      -2.014   6.184   6.574  0.00  0.00    +0.113 A 
ATOM     11  C   UNL     1      -1.309   4.974   6.746  0.00  0.00    +0.148 A 
BRANCH  11  12
ATOM     12  O   UNL     1      -0.757   4.670   7.950  0.00  0.00    -0.504 OA
ATOM     13  H   UNL     1       0.150   4.987   8.059  0.00  0.00    +0.292 HD
ENDBRANCH  11  12
ENDBRANCH   1   2
BRANCH   1  17
ATOM     14  C   UNL     1      -3.052  -0.162   7.443  0.00  0.00    +0.121 A 
ATOM     15  C   UNL     1      -2.093   0.417   8.262  0.00  0.00    +0.046 A 
ATOM     16  C   UNL     1      -1.244   1.381   7.755  0.00  0.00    +0.009 A 
ATOM     17  C   UNL     1      -1.349   1.770   6.432  0.00  0.00    -0.023 A 
ATOM     18  C   UNL     1      -2.308   1.199   5.615  0.00  0.00    +0.009 A 
ATOM     19  C   UNL     1      -3.155   0.230   6.116  0.00  0.00    +0.046 A 
BRANCH  14  20
ATOM     20  O   UNL     1      -3.889  -1.110   7.940  0.00  0.00    -0.492 OA
BRANCH  20  22
ATOM     21  C   UNL     1      -5.696  -2.705   7.774  0.00  0.00    +0.048 C 
ATOM     22  C   UNL     1      -4.851  -1.662   7.040  0.00  0.00    +0.225 C 
ENDBRANCH  20  22
ENDBRANCH  14  20
ENDBRANCH   1  17
BRANCH   1  23
ATOM     23  N   UNL     1       0.110   2.378   4.590  0.00  0.00    -0.320 N 
ATOM     24  H   UNL     1      -0.398   1.757   4.045  0.00  0.00    +0.148 HD
BRANCH  23  25
ATOM     25  C   UNL     1       1.341   2.846   4.147  0.00  0.00    +0.097 A 
ATOM     26  C   UNL     1       2.005   3.831   4.872  0.00  0.00    +0.041 A 
ATOM     27  C   UNL     1       3.230   4.288   4.420  0.00  0.00    +0.005 A 
ATOM     28  C   UNL     1       3.754   3.738   3.257  0.00  0.00    +0.021 A 
ATOM     29  C   UNL     1       3.038   2.768   2.585  0.00  0.00    +0.014 A 
ATOM     30  C   UNL     1       3.599   2.173   1.319  0.00  0.00    +0.063 C 
ATOM     31  N   UNL     1       1.833   2.295   3.000  0.00  0.00    -0.347 N 
ATOM     32  H   UNL     1       1.324   1.569   2.482  0.00  0.00    +0.167 HD
ENDBRANCH  23  25
ENDBRANCH   1  23
TORSDOF 7
