REMARK  Name = ZINC15670040
REMARK  6 active torsions:
REMARK  status: ('A' for Active; 'I' for Inactive)
REMARK    1  A    between atoms: C_1  and  C_2
REMARK    2  A    between atoms: C_6  and  C_26
REMARK    3  A    between atoms: C_7  and  N_8
REMARK    4  A    between atoms: N_8  and  C_9
REMARK    5  A    between atoms: C_9  and  C_10
REMARK    6  A    between atoms: C_18  and  C_20
REMARK                            x       y       z     vdW  Elec       q    Type
REMARK                         _______ _______ _______ _____ _____    ______ ____
ROOT
ATOM      1  C   UNL     1       1.938  -0.470   4.578  0.00  0.00    +0.067 A 
ATOM      2  C   UNL     1       1.929  -0.950   5.887  0.00  0.00    +0.097 A 
ATOM      3  C   UNL     1       2.595  -0.252   6.857  0.00  0.00    +0.276 A 
ATOM      4  O   UNL     1       2.605  -0.692   8.136  0.00  0.00    -0.266 OA
ATOM      5  N   UNL     1       3.250   0.894   6.514  0.00  0.00    -0.159 N 
ATOM      6  C   UNL     1       3.236   1.331   5.218  0.00  0.00    +0.257 A 
ATOM      7  N   UNL     1       2.584   0.636   4.278  0.00  0.00    -0.214 NA
ATOM      8  N   UNL     1       3.943   2.454   5.171  0.00  0.00    -0.189 NA
ATOM      9  C   UNL     1       4.405   2.745   6.389  0.00  0.00    +0.184 A 
ATOM     10  N   UNL     1       4.008   1.821   7.240  0.00  0.00    -0.140 NA
ENDROOT
BRANCH   9  11
ATOM     11  C   UNL     1       5.238   3.925   6.730  0.00  0.00    +0.021 A 
ATOM     12  C   UNL     1       5.669   4.122   8.040  0.00  0.00    +0.011 A 
ATOM     13  C   UNL     1       6.443   5.221   8.352  0.00  0.00    +0.001 A 
ATOM     14  C   UNL     1       6.792   6.126   7.367  0.00  0.00    +0.000 A 
ATOM     15  C   UNL     1       6.367   5.936   6.064  0.00  0.00    +0.001 A 
ATOM     16  C   UNL     1       5.597   4.838   5.740  0.00  0.00    +0.011 A 
ENDBRANCH   9  11
BRANCH   1  17
ATOM     17  C   UNL     1       1.210  -1.228   3.498  0.00  0.00    +0.157 C 
BRANCH  17  18
ATOM     18  N   UNL     1       1.372  -0.533   2.219  0.00  0.00    -0.338 N 
ATOM     19  H   UNL     1       1.999   0.204   2.143  0.00  0.00    +0.146 HD
BRANCH  18  26
ATOM     20  C   UNL     1       0.797   1.412   0.223  0.00  0.00    +0.045 C 
ATOM     21  C   UNL     1       0.320  -0.013   0.110  0.00  0.00    -0.029 A 
ATOM     22  C   UNL     1      -0.415  -0.410  -0.990  0.00  0.00    +0.005 A 
ATOM     23  C   UNL     1      -0.854  -1.718  -1.095  0.00  0.00    +0.001 A 
ATOM     24  C   UNL     1      -0.557  -2.632  -0.100  0.00  0.00    +0.005 A 
ATOM     25  C   UNL     1       0.178  -2.241   1.002  0.00  0.00    -0.029 A 
ATOM     26  C   UNL     1       0.624  -0.930   1.108  0.00  0.00    +0.033 A 
ATOM     27  C   UNL     1       0.500  -3.238   2.086  0.00  0.00    +0.045 C 
ENDBRANCH  18  26
ENDBRANCH  17  18
ENDBRANCH   1  17
TORSDOF 4
