REMARK  Name = ZINC40815988
REMARK  7 active torsions:
REMARK  status: ('A' for Active; 'I' for Inactive)
REMARK    1  A    between atoms: C_1  and  C_2
REMARK    2  A    between atoms: C_6  and  C_7
REMARK    3  A    between atoms: N_12  and  C_15
REMARK    4  A    between atoms: N_26  and  N_27
REMARK    5  A    between atoms: C_28  and  C_30
REMARK    6  A    between atoms: C_30  and  O_31
REMARK    7  A    between atoms: O_31  and  C_32
REMARK                            x       y       z     vdW  Elec       q    Type
REMARK                         _______ _______ _______ _____ _____    ______ ____
ROOT
ATOM      1  C   UNL     1       0.543   1.437   0.013  0.00  0.00    +0.048 C 
ATOM      2  C   UNL     1       0.189  -0.028   0.003  0.00  0.00    +0.009 A 
ATOM      3  C   UNL     1       0.028  -0.846  -1.122  0.00  0.00    +0.042 A 
ATOM      4  C   UNL     1      -0.292  -2.105  -0.674  0.00  0.00    +0.115 A 
ATOM      5  O   UNL     1      -0.325  -2.073   0.656  0.00  0.00    -0.454 OA
ATOM      6  C   UNL     1      -0.033  -0.825   1.091  0.00  0.00    +0.193 A 
ATOM      7  C   UNL     1      -0.549  -3.266  -1.601  0.00  0.00    +0.075 C 
ATOM      8  C   UNL     1      -0.904  -2.735  -2.993  0.00  0.00    +0.014 C 
ATOM      9  C   UNL     1       0.163  -1.750  -3.484  0.00  0.00    +0.058 C 
ATOM     10  C   UNL     1       0.151  -0.538  -2.564  0.00  0.00    +0.070 C 
ATOM     11  N   UNL     1       0.243   0.676  -3.011  0.00  0.00    -0.184 NA
ENDROOT
BRANCH   6  12
ATOM     12  C   UNL     1       0.031  -0.400   2.493  0.00  0.00    +0.282 C 
ATOM     13  O   UNL     1       0.156   0.780   2.766  0.00  0.00    -0.267 OA
ATOM     14  N   UNL     1      -0.049  -1.315   3.480  0.00  0.00    -0.292 N 
ATOM     15  C   UNL     1      -0.026  -2.751   3.171  0.00  0.00    +0.127 C 
ATOM     16  C   UNL     1       1.108  -3.406   3.970  0.00  0.00    +0.124 C 
ATOM     17  N   UNL     1       0.998  -2.985   5.373  0.00  0.00    -0.325 N 
ATOM     18  C   UNL     1       0.975  -1.549   5.682  0.00  0.00    +0.124 C 
ATOM     19  C   UNL     1      -0.153  -0.893   4.884  0.00  0.00    +0.127 C 
BRANCH  17  20
ATOM     20  C   UNL     1       0.915  -3.935   6.397  0.00  0.00    +0.065 A 
ATOM     21  C   UNL     1       2.072  -4.405   7.004  0.00  0.00    +0.026 A 
ATOM     22  C   UNL     1       1.987  -5.342   8.015  0.00  0.00    +0.002 A 
ATOM     23  C   UNL     1       0.753  -5.814   8.423  0.00  0.00    +0.003 A 
ATOM     24  C   UNL     1      -0.402  -5.349   7.821  0.00  0.00    +0.040 A 
ATOM     25  C   UNL     1      -0.326  -4.406   6.812  0.00  0.00    +0.144 A 
ATOM     26  F   UNL     1      -1.454  -3.947   6.228  0.00  0.00    -0.204 F 
ENDBRANCH  17  20
ENDBRANCH   6  12
BRANCH  11  27
ATOM     27  N   UNL     1       0.358   0.909  -4.388  0.00  0.00    -0.204 N 
ATOM     28  C   UNL     1       0.454   2.170  -4.853  0.00  0.00    +0.270 C 
ATOM     29  O   UNL     1       0.441   3.104  -4.079  0.00  0.00    -0.270 OA
ATOM     30  H   UNL     1       0.369   0.162  -5.007  0.00  0.00    +0.177 HD
BRANCH  28  31
ATOM     31  C   UNL     1       0.578   2.420  -6.334  0.00  0.00    +0.326 C 
BRANCH  31  32
ATOM     32  O   UNL     1       0.664   3.826  -6.574  0.00  0.00    -0.483 OA
BRANCH  32  33
ATOM     33  C   UNL     1       0.781   4.225  -7.868  0.00  0.00    +0.121 A 
ATOM     34  C   UNL     1       0.806   3.283  -8.886  0.00  0.00    +0.045 A 
ATOM     35  C   UNL     1       0.925   3.691 -10.201  0.00  0.00    +0.004 A 
ATOM     36  C   UNL     1       1.018   5.037 -10.502  0.00  0.00    +0.000 A 
ATOM     37  C   UNL     1       0.993   5.978  -9.489  0.00  0.00    +0.004 A 
ATOM     38  C   UNL     1       0.868   5.575  -8.174  0.00  0.00    +0.045 A 
ENDBRANCH  32  33
ENDBRANCH  31  32
ENDBRANCH  28  31
ENDBRANCH  11  27
TORSDOF 6
