REMARK  Name = ZINC00730097
REMARK  12 active torsions:
REMARK  status: ('A' for Active; 'I' for Inactive)
REMARK    1  A    between atoms: C_1  and  C_2
REMARK    2  A    between atoms: C_2  and  C_4
REMARK    3  A    between atoms: C_4  and  N_5
REMARK    4  A    between atoms: C_6  and  C_24
REMARK    5  A    between atoms: C_9  and  S_10
REMARK    6  A    between atoms: S_10  and  C_11
REMARK    7  A    between atoms: C_11  and  C_12
REMARK    8  A    between atoms: N_14  and  N_15
REMARK    9  A    between atoms: C_16  and  C_17
REMARK   10  A    between atoms: C_22  and  O_23
REMARK   11  A    between atoms: C_24  and  C_25
REMARK   12  A    between atoms: C_25  and  N_26
REMARK                            x       y       z     vdW  Elec       q    Type
REMARK                         _______ _______ _______ _____ _____    ______ ____
ROOT
ATOM      1  N   UNL     1     -11.457   1.136  -0.000  0.00  0.00    -0.302 N 
ATOM      2  C   UNL     1     -12.247   0.020  -0.009  0.00  0.00    +0.136 A 
ATOM      3  N   UNL     1     -11.455  -1.015  -0.011  0.00  0.00    -0.133 NA
ATOM      4  N   UNL     1     -10.229  -0.632  -0.010  0.00  0.00    -0.122 NA
ATOM      5  C   UNL     1     -10.171   0.679   0.002  0.00  0.00    +0.192 A 
ENDROOT
BRANCH   1   6
ATOM      6  C   UNL     1     -11.900   2.533   0.005  0.00  0.00    +0.155 C 
BRANCH   6   8
ATOM      7  C   UNL     1     -10.743   3.592  -2.081  0.00  0.00    +0.040 C 
ATOM      8  C   UNL     1     -11.975   3.041  -1.411  0.00  0.00    -0.060 C 
ATOM      9  C   UNL     1     -13.112   3.004  -2.061  0.00  0.00    +0.009 C 
ENDBRANCH   6   8
ENDBRANCH   1   6
BRANCH   5  10
ATOM     10  S   UNL     1      -8.709   1.663   0.011  0.00  0.00    -0.077 S 
BRANCH  10  11
ATOM     11  C   UNL     1      -7.453   0.360   0.010  0.00  0.00    +0.174 C 
BRANCH  11  12
ATOM     12  C   UNL     1      -6.081   0.985   0.017  0.00  0.00    +0.242 C 
ATOM     13  O   UNL     1      -5.965   2.192   0.023  0.00  0.00    -0.273 OA
ATOM     14  N   UNL     1      -4.984   0.202   0.018  0.00  0.00    -0.206 N 
ATOM     15  H   UNL     1      -5.077  -0.763   0.013  0.00  0.00    +0.177 HD
BRANCH  14  16
ATOM     16  N   UNL     1      -3.709   0.783   0.025  0.00  0.00    -0.188 NA
ATOM     17  C   UNL     1      -2.653   0.029   0.025  0.00  0.00    +0.142 C 
BRANCH  17  18
ATOM     18  C   UNL     1      -1.312   0.640   0.032  0.00  0.00    +0.036 A 
ATOM     19  C   UNL     1      -0.172  -0.168   0.032  0.00  0.00    +0.013 A 
ATOM     20  C   UNL     1       1.080   0.410   0.034  0.00  0.00    +0.001 A 
ATOM     21  C   UNL     1       1.213   1.788   0.040  0.00  0.00    +0.004 A 
ATOM     22  C   UNL     1       0.093   2.598   0.045  0.00  0.00    +0.046 A 
ATOM     23  C   UNL     1      -1.173   2.034   0.044  0.00  0.00    +0.125 A 
BRANCH  23  24
ATOM     24  O   UNL     1      -2.273   2.829   0.050  0.00  0.00    -0.506 OA
ATOM     25  H   UNL     1      -2.593   3.064  -0.832  0.00  0.00    +0.292 HD
ENDBRANCH  23  24
ENDBRANCH  17  18
ENDBRANCH  14  16
ENDBRANCH  11  12
ENDBRANCH  10  11
ENDBRANCH   5  10
BRANCH   2  26
ATOM     26  C   UNL     1     -13.754  -0.009  -0.014  0.00  0.00    +0.098 C 
BRANCH  26  27
ATOM     27  C   UNL     1     -14.266  -0.153   1.420  0.00  0.00    +0.130 C 
BRANCH  27  28
ATOM     28  N   UNL     1     -15.724  -0.299   1.405  0.00  0.00    -0.339 N 
ATOM     29  C   UNL     1     -16.624   0.752   1.391  0.00  0.00    +0.050 A 
ATOM     30  C   UNL     1     -16.452   2.133   1.374  0.00  0.00    +0.026 A 
ATOM     31  C   UNL     1     -17.550   2.965   1.354  0.00  0.00    +0.002 A 
ATOM     32  C   UNL     1     -18.833   2.439   1.345  0.00  0.00    +0.001 A 
ATOM     33  C   UNL     1     -19.024   1.075   1.357  0.00  0.00    +0.010 A 
ATOM     34  C   UNL     1     -17.923   0.222   1.377  0.00  0.00    +0.008 A 
ATOM     35  C   UNL     1     -17.776  -1.245   1.393  0.00  0.00    +0.008 A 
ATOM     36  C   UNL     1     -16.398  -1.507   1.410  0.00  0.00    +0.050 A 
ATOM     37  C   UNL     1     -15.956  -2.826   1.427  0.00  0.00    +0.026 A 
ATOM     38  C   UNL     1     -16.868  -3.860   1.427  0.00  0.00    +0.002 A 
ATOM     39  C   UNL     1     -18.229  -3.599   1.410  0.00  0.00    +0.001 A 
ATOM     40  C   UNL     1     -18.687  -2.299   1.393  0.00  0.00    +0.010 A 
ENDBRANCH  27  28
ENDBRANCH  26  27
ENDBRANCH   2  26
TORSDOF 11
