REMARK  Name = ZINC09705828
REMARK  10 active torsions:
REMARK  status: ('A' for Active; 'I' for Inactive)
REMARK    1  A    between atoms: C_1  and  C_2
REMARK    2  A    between atoms: C_7  and  N_8
REMARK    3  A    between atoms: C_9  and  C_11
REMARK    4  A    between atoms: C_12  and  N_20
REMARK    5  A    between atoms: C_21  and  C_23
REMARK    6  A    between atoms: N_25  and  C_26
REMARK    7  A    between atoms: C_26  and  C_28
REMARK    8  A    between atoms: C_26  and  C_29
REMARK    9  A    between atoms: C_29  and  O_30
REMARK   10  A    between atoms: O_30  and  C_31
REMARK                            x       y       z     vdW  Elec       q    Type
REMARK                         _______ _______ _______ _____ _____    ______ ____
ROOT
ATOM      1  C   UNL     1       3.958  -5.419   3.703  0.00  0.00    +0.212 A 
ATOM      2  C   UNL     1       3.980  -5.926   2.432  0.00  0.00    +0.093 A 
ATOM      3  C   UNL     1       4.858  -7.101   2.484  0.00  0.00    +0.042 A 
ATOM      4  C   UNL     1       5.292  -8.031   1.539  0.00  0.00    +0.013 A 
ATOM      5  C   UNL     1       6.141  -9.034   1.915  0.00  0.00    +0.001 A 
ATOM      6  C   UNL     1       6.578  -9.129   3.229  0.00  0.00    +0.004 A 
ATOM      7  C   UNL     1       6.165  -8.217   4.175  0.00  0.00    +0.047 A 
ATOM      8  C   UNL     1       5.302  -7.188   3.815  0.00  0.00    +0.138 A 
ATOM      9  O   UNL     1       4.742  -6.174   4.504  0.00  0.00    -0.448 OA
ENDROOT
BRANCH   1  11
ATOM     10  N   UNL     1       3.337  -3.773   5.385  0.00  0.00    -0.279 N 
ATOM     11  C   UNL     1       3.204  -4.241   4.128  0.00  0.00    +0.285 C 
ATOM     12  O   UNL     1       2.454  -3.683   3.347  0.00  0.00    -0.266 OA
ATOM     13  H   UNL     1       3.873  -4.261   6.030  0.00  0.00    +0.155 HD
BRANCH  10  20
ATOM     14  C   UNL     1       2.756  -3.370   8.141  0.00  0.00    +0.045 C 
ATOM     15  C   UNL     1       2.401  -2.347   7.094  0.00  0.00    -0.029 A 
ATOM     16  C   UNL     1       1.775  -1.171   7.460  0.00  0.00    +0.005 A 
ATOM     17  C   UNL     1       1.449  -0.231   6.500  0.00  0.00    +0.000 A 
ATOM     18  C   UNL     1       1.749  -0.464   5.170  0.00  0.00    +0.002 A 
ATOM     19  C   UNL     1       2.380  -1.635   4.798  0.00  0.00    +0.023 A 
ATOM     20  C   UNL     1       2.703  -2.584   5.759  0.00  0.00    +0.037 A 
ENDBRANCH  10  20
ENDBRANCH   1  11
BRANCH   2  21
ATOM     21  N   UNL     1       3.306  -5.434   1.323  0.00  0.00    -0.274 N 
ATOM     22  C   UNL     1       3.788  -5.663   0.085  0.00  0.00    +0.303 C 
ATOM     23  O   UNL     1       4.845  -6.241  -0.057  0.00  0.00    -0.265 OA
ATOM     24  H   UNL     1       2.488  -4.925   1.439  0.00  0.00    +0.155 HD
BRANCH  22  25
ATOM     25  C   UNL     1       3.020  -5.205  -1.111  0.00  0.00    +0.300 C 
ATOM     26  O   UNL     1       1.962  -4.628  -0.969  0.00  0.00    -0.265 OA
ATOM     27  N   UNL     1       3.502  -5.434  -2.349  0.00  0.00    -0.303 N 
ATOM     28  H   UNL     1       4.347  -5.896  -2.463  0.00  0.00    +0.150 HD
BRANCH  27  29
ATOM     29  C   UNL     1       2.748  -4.986  -3.523  0.00  0.00    +0.096 C 
ATOM     30  C   UNL     1       3.090  -3.524  -3.819  0.00  0.00    +0.030 C 
BRANCH  29  31
ATOM     31  C   UNL     1       3.120  -5.851  -4.728  0.00  0.00    +0.181 C 
BRANCH  31  32
ATOM     32  O   UNL     1       4.495  -5.642  -5.059  0.00  0.00    -0.381 OA
ATOM     33  C   UNL     1       4.946  -6.408  -6.178  0.00  0.00    +0.194 C 
ENDBRANCH  31  32
ENDBRANCH  29  31
ENDBRANCH  27  29
ENDBRANCH  22  25
ENDBRANCH   2  21
TORSDOF 7
