REMARK  Name = ZINC67532848
REMARK  8 active torsions:
REMARK  status: ('A' for Active; 'I' for Inactive)
REMARK    1  A    between atoms: C_1  and  C_2
REMARK    2  A    between atoms: C_2  and  C_3
REMARK    3  A    between atoms: C_3  and  N_4
REMARK    4  A    between atoms: C_10  and  N_13
REMARK    5  A    between atoms: C_14  and  C_16
REMARK    6  A    between atoms: N_18  and  C_19
REMARK    7  A    between atoms: N_18  and  C_26
REMARK    8  A    between atoms: C_19  and  C_20
REMARK                            x       y       z     vdW  Elec       q    Type
REMARK                         _______ _______ _______ _____ _____    ______ ____
ROOT
ATOM      1  N   UNL     1       2.546  -5.123   3.971  0.00  0.00    -0.278 N 
ATOM      2  C   UNL     1       3.002  -6.008   4.879  0.00  0.00    +0.303 C 
ATOM      3  O   UNL     1       2.312  -6.951   5.209  0.00  0.00    -0.265 OA
ATOM      4  H   UNL     1       3.127  -4.417   3.647  0.00  0.00    +0.155 HD
ENDROOT
BRANCH   1  11
ATOM      5  N   UNL     1       0.944  -4.051  -0.040  0.00  0.00    +0.385 N 
ATOM      6  C   UNL     1      -0.459  -4.144   0.426  0.00  0.00    -0.042 C 
ATOM      7  C   UNL     1      -0.394  -4.796   1.788  0.00  0.00    -0.061 A 
ATOM      8  C   UNL     1      -1.360  -5.417   2.558  0.00  0.00    +0.002 A 
ATOM      9  C   UNL     1      -1.033  -5.940   3.795  0.00  0.00    +0.002 A 
ATOM     10  C   UNL     1       0.262  -5.845   4.267  0.00  0.00    +0.023 A 
ATOM     11  C   UNL     1       1.236  -5.221   3.497  0.00  0.00    +0.035 A 
ATOM     12  C   UNL     1       0.904  -4.697   2.255  0.00  0.00    -0.041 A 
ATOM     13  C   UNL     1       1.729  -3.977   1.213  0.00  0.00    -0.040 C 
ATOM     14  H   UNL     1       1.198  -4.871  -0.570  0.00  0.00    -0.081 HD
BRANCH   5  15
ATOM     15  C   UNL     1       1.140  -2.837  -0.844  0.00  0.00    -0.078 C 
BRANCH  15  17
ATOM     16  C   UNL     1       0.625  -1.727  -3.022  0.00  0.00    +0.002 C 
ATOM     17  C   UNL     1       0.420  -2.991  -2.185  0.00  0.00    -0.022 C 
ENDBRANCH  15  17
ENDBRANCH   5  15
ENDBRANCH   1  11
BRANCH   2  18
ATOM     18  C   UNL     1       4.358  -5.830   5.480  0.00  0.00    +0.302 C 
ATOM     19  O   UNL     1       5.008  -4.837   5.227  0.00  0.00    -0.265 OA
ATOM     20  N   UNL     1       4.859  -6.772   6.304  0.00  0.00    -0.290 N 
BRANCH  20  21
ATOM     21  C   UNL     1       6.221  -6.639   6.827  0.00  0.00    +0.077 C 
ATOM     22  C   UNL     1       6.875  -5.258   6.749  0.00  0.00    +0.024 C 
ATOM     23  C   UNL     1       7.342  -6.378   5.818  0.00  0.00    +0.024 C 
ENDBRANCH  20  21
BRANCH  20  24
ATOM     24  C   UNL     1       4.042  -7.929   6.677  0.00  0.00    +0.112 C 
BRANCH  24  25
ATOM     25  C   UNL     1       4.375  -9.106   5.757  0.00  0.00    +0.006 C 
ATOM     26  C   UNL     1       4.071  -8.723   4.308  0.00  0.00    +0.005 C 
ATOM     27  C   UNL     1       4.404  -9.900   3.389  0.00  0.00    +0.000 C 
ATOM     28  C   UNL     1       3.557 -11.111   3.784  0.00  0.00    +0.000 C 
ATOM     29  C   UNL     1       3.861 -11.495   5.234  0.00  0.00    +0.000 C 
ATOM     30  C   UNL     1       3.528 -10.318   6.153  0.00  0.00    +0.005 C 
ENDBRANCH  24  25
ENDBRANCH  20  24
ENDBRANCH   2  18
TORSDOF 7
