REMARK  Name = ZINC06016790
REMARK  7 active torsions:
REMARK  status: ('A' for Active; 'I' for Inactive)
REMARK    1  A    between atoms: C_1  and  C_2
REMARK    2  A    between atoms: C_7  and  S_10
REMARK    3  A    between atoms: S_10  and  C_11
REMARK    4  A    between atoms: C_11  and  C_12
REMARK    5  A    between atoms: C_16  and  C_25
REMARK    6  A    between atoms: C_21  and  C_23
REMARK    7  A    between atoms: C_21  and  C_24
REMARK                            x       y       z     vdW  Elec       q    Type
REMARK                         _______ _______ _______ _____ _____    ______ ____
ROOT
ATOM      1  C   UNL     1      -3.533   5.596  -5.844  0.00  0.00    +0.226 C 
ATOM      2  O   UNL     1      -4.032   4.898  -6.701  0.00  0.00    -0.275 OA
ATOM      3  N   UNL     1      -3.607   6.939  -5.941  0.00  0.00    -0.297 N 
ATOM      4  C   UNL     1      -3.037   7.903  -4.988  0.00  0.00    +0.114 C 
ATOM      5  C   UNL     1      -3.427   9.308  -5.503  0.00  0.00    -0.014 C 
ATOM      6  C   UNL     1      -3.551   9.074  -7.032  0.00  0.00    +0.030 C 
ATOM      7  C   UNL     1      -4.259   7.696  -7.028  0.00  0.00    +0.077 C 
ATOM      8  C   UNL     1      -5.721   7.940  -6.662  0.00  0.00    +0.029 C 
ATOM      9  C   UNL     1      -5.912   8.683  -5.352  0.00  0.00    -0.033 C 
ATOM     10  C   UNL     1      -4.816   9.662  -4.977  0.00  0.00    +0.014 C 
ATOM     11  C   UNL     1      -7.228   9.492  -5.473  0.00  0.00    +0.011 C 
ATOM     12  C   UNL     1      -6.127   7.676  -4.212  0.00  0.00    +0.011 C 
ATOM     13  C   UNL     1      -2.372  10.370  -5.156  0.00  0.00    +0.013 C 
ENDROOT
BRANCH   1  14
ATOM     14  C   UNL     1      -2.830   4.963  -4.671  0.00  0.00    +0.173 C 
BRANCH  14  15
ATOM     15  S   UNL     1      -2.901   3.157  -4.827  0.00  0.00    -0.077 S 
BRANCH  15  22
ATOM     16  C   UNL     1      -0.013   1.086   0.008  0.00  0.00    +0.073 C 
ATOM     17  C   UNL     1      -0.742   1.585  -1.213  0.00  0.00    +0.124 A 
ATOM     18  C   UNL     1      -0.899   3.022  -1.451  0.00  0.00    +0.295 A 
ATOM     19  O   UNL     1      -0.439   3.831  -0.659  0.00  0.00    -0.264 OA
ATOM     20  N   UNL     1      -1.550   3.441  -2.542  0.00  0.00    -0.182 NA
ATOM     21  H   UNL     1      -2.291   0.614  -3.848  0.00  0.00    +0.191 HD
ATOM     22  C   UNL     1      -2.049   2.572  -3.400  0.00  0.00    +0.187 A 
ATOM     23  N   UNL     1      -1.916   1.235  -3.203  0.00  0.00    -0.255 N 
ATOM     24  N   UNL     1      -1.239   0.744  -2.079  0.00  0.00    -0.172 NA
ENDBRANCH  15  22
ENDBRANCH  14  15
ENDBRANCH   1  14
TORSDOF 3
