REMARK  Name = ZINC10022919
REMARK  8 active torsions:
REMARK  status: ('A' for Active; 'I' for Inactive)
REMARK    1  A    between atoms: C_1  and  C_2
REMARK    2  A    between atoms: C_12  and  C_14
REMARK    3  A    between atoms: C_14  and  C_16
REMARK    4  A    between atoms: C_14  and  N_17
REMARK    5  A    between atoms: N_17  and  S_18
REMARK    6  A    between atoms: S_18  and  C_21
REMARK    7  A    between atoms: C_24  and  N_27
REMARK    8  A    between atoms: C_28  and  C_30
REMARK                            x       y       z     vdW  Elec       q    Type
REMARK                         _______ _______ _______ _____ _____    ______ ____
ROOT
ATOM      1  C   UNL     1      -4.932   4.567   2.759  0.00  0.00    +0.159 C 
ATOM      2  C   UNL     1      -3.779   3.854   3.467  0.00  0.00    +0.035 C 
ENDROOT
BRANCH   1  13
ATOM      3  C   UNL     1      -9.697   9.863   9.806  0.00  0.00    +0.008 C 
ATOM      4  C   UNL     1      -9.210   9.207   8.513  0.00  0.00    -0.009 C 
ATOM      5  C   UNL     1      -9.727   7.768   8.440  0.00  0.00    +0.010 C 
ATOM      6  C   UNL     1      -9.459   7.183   7.052  0.00  0.00    +0.056 C 
ATOM      7  C   UNL     1      -7.982   7.362   6.721  0.00  0.00    +0.054 A 
ATOM      8  C   UNL     1      -7.234   8.270   7.400  0.00  0.00    +0.015 A 
ATOM      9  S   UNL     1      -5.635   8.091   6.656  0.00  0.00    -0.057 S 
ATOM     10  C   UNL     1      -6.067   6.848   5.520  0.00  0.00    +0.165 A 
ATOM     11  N   UNL     1      -7.347   6.672   5.777  0.00  0.00    -0.229 NA
ATOM     12  N   UNL     1      -5.269   6.209   4.578  0.00  0.00    -0.263 N 
ATOM     13  C   UNL     1      -5.798   5.260   3.780  0.00  0.00    +0.237 C 
ATOM     14  O   UNL     1      -6.969   4.964   3.883  0.00  0.00    -0.274 OA
ATOM     15  C   UNL     1      -7.673   9.182   8.495  0.00  0.00    +0.047 C 
ATOM     16  H   UNL     1      -4.332   6.446   4.495  0.00  0.00    +0.157 HD
ENDBRANCH   1  13
BRANCH   1  17
ATOM     17  N   UNL     1      -5.734   3.587   2.024  0.00  0.00    -0.178 NA
ATOM     18  H   UNL     1      -6.439   3.098   2.478  0.00  0.00    +0.149 HD
BRANCH  17  19
ATOM     19  S   UNL     1      -5.439   3.312   0.417  0.00  0.00    +0.059 S 
ATOM     20  O   UNL     1      -5.379   4.587  -0.208  0.00  0.00    -0.153 OA
ATOM     21  O   UNL     1      -6.350   2.303   0.004  0.00  0.00    -0.153 OA
BRANCH  19  22
ATOM     22  C   UNL     1      -3.826   2.615   0.296  0.00  0.00    +0.105 A 
ATOM     23  C   UNL     1      -3.662   1.243   0.350  0.00  0.00    +0.030 A 
ATOM     24  C   UNL     1      -2.398   0.693   0.255  0.00  0.00    +0.025 A 
ATOM     25  C   UNL     1      -1.292   1.520   0.104  0.00  0.00    +0.033 A 
ATOM     26  C   UNL     1      -1.460   2.897   0.056  0.00  0.00    +0.025 A 
ATOM     27  C   UNL     1      -2.727   3.441   0.146  0.00  0.00    +0.030 A 
BRANCH  25  28
ATOM     28  N   UNL     1      -0.011   0.966   0.007  0.00  0.00    -0.286 N 
ATOM     29  C   UNL     1       0.924   1.561  -0.759  0.00  0.00    +0.214 C 
ATOM     30  O   UNL     1       0.631   2.523  -1.436  0.00  0.00    -0.276 OA
ATOM     31  C   UNL     1       2.335   1.032  -0.773  0.00  0.00    +0.109 C 
ATOM     32  H   UNL     1       0.203   0.151   0.488  0.00  0.00    +0.155 HD
ENDBRANCH  25  28
ENDBRANCH  19  22
ENDBRANCH  17  19
ENDBRANCH   1  17
TORSDOF 5
