REMARK  Name = ZINC28975517
REMARK  6 active torsions:
REMARK  status: ('A' for Active; 'I' for Inactive)
REMARK    1  A    between atoms: C_1  and  C_2
REMARK    2  A    between atoms: C_5  and  N_9
REMARK    3  A    between atoms: C_13  and  C_14
REMARK    4  A    between atoms: C_17  and  O_21
REMARK    5  A    between atoms: C_18  and  O_20
REMARK    6  A    between atoms: O_21  and  C_22
REMARK                            x       y       z     vdW  Elec       q    Type
REMARK                         _______ _______ _______ _____ _____    ______ ____
ROOT
ATOM      1  N   UNL     1       4.273  -2.217   7.050  0.00  0.00    -0.224 N 
ATOM      2  C   UNL     1       3.335  -1.323   7.312  0.00  0.00    +0.263 C 
ATOM      3  O   UNL     1       3.048  -1.013   8.453  0.00  0.00    -0.269 OA
ATOM      4  C   UNL     1       2.649  -0.724   6.150  0.00  0.00    +0.078 C 
ATOM      5  C   UNL     1       1.658   0.203   6.113  0.00  0.00    +0.028 C 
ATOM      6  S   UNL     1       3.488  -1.549   4.804  0.00  0.00    -0.061 S 
ATOM      7  C   UNL     1       4.592  -2.553   5.783  0.00  0.00    +0.125 C 
ATOM      8  S   UNL     1       5.771  -3.673   5.245  0.00  0.00    -0.027 S 
ENDROOT
BRANCH   1  13
ATOM      9  C   UNL     1       7.046  -4.673  11.352  0.00  0.00    +0.047 C 
ATOM     10  C   UNL     1       6.309  -4.021  10.210  0.00  0.00    -0.015 A 
ATOM     11  C   UNL     1       6.958  -3.104   9.404  0.00  0.00    +0.008 A 
ATOM     12  C   UNL     1       6.286  -2.505   8.357  0.00  0.00    +0.024 A 
ATOM     13  C   UNL     1       4.957  -2.824   8.112  0.00  0.00    +0.045 A 
ATOM     14  C   UNL     1       4.304  -3.740   8.925  0.00  0.00    +0.062 A 
ATOM     15  C   UNL     1       4.984  -4.342   9.969  0.00  0.00    +0.128 A 
ATOM     16  F   UNL     1       4.352  -5.239  10.758  0.00  0.00    -0.205 F 
ENDBRANCH   1  13
BRANCH   5  17
ATOM     17  C   UNL     1       1.015   0.540   4.837  0.00  0.00    -0.020 A 
ATOM     18  C   UNL     1       1.290  -0.215   3.690  0.00  0.00    +0.012 A 
ATOM     19  C   UNL     1       0.686   0.104   2.494  0.00  0.00    +0.050 A 
ATOM     20  C   UNL     1      -0.197   1.174   2.422  0.00  0.00    +0.161 A 
ATOM     21  C   UNL     1      -0.473   1.934   3.558  0.00  0.00    +0.159 A 
ATOM     22  C   UNL     1       0.124   1.618   4.762  0.00  0.00    +0.057 A 
BRANCH  21  23
ATOM     23  O   UNL     1      -1.333   2.984   3.480  0.00  0.00    -0.503 OA
ATOM     24  H   UNL     1      -1.551   3.584   4.376  0.00  0.00    +0.292 HD
ENDBRANCH  21  23
BRANCH  20  25
ATOM     25  O   UNL     1      -0.790   1.484   1.240  0.00  0.00    -0.491 OA
ATOM     26  C   UNL     1      -0.458   0.667   0.114  0.00  0.00    +0.277 C 
ENDBRANCH  20  25
ENDBRANCH   5  17
TORSDOF 4
