REMARK  Name = ZINC62519554
REMARK  9 active torsions:
REMARK  status: ('A' for Active; 'I' for Inactive)
REMARK    1  A    between atoms: C_1  and  C_2
REMARK    2  A    between atoms: C_2  and  C_3
REMARK    3  A    between atoms: C_2  and  N_12
REMARK    4  A    between atoms: N_5  and  C_6
REMARK    5  A    between atoms: C_6  and  C_7
REMARK    6  A    between atoms: N_15  and  C_16
REMARK    7  A    between atoms: C_16  and  C_17
REMARK    8  A    between atoms: N_19  and  C_20
REMARK    9  A    between atoms: C_24  and  C_26
REMARK                            x       y       z     vdW  Elec       q    Type
REMARK                         _______ _______ _______ _____ _____    ______ ____
ROOT
ATOM      1  N   UNL     1       0.686  -0.481  -1.202  0.00  0.00    -0.288 N 
ATOM      2  C   UNL     1       0.004  -0.617  -2.357  0.00  0.00    +0.301 C 
ATOM      3  O   UNL     1      -1.183  -0.352  -2.396  0.00  0.00    -0.253 OA
ATOM      4  N   UNL     1       0.636  -1.045  -3.467  0.00  0.00    -0.291 N 
ATOM      5  H   UNL     1       1.632  -0.692  -1.170  0.00  0.00    +0.151 HD
ATOM      6  H   UNL     1       1.582  -1.256  -3.435  0.00  0.00    +0.151 HD
ENDROOT
BRANCH   1   8
ATOM      7  C   UNL     1      -0.034   1.514   0.015  0.00  0.00    +0.038 C 
ATOM      8  C   UNL     1      -0.002  -0.015   0.005  0.00  0.00    +0.157 C 
BRANCH   8   9
ATOM      9  C   UNL     1       0.733  -0.511   1.224  0.00  0.00    +0.233 C 
ATOM     10  O   UNL     1       1.732  -1.186   1.097  0.00  0.00    -0.274 OA
ATOM     11  N   UNL     1       0.279  -0.203   2.455  0.00  0.00    -0.307 N 
ATOM     12  H   UNL     1      -0.520   0.338   2.557  0.00  0.00    +0.149 HD
BRANCH  11  13
ATOM     13  C   UNL     1       0.993  -0.684   3.640  0.00  0.00    +0.178 C 
BRANCH  13  14
ATOM     14  C   UNL     1       0.286  -0.205   4.882  0.00  0.00    +0.122 A 
ATOM     15  C   UNL     1      -0.690  -0.861   5.534  0.00  0.00    +0.046 A 
ATOM     16  C   UNL     1      -1.062  -0.055   6.634  0.00  0.00    +0.041 A 
ATOM     17  C   UNL     1      -0.291   1.046   6.588  0.00  0.00    +0.195 A 
ATOM     18  O   UNL     1       0.528   0.947   5.529  0.00  0.00    -0.466 OA
ENDBRANCH  13  14
ENDBRANCH  11  13
ENDBRANCH   8   9
ENDBRANCH   1   8
BRANCH   4  19
ATOM     19  C   UNL     1      -0.106  -1.192  -4.722  0.00  0.00    +0.202 C 
BRANCH  19  20
ATOM     20  C   UNL     1       0.825  -1.682  -5.801  0.00  0.00    +0.234 C 
ATOM     21  O   UNL     1       1.993  -1.888  -5.547  0.00  0.00    -0.274 OA
ATOM     22  N   UNL     1       0.360  -1.891  -7.048  0.00  0.00    -0.284 N 
ATOM     23  H   UNL     1      -0.587  -1.791  -7.236  0.00  0.00    +0.155 HD
BRANCH  22  24
ATOM     24  C   UNL     1       1.242  -2.253  -8.073  0.00  0.00    +0.035 A 
ATOM     25  C   UNL     1       1.032  -1.789  -9.366  0.00  0.00    +0.023 A 
ATOM     26  C   UNL     1       1.901  -2.143 -10.381  0.00  0.00    +0.003 A 
ATOM     27  C   UNL     1       2.982  -2.959 -10.117  0.00  0.00    +0.017 A 
ATOM     28  C   UNL     1       3.201  -3.430  -8.822  0.00  0.00    +0.026 A 
ATOM     29  C   UNL     1       2.328  -3.068  -7.797  0.00  0.00    +0.040 A 
BRANCH  28  30
ATOM     30  C   UNL     1       4.322  -4.277  -8.545  0.00  0.00    -0.070 C 
ATOM     31  C   UNL     1       5.241  -4.971  -8.319  0.00  0.00    +0.009 C 
ENDBRANCH  28  30
ENDBRANCH  22  24
ENDBRANCH  19  20
ENDBRANCH   4  19
TORSDOF 8
