REMARK  Name = ZINC38596105
REMARK  9 active torsions:
REMARK  status: ('A' for Active; 'I' for Inactive)
REMARK    1  A    between atoms: C_1  and  C_2
REMARK    2  A    between atoms: C_2  and  C_4
REMARK    3  A    between atoms: C_2  and  N_24
REMARK    4  A    between atoms: C_4  and  C_6
REMARK    5  A    between atoms: C_4  and  N_11
REMARK    6  A    between atoms: N_14  and  C_17
REMARK    7  A    between atoms: C_17  and  C_18
REMARK    8  A    between atoms: N_24  and  S_25
REMARK    9  A    between atoms: S_25  and  C_28
REMARK                            x       y       z     vdW  Elec       q    Type
REMARK                         _______ _______ _______ _____ _____    ______ ____
ROOT
ATOM      1  C   UNL     1       0.667  -0.612   1.238  0.00  0.00    +0.112 C 
ENDROOT
BRANCH   1   2
ATOM      2  N   UNL     1      -0.092  -0.235   2.438  0.00  0.00    -0.297 NA
ATOM      3  C   UNL     1      -0.313   1.217   2.487  0.00  0.00    +0.066 C 
ATOM      4  C   UNL     1      -1.156   1.561   3.717  0.00  0.00    -0.063 C 
ATOM      5  N   UNL     1      -0.459   1.113   4.930  0.00  0.00    +0.384 N 
ATOM      6  C   UNL     1      -0.268  -0.342   4.878  0.00  0.00    -0.063 C 
ATOM      7  C   UNL     1       0.583  -0.702   3.657  0.00  0.00    +0.066 C 
ATOM      8  H   UNL     1       0.440   1.568   4.988  0.00  0.00    -0.081 HD
BRANCH   5   9
ATOM      9  C   UNL     1      -1.260   1.459   6.111  0.00  0.00    -0.043 C 
BRANCH   9  10
ATOM     10  C   UNL     1      -0.491   1.111   7.360  0.00  0.00    -0.064 A 
ATOM     11  C   UNL     1      -0.618  -0.145   7.922  0.00  0.00    +0.002 A 
ATOM     12  C   UNL     1       0.088  -0.464   9.067  0.00  0.00    +0.000 A 
ATOM     13  C   UNL     1       0.920   0.473   9.649  0.00  0.00    +0.000 A 
ATOM     14  C   UNL     1       1.048   1.729   9.087  0.00  0.00    +0.000 A 
ATOM     15  C   UNL     1       0.345   2.047   7.939  0.00  0.00    +0.002 A 
ENDBRANCH   9  10
ENDBRANCH   5   9
ENDBRANCH   1   2
BRANCH   1  16
ATOM     16  C   UNL     1       0.892  -2.102   1.234  0.00  0.00    +0.008 A 
ATOM     17  C   UNL     1       2.001  -2.797   0.879  0.00  0.00    +0.013 A 
ATOM     18  C   UNL     1       1.980  -4.177   0.956  0.00  0.00    +0.008 A 
ATOM     19  C   UNL     1       0.853  -4.794   1.385  0.00  0.00    +0.045 A 
ATOM     20  S   UNL     1      -0.229  -3.410   1.704  0.00  0.00    -0.100 S 
ENDBRANCH   1  16
BRANCH   1  22
ATOM     21  C   UNL     1       0.664  -0.616  -1.260  0.00  0.00    +0.027 C 
ATOM     22  C   UNL     1      -0.121  -0.212  -0.010  0.00  0.00    +0.095 C 
BRANCH  22  23
ATOM     23  N   UNL     1      -1.418  -0.892  -0.008  0.00  0.00    -0.185 NA
ATOM     24  H   UNL     1      -1.494  -1.791   0.348  0.00  0.00    +0.148 HD
BRANCH  23  25
ATOM     25  S   UNL     1      -2.756  -0.126  -0.614  0.00  0.00    +0.059 S 
ATOM     26  O   UNL     1      -3.836  -1.041  -0.497  0.00  0.00    -0.153 OA
ATOM     27  O   UNL     1      -2.785   1.167  -0.024  0.00  0.00    -0.153 OA
BRANCH  25  28
ATOM     28  C   UNL     1      -2.483   0.114  -2.338  0.00  0.00    +0.107 A 
ATOM     29  C   UNL     1      -1.865   1.266  -2.787  0.00  0.00    +0.028 A 
ATOM     30  C   UNL     1      -1.651   1.455  -4.139  0.00  0.00    +0.003 A 
ATOM     31  C   UNL     1      -2.054   0.491  -5.044  0.00  0.00    +0.020 A 
ATOM     32  C   UNL     1      -2.672  -0.663  -4.596  0.00  0.00    +0.043 A 
ATOM     33  C   UNL     1      -2.881  -0.854  -3.241  0.00  0.00    +0.048 A 
ATOM     34 CL   UNL     1      -3.178  -1.874  -5.732  0.00  0.00    -0.083 Cl
ENDBRANCH  25  28
ENDBRANCH  23  25
ENDBRANCH  22  23
ENDBRANCH   1  22
TORSDOF 8
