REMARK  Name = ZINC47713820
REMARK  5 active torsions:
REMARK  status: ('A' for Active; 'I' for Inactive)
REMARK    1  A    between atoms: C_4  and  O_27
REMARK    2  A    between atoms: C_5  and  N_7
REMARK    3  A    between atoms: N_15  and  C_16
REMARK    4  A    between atoms: C_19  and  O_23
REMARK    5  A    between atoms: O_23  and  C_24
REMARK                            x       y       z     vdW  Elec       q    Type
REMARK                         _______ _______ _______ _____ _____    ______ ____
ROOT
ATOM      1  N   UNL     1       1.575  -2.074  -0.566  0.00  0.00    -0.324 N 
ATOM      2  C   UNL     1       2.217  -2.867   0.493  0.00  0.00    +0.124 C 
ATOM      3  C   UNL     1       1.205  -3.892   1.019  0.00  0.00    +0.128 C 
ATOM      4  N   UNL     1       0.607  -4.592  -0.127  0.00  0.00    -0.282 N 
ATOM      5  C   UNL     1      -0.035  -3.800  -1.185  0.00  0.00    +0.128 C 
ATOM      6  C   UNL     1       0.972  -2.775  -1.708  0.00  0.00    +0.124 C 
ATOM      7  C   UNL     1       0.647  -5.937  -0.206  0.00  0.00    +0.307 C 
ATOM      8  O   UNL     1       1.265  -6.577   0.623  0.00  0.00    -0.252 OA
ATOM      9  N   UNL     1       0.002  -6.573  -1.204  0.00  0.00    -0.269 N 
ATOM     10  H   UNL     1      -0.405  -6.062  -1.922  0.00  0.00    +0.156 HD
ENDROOT
BRANCH   9  11
ATOM     11  C   UNL     1      -0.082  -7.972  -1.205  0.00  0.00    +0.038 A 
ATOM     12  C   UNL     1      -0.175  -8.663  -0.004  0.00  0.00    +0.027 A 
ATOM     13  C   UNL     1      -0.259 -10.041  -0.004  0.00  0.00    +0.050 A 
ATOM     14  C   UNL     1      -0.249 -10.737  -1.203  0.00  0.00    +0.162 A 
ATOM     15  C   UNL     1      -0.155 -10.048  -2.406  0.00  0.00    +0.167 A 
ATOM     16  C   UNL     1      -0.078  -8.667  -2.406  0.00  0.00    +0.065 A 
ATOM     17  F   UNL     1      -0.145 -10.726  -3.574  0.00  0.00    -0.202 F 
BRANCH  14  18
ATOM     18  O   UNL     1      -0.331 -12.095  -1.203  0.00  0.00    -0.431 OA
BRANCH  18  19
ATOM     19  C   UNL     1      -0.425 -12.739   0.070  0.00  0.00    +0.541 C 
ATOM     20  F   UNL     1       0.707 -12.430   0.833  0.00  0.00    -0.166 F 
ATOM     21  F   UNL     1      -1.572 -12.292   0.735  0.00  0.00    -0.166 F 
ENDBRANCH  18  19
ENDBRANCH  14  18
ENDBRANCH   9  11
BRANCH   1  26
ATOM     22  C   UNL     1       0.431   1.330   0.226  0.00  0.00    +0.002 A 
ATOM     23  C   UNL     1       1.450   2.087  -0.322  0.00  0.00    +0.004 A 
ATOM     24  C   UNL     1       2.514   1.467  -0.952  0.00  0.00    +0.047 A 
ATOM     25  C   UNL     1       2.560   0.085  -1.036  0.00  0.00    +0.138 A 
ATOM     26  C   UNL     1       1.534  -0.678  -0.484  0.00  0.00    +0.072 A 
ATOM     27  C   UNL     1       0.470  -0.049   0.147  0.00  0.00    +0.027 A 
BRANCH  25  28
ATOM     28  O   UNL     1       3.606  -0.525  -1.655  0.00  0.00    -0.505 OA
ATOM     29  H   UNL     1       4.345  -0.734  -1.067  0.00  0.00    +0.292 HD
ENDBRANCH  25  28
ENDBRANCH   1  26
TORSDOF 5
