REMARK  Name = ZINC29458361
REMARK  7 active torsions:
REMARK  status: ('A' for Active; 'I' for Inactive)
REMARK    1  A    between atoms: C_1  and  C_2
REMARK    2  A    between atoms: C_4  and  N_24
REMARK    3  A    between atoms: C_7  and  N_8
REMARK    4  A    between atoms: C_9  and  C_11
REMARK    5  A    between atoms: C_11  and  C_13
REMARK    6  A    between atoms: C_11  and  N_14
REMARK    7  A    between atoms: N_14  and  C_15
REMARK                            x       y       z     vdW  Elec       q    Type
REMARK                         _______ _______ _______ _____ _____    ______ ____
ROOT
ATOM      1  N   UNL     1      -2.428   1.041   0.019  0.00  0.00    -0.284 N 
ATOM      2  C   UNL     1      -2.415  -0.302  -0.090  0.00  0.00    +0.237 C 
ATOM      3  O   UNL     1      -1.359  -0.900  -0.098  0.00  0.00    -0.273 OA
ATOM      4  H   UNL     1      -3.384   1.575   0.118  0.00  0.00    +0.155 HD
ENDROOT
BRANCH   1  11
ATOM      5  C   UNL     1      -2.363   3.585   1.291  0.00  0.00    +0.046 C 
ATOM      6  C   UNL     1      -1.149   3.001   0.615  0.00  0.00    -0.027 A 
ATOM      7  C   UNL     1       0.038   3.707   0.596  0.00  0.00    +0.038 A 
ATOM      8  C   UNL     1       1.152   3.171  -0.024  0.00  0.00    +0.127 A 
ATOM      9  C   UNL     1       1.082   1.928  -0.626  0.00  0.00    +0.034 A 
ATOM     10  C   UNL     1      -0.102   1.218  -0.610  0.00  0.00    +0.026 A 
ATOM     11  C   UNL     1      -1.225   1.756   0.006  0.00  0.00    +0.036 A 
BRANCH   8  12
ATOM     12  N   UNL     1       2.423   3.931  -0.044  0.00  0.00    +0.056 N 
ATOM     13  O   UNL     1       3.405   3.460  -0.589  0.00  0.00    -0.126 OA
ATOM     14  O   UNL     1       2.486   5.026   0.486  0.00  0.00    -0.126 OA
ENDBRANCH   8  12
ENDBRANCH   1  11
BRANCH   2  15
ATOM     15  C   UNL     1      -3.712  -1.062  -0.202  0.00  0.00    +0.154 C 
ATOM     16  C   UNL     1      -4.564  -0.800   1.041  0.00  0.00    +0.038 C 
BRANCH  15  17
ATOM     17  N   UNL     1      -3.430  -2.496  -0.308  0.00  0.00    -0.333 N 
ATOM     18  H   UNL     1      -2.493  -2.904   0.099  0.00  0.00    +0.147 HD
BRANCH  17  19
ATOM     19  C   UNL     1      -4.351  -3.344  -0.926  0.00  0.00    +0.028 A 
ATOM     20  C   UNL     1      -5.538  -2.832  -1.435  0.00  0.00    +0.023 A 
ATOM     21  C   UNL     1      -6.442  -3.674  -2.049  0.00  0.00    +0.006 A 
ATOM     22  C   UNL     1      -6.177  -5.031  -2.150  0.00  0.00    -0.044 A 
ATOM     23  C   UNL     1      -5.000  -5.545  -1.639  0.00  0.00    -0.042 A 
ATOM     24  C   UNL     1      -4.087  -4.703  -1.028  0.00  0.00    +0.026 A 
ATOM     25  C   UNL     1      -4.949  -7.039  -1.874  0.00  0.00    +0.036 C 
ATOM     26  C   UNL     1      -6.404  -7.448  -2.187  0.00  0.00    +0.009 C 
ATOM     27  C   UNL     1      -6.998  -6.146  -2.763  0.00  0.00    +0.036 C 
ENDBRANCH  17  19
ENDBRANCH  15  17
ENDBRANCH   2  15
TORSDOF 5
