REMARK  Name = ZINC39887220
REMARK  6 active torsions:
REMARK  status: ('A' for Active; 'I' for Inactive)
REMARK    1  A    between atoms: C_1  and  C_2
REMARK    2  A    between atoms: C_2  and  C_3
REMARK    3  A    between atoms: C_6  and  N_9
REMARK    4  A    between atoms: C_10  and  C_20
REMARK    5  A    between atoms: C_15  and  C_18
REMARK    6  A    between atoms: C_24  and  N_26
REMARK                            x       y       z     vdW  Elec       q    Type
REMARK                         _______ _______ _______ _____ _____    ______ ____
ROOT
ATOM      1  N   UNL     1      -5.320  -1.966   0.042  0.00  0.00    -0.270 N 
ATOM      2  C   UNL     1      -6.066  -2.126  -1.210  0.00  0.00    +0.197 C 
ATOM      3  N   UNL     1      -7.415  -1.578  -1.056  0.00  0.00    -0.288 N 
ATOM      4  C   UNL     1      -8.031  -1.600   0.143  0.00  0.00    +0.258 C 
ATOM      5  O   UNL     1      -9.169  -1.182   0.254  0.00  0.00    -0.269 OA
ATOM      6  C   UNL     1      -7.324  -2.130   1.311  0.00  0.00    +0.142 C 
ATOM      7  C   UNL     1      -5.930  -2.306   1.224  0.00  0.00    +0.103 C 
ATOM      8  S   UNL     1      -5.000  -2.935   2.582  0.00  0.00    -0.033 SA
ATOM      9  H   UNL     1      -7.869  -1.196  -1.823  0.00  0.00    +0.151 HD
ENDROOT
BRANCH   1  13
ATOM     10  C   UNL     1      -1.412  -0.525   0.012  0.00  0.00    -0.048 A 
ATOM     11  C   UNL     1      -1.662  -1.834   0.382  0.00  0.00    +0.005 A 
ATOM     12  C   UNL     1      -2.956  -2.315   0.393  0.00  0.00    +0.024 A 
ATOM     13  C   UNL     1      -4.008  -1.483   0.032  0.00  0.00    +0.036 A 
ATOM     14  C   UNL     1      -3.754  -0.168  -0.339  0.00  0.00    +0.024 A 
ATOM     15  C   UNL     1      -2.457   0.308  -0.343  0.00  0.00    +0.005 A 
BRANCH  10  17
ATOM     16  C   UNL     1       0.340   0.582   1.374  0.00  0.00    +0.009 C 
ATOM     17  C   UNL     1       0.002  -0.004   0.001  0.00  0.00    +0.032 C 
ENDBRANCH  10  17
ENDBRANCH   1  13
BRANCH   2  18
ATOM     18  C   UNL     1      -6.157  -3.590  -1.557  0.00  0.00    -0.007 A 
ATOM     19  C   UNL     1      -5.154  -4.457  -1.165  0.00  0.00    +0.007 A 
ATOM     20  C   UNL     1      -5.237  -5.799  -1.483  0.00  0.00    +0.003 A 
ATOM     21  C   UNL     1      -6.325  -6.275  -2.192  0.00  0.00    +0.033 A 
ATOM     22  C   UNL     1      -7.328  -5.409  -2.582  0.00  0.00    +0.127 A 
ATOM     23  C   UNL     1      -7.247  -4.066  -2.261  0.00  0.00    +0.039 A 
BRANCH  22  24
ATOM     24  N   UNL     1      -8.492  -5.918  -3.341  0.00  0.00    +0.056 N 
ATOM     25  O   UNL     1      -8.565  -7.093  -3.620  0.00  0.00    -0.126 OA
ATOM     26  O   UNL     1      -9.370  -5.160  -3.683  0.00  0.00    -0.126 OA
ENDBRANCH  22  24
ENDBRANCH   2  18
BRANCH   6  27
ATOM     27  C   UNL     1      -8.032  -2.465   2.510  0.00  0.00    +0.107 C 
ATOM     28  N   UNL     1      -8.594  -2.731   3.461  0.00  0.00    -0.191 NA
ENDBRANCH   6  27
TORSDOF 5
