REMARK  Name = ZINC01147313
REMARK  5 active torsions:
REMARK  status: ('A' for Active; 'I' for Inactive)
REMARK    1  A    between atoms: C_5  and  C_7
REMARK    2  A    between atoms: C_7  and  O_8
REMARK    3  A    between atoms: O_8  and  C_9
REMARK    4  A    between atoms: C_12  and  N_15
REMARK    5  A    between atoms: C_19  and  C_20
REMARK                            x       y       z     vdW  Elec       q    Type
REMARK                         _______ _______ _______ _____ _____    ______ ____
ROOT
ATOM      1  N   UNL     1       1.139   1.944  -0.019  0.00  0.00    -0.190 N 
ATOM      2  C   UNL     1       0.500   2.212  -1.177  0.00  0.00    +0.264 C 
ATOM      3  O   UNL     1       1.004   1.930  -2.248  0.00  0.00    -0.269 OA
ATOM      4  C   UNL     1      -0.821   2.860  -1.110  0.00  0.00    +0.103 C 
ATOM      5  C   UNL     1      -1.535   3.171  -2.261  0.00  0.00    +0.064 C 
ATOM      6  C   UNL     1      -1.354   3.159   0.231  0.00  0.00    +0.257 C 
ATOM      7  O   UNL     1      -2.441   3.689   0.367  0.00  0.00    -0.270 OA
ATOM      8  N   UNL     1      -0.603   2.833   1.303  0.00  0.00    -0.235 N 
ATOM      9  C   UNL     1       0.596   2.249   1.168  0.00  0.00    +0.320 C 
ATOM     10  O   UNL     1       1.223   1.982   2.174  0.00  0.00    -0.251 OA
ATOM     11  H   UNL     1      -0.938   3.027   2.193  0.00  0.00    +0.159 HD
ENDROOT
BRANCH   1  15
ATOM     12  C   UNL     1       4.891   0.125  -0.135  0.00  0.00    +0.121 A 
ATOM     13  C   UNL     1       4.791   1.508  -0.151  0.00  0.00    +0.047 A 
ATOM     14  C   UNL     1       3.549   2.111  -0.112  0.00  0.00    +0.027 A 
ATOM     15  C   UNL     1       2.401   1.332  -0.058  0.00  0.00    +0.046 A 
ATOM     16  C   UNL     1       2.502  -0.052  -0.037  0.00  0.00    +0.027 A 
ATOM     17  C   UNL     1       3.744  -0.654  -0.082  0.00  0.00    +0.047 A 
BRANCH  12  18
ATOM     18  O   UNL     1       6.114  -0.468  -0.173  0.00  0.00    -0.487 OA
BRANCH  18  19
ATOM     19  C   UNL     1       6.143  -1.897  -0.155  0.00  0.00    +0.266 C 
BRANCH  19  24
ATOM     20  C   UNL     1       9.916  -1.887  -0.298  0.00  0.00    +0.000 A 
ATOM     21  C   UNL     1      10.197  -3.240  -0.290  0.00  0.00    +0.001 A 
ATOM     22  C   UNL     1       9.166  -4.160  -0.238  0.00  0.00    +0.020 A 
ATOM     23  C   UNL     1       7.853  -3.725  -0.194  0.00  0.00    +0.047 A 
ATOM     24  C   UNL     1       7.573  -2.371  -0.202  0.00  0.00    +0.008 A 
ATOM     25  C   UNL     1       8.604  -1.452  -0.259  0.00  0.00    +0.008 A 
ATOM     26 CL   UNL     1       6.558  -4.880  -0.129  0.00  0.00    -0.083 Cl
ENDBRANCH  19  24
ENDBRANCH  18  19
ENDBRANCH  12  18
ENDBRANCH   1  15
BRANCH   5  27
ATOM     27  C   UNL     1      -2.699   3.953  -2.175  0.00  0.00    +0.129 A 
ATOM     28  C   UNL     1      -3.843   3.804  -2.944  0.00  0.00    +0.049 A 
ATOM     29  C   UNL     1      -4.739   4.790  -2.517  0.00  0.00    +0.042 A 
ATOM     30  C   UNL     1      -4.125   5.494  -1.536  0.00  0.00    +0.195 A 
ATOM     31  O   UNL     1      -2.902   4.990  -1.333  0.00  0.00    -0.464 OA
ENDBRANCH   5  27
TORSDOF 5
