REMARK  Name = ZINC36100145
REMARK  9 active torsions:
REMARK  status: ('A' for Active; 'I' for Inactive)
REMARK    1  A    between atoms: C_1  and  N_2
REMARK    2  A    between atoms: N_2  and  C_3
REMARK    3  A    between atoms: N_2  and  C_4
REMARK    4  A    between atoms: C_7  and  C_10
REMARK    5  A    between atoms: C_10  and  C_12
REMARK    6  A    between atoms: C_10  and  N_23
REMARK    7  A    between atoms: C_12  and  N_13
REMARK    8  A    between atoms: N_13  and  S_14
REMARK    9  A    between atoms: S_14  and  C_17
REMARK                            x       y       z     vdW  Elec       q    Type
REMARK                         _______ _______ _______ _____ _____    ______ ____
ROOT
ATOM      1  C   UNL     1      -4.819  -2.781   0.132  0.00  0.00    -0.022 C 
ENDROOT
BRANCH   1   2
ATOM      2  N   UNL     1      -5.790  -1.975  -0.621  0.00  0.00    +0.385 N 
ATOM      3  C   UNL     1      -7.106  -2.624  -0.571  0.00  0.00    -0.078 C 
ATOM      4  C   UNL     1      -8.137  -1.748  -1.285  0.00  0.00    -0.019 C 
ATOM      5  C   UNL     1      -7.715  -1.557  -2.745  0.00  0.00    -0.004 C 
ATOM      6  C   UNL     1      -6.311  -0.948  -2.784  0.00  0.00    -0.019 C 
ATOM      7  C   UNL     1      -5.346  -1.854  -2.015  0.00  0.00    -0.078 C 
ATOM      8  H   UNL     1      -5.854  -1.057  -0.208  0.00  0.00    -0.081 HD
ENDBRANCH   1   2
BRANCH   1  12
ATOM      9  C   UNL     1      -0.959  -0.964  -0.120  0.00  0.00    +0.029 A 
ATOM     10  C   UNL     1      -1.085  -2.345  -0.195  0.00  0.00    +0.023 A 
ATOM     11  C   UNL     1      -2.333  -2.929  -0.113  0.00  0.00    +0.004 A 
ATOM     12  C   UNL     1      -3.458  -2.140   0.044  0.00  0.00    -0.060 A 
ATOM     13  C   UNL     1      -3.337  -0.765   0.119  0.00  0.00    +0.004 A 
ATOM     14  C   UNL     1      -2.091  -0.175   0.043  0.00  0.00    +0.023 A 
BRANCH   9  16
ATOM     15  C   UNL     1       0.433   1.087  -0.116  0.00  0.00    +0.129 C 
ATOM     16  N   UNL     1       0.302  -0.370  -0.202  0.00  0.00    -0.336 N 
ATOM     17  C   UNL     1       1.495  -1.204  -0.374  0.00  0.00    +0.129 C 
ENDBRANCH   9  16
ENDBRANCH   1  12
BRANCH   1  18
ATOM     18  C   UNL     1      -5.251  -2.862   1.597  0.00  0.00    +0.095 C 
BRANCH  18  19
ATOM     19  N   UNL     1      -4.326  -3.728   2.332  0.00  0.00    -0.191 NA
ATOM     20  H   UNL     1      -3.738  -4.330   1.849  0.00  0.00    +0.148 HD
BRANCH  19  21
ATOM     21  S   UNL     1      -4.285  -3.682   3.987  0.00  0.00    +0.058 S 
ATOM     22  O   UNL     1      -3.321  -4.642   4.397  0.00  0.00    -0.153 OA
ATOM     23  O   UNL     1      -4.199  -2.311   4.353  0.00  0.00    -0.153 OA
BRANCH  21  24
ATOM     24  C   UNL     1      -5.847  -4.259   4.563  0.00  0.00    +0.105 A 
ATOM     25  C   UNL     1      -6.883  -3.366   4.763  0.00  0.00    +0.028 A 
ATOM     26  C   UNL     1      -8.109  -3.819   5.215  0.00  0.00    +0.002 A 
ATOM     27  C   UNL     1      -8.298  -5.165   5.467  0.00  0.00    +0.000 A 
ATOM     28  C   UNL     1      -7.262  -6.058   5.267  0.00  0.00    +0.002 A 
ATOM     29  C   UNL     1      -6.038  -5.606   4.811  0.00  0.00    +0.028 A 
ENDBRANCH  21  24
ENDBRANCH  19  21
ENDBRANCH  18  19
ENDBRANCH   1  18
TORSDOF 7
