REMARK  Name = ZINC02927061
REMARK  9 active torsions:
REMARK  status: ('A' for Active; 'I' for Inactive)
REMARK    1  A    between atoms: C_1  and  C_2
REMARK    2  A    between atoms: C_2  and  C_3
REMARK    3  A    between atoms: C_3  and  C_5
REMARK    4  A    between atoms: C_3  and  S_14
REMARK    5  A    between atoms: N_7  and  C_8
REMARK    6  A    between atoms: C_8  and  C_9
REMARK    7  A    between atoms: S_14  and  C_15
REMARK    8  A    between atoms: C_19  and  C_23
REMARK    9  A    between atoms: N_26  and  C_27
REMARK                            x       y       z     vdW  Elec       q    Type
REMARK                         _______ _______ _______ _____ _____    ______ ____
ROOT
ATOM      1  C   UNL     1       3.999   1.798  -0.587  0.00  0.00    +0.178 A 
ATOM      2  N   UNL     1       3.913   3.032  -0.152  0.00  0.00    -0.201 NA
ATOM      3  C   UNL     1       4.987   3.827  -0.032  0.00  0.00    +0.187 A 
ATOM      4  C   UNL     1       6.254   3.339  -0.378  0.00  0.00    +0.082 A 
ATOM      5  C   UNL     1       7.178   4.374  -0.155  0.00  0.00    +0.046 A 
ATOM      6  N   UNL     1       6.529   5.417   0.287  0.00  0.00    -0.279 N 
ATOM      7  N   UNL     1       5.166   5.111   0.383  0.00  0.00    -0.153 NA
ATOM      8  H   UNL     1       7.072   6.345   0.518  0.00  0.00    +0.189 HD
ATOM      9  C   UNL     1       8.664   4.296  -0.393  0.00  0.00    +0.066 C 
ATOM     10  C   UNL     1       6.358   1.958  -0.867  0.00  0.00    +0.124 A 
ATOM     11  N   UNL     1       7.513   1.441  -1.208  0.00  0.00    -0.384 N 
ATOM     12  N   UNL     1       5.185   1.223  -0.952  0.00  0.00    -0.275 N 
ATOM     13  H   UNL     1       7.565   0.404  -1.571  0.00  0.00    +0.157 HD
ATOM     14  H   UNL     1       8.430   2.044  -1.132  0.00  0.00    +0.157 HD
ENDROOT
BRANCH  12  15
ATOM     15  C   UNL     1       5.215  -0.100  -1.410  0.00  0.00    +0.050 A 
ATOM     16  C   UNL     1       5.883  -1.075  -0.680  0.00  0.00    +0.027 A 
ATOM     17  C   UNL     1       5.905  -2.380  -1.131  0.00  0.00    +0.017 A 
ATOM     18  C   UNL     1       5.274  -2.714  -2.316  0.00  0.00    +0.018 A 
ATOM     19  C   UNL     1       4.613  -1.745  -3.048  0.00  0.00    +0.017 A 
ATOM     20  C   UNL     1       4.582  -0.439  -2.599  0.00  0.00    +0.027 A 
ATOM     21 BR   UNL     1       5.314  -4.501  -2.934  0.00  0.00    -0.050 Br
ENDBRANCH  12  15
BRANCH   1  22
ATOM     22  S   UNL     1       2.524   0.841  -0.707  0.00  0.00    -0.075 S 
BRANCH  22  23
ATOM     23  C   UNL     1       1.331   2.014  -0.016  0.00  0.00    +0.140 C 
BRANCH  23  24
ATOM     24  C   UNL     1      -0.068   1.505  -0.251  0.00  0.00    +0.227 C 
ATOM     25  O   UNL     1      -0.264   0.317  -0.396  0.00  0.00    -0.275 OA
ATOM     26  N   UNL     1      -1.099   2.370  -0.307  0.00  0.00    -0.307 N 
ATOM     27  H   UNL     1      -0.921   3.447  -0.176  0.00  0.00    +0.149 HD
BRANCH  26  28
ATOM     28  C   UNL     1      -2.458   1.875  -0.542  0.00  0.00    +0.178 C 
BRANCH  28  29
ATOM     29  C   UNL     1      -3.419   3.036  -0.558  0.00  0.00    +0.122 A 
ATOM     30  C   UNL     1      -3.774   3.748  -1.643  0.00  0.00    +0.046 A 
ATOM     31  C   UNL     1      -4.689   4.733  -1.205  0.00  0.00    +0.041 A 
ATOM     32  C   UNL     1      -4.838   4.564   0.121  0.00  0.00    +0.195 A 
ATOM     33  O   UNL     1      -4.072   3.531   0.506  0.00  0.00    -0.466 OA
ENDBRANCH  28  29
ENDBRANCH  26  28
ENDBRANCH  23  24
BRANCH  23  35
ATOM     34  C   UNL     1       0.659   3.254   2.046  0.00  0.00    +0.005 C 
ATOM     35  C   UNL     1       1.574   2.163   1.487  0.00  0.00    +0.020 C 
ENDBRANCH  23  35
ENDBRANCH  22  23
ENDBRANCH   1  22
TORSDOF 7
