REMARK  Name = ZINC09092784
REMARK  5 active torsions:
REMARK  status: ('A' for Active; 'I' for Inactive)
REMARK    1  A    between atoms: C_1  and  C_2
REMARK    2  A    between atoms: C_2  and  C_25
REMARK    3  A    between atoms: N_5  and  C_9
REMARK    4  A    between atoms: C_9  and  C_10
REMARK    5  A    between atoms: N_15  and  C_18
REMARK                            x       y       z     vdW  Elec       q    Type
REMARK                         _______ _______ _______ _____ _____    ______ ____
ROOT
ATOM      1  C   UNL     1       1.761  -1.221   1.235  0.00  0.00    +0.047 C 
ATOM      2  C   UNL     1       1.419  -0.406  -0.014  0.00  0.00    +0.135 C 
ATOM      3  C   UNL     1       2.164   0.914  -0.014  0.00  0.00    +0.251 C 
ATOM      4  O   UNL     1       3.365   1.077  -0.025  0.00  0.00    -0.272 OA
ATOM      5  N   UNL     1       1.213   1.869   0.001  0.00  0.00    -0.215 N 
ATOM      6  C   UNL     1      -0.016   1.341   0.009  0.00  0.00    +0.310 C 
ATOM      7  O   UNL     1      -1.036   2.003   0.018  0.00  0.00    -0.252 OA
ATOM      8  N   UNL     1       0.002  -0.004   0.002  0.00  0.00    -0.281 N 
ATOM      9  H   UNL     1      -0.768  -0.594   0.006  0.00  0.00    +0.152 HD
ENDROOT
BRANCH   2  10
ATOM     10  C   UNL     1       1.734  -1.192  -1.260  0.00  0.00    -0.012 A 
ATOM     11  C   UNL     1       2.993  -1.115  -1.825  0.00  0.00    +0.010 A 
ATOM     12  C   UNL     1       3.288  -1.838  -2.966  0.00  0.00    +0.050 A 
ATOM     13  C   UNL     1       2.317  -2.634  -3.552  0.00  0.00    +0.166 A 
ATOM     14  C   UNL     1       1.047  -2.708  -2.986  0.00  0.00    +0.167 A 
ATOM     15  C   UNL     1       0.760  -1.984  -1.840  0.00  0.00    +0.055 A 
ATOM     16  O   UNL     1       0.280  -3.548  -3.742  0.00  0.00    -0.453 OA
ATOM     17  C   UNL     1       1.211  -4.304  -4.538  0.00  0.00    +0.466 C 
ATOM     18  O   UNL     1       2.347  -3.428  -4.662  0.00  0.00    -0.453 OA
ENDBRANCH   2  10
BRANCH   5  19
ATOM     19  C   UNL     1       1.491   3.307   0.005  0.00  0.00    +0.213 C 
BRANCH  19  20
ATOM     20  C   UNL     1       1.600   3.794   1.427  0.00  0.00    +0.234 C 
ATOM     21  O   UNL     1       1.460   3.016   2.346  0.00  0.00    -0.274 OA
ATOM     22  N   UNL     1       1.854   5.094   1.677  0.00  0.00    -0.297 N 
ATOM     23  C   UNL     1       2.034   6.053   0.576  0.00  0.00    +0.126 C 
ATOM     24  C   UNL     1       1.110   7.254   0.828  0.00  0.00    +0.124 C 
ATOM     25  N   UNL     1       1.370   7.793   2.170  0.00  0.00    -0.327 N 
ATOM     26  C   UNL     1       1.049   6.808   3.211  0.00  0.00    +0.124 C 
ATOM     27  C   UNL     1       1.965   5.589   3.057  0.00  0.00    +0.126 C 
BRANCH  25  28
ATOM     28  C   UNL     1       0.670   8.986   2.375  0.00  0.00    +0.030 A 
ATOM     29  C   UNL     1      -0.195   9.108   3.455  0.00  0.00    +0.026 A 
ATOM     30  C   UNL     1      -0.882  10.289   3.659  0.00  0.00    +0.040 A 
ATOM     31  C   UNL     1      -0.716  11.347   2.782  0.00  0.00    +0.124 A 
ATOM     32  C   UNL     1       0.142  11.226   1.702  0.00  0.00    +0.040 A 
ATOM     33  C   UNL     1       0.835  10.049   1.497  0.00  0.00    +0.026 A 
ATOM     34  F   UNL     1      -1.392  12.500   2.980  0.00  0.00    -0.205 F 
ENDBRANCH  25  28
ENDBRANCH  19  20
ENDBRANCH   5  19
TORSDOF 4
