REMARK  Name = ZINC01045586
REMARK  7 active torsions:
REMARK  status: ('A' for Active; 'I' for Inactive)
REMARK    1  A    between atoms: C_1  and  N_2
REMARK    2  A    between atoms: N_2  and  C_3
REMARK    3  A    between atoms: N_2  and  C_4
REMARK    4  A    between atoms: C_7  and  C_10
REMARK    5  A    between atoms: N_12  and  N_13
REMARK    6  A    between atoms: C_14  and  C_15
REMARK    7  A    between atoms: C_20  and  O_21
REMARK                            x       y       z     vdW  Elec       q    Type
REMARK                         _______ _______ _______ _____ _____    ______ ____
ROOT
ATOM      1  C   UNL     1      -4.840  -2.889   0.034  0.00  0.00    +0.263 C 
ATOM      2  O   UNL     1      -4.824  -4.105   0.032  0.00  0.00    -0.268 OA
ATOM      3  N   UNL     1      -6.017  -2.231   0.043  0.00  0.00    -0.203 N 
ATOM      4  H   UNL     1      -6.030  -1.261   0.045  0.00  0.00    +0.178 HD
ENDROOT
BRANCH   1   8
ATOM      5  C   UNL     1      -1.193  -0.716   0.010  0.00  0.00    +0.029 A 
ATOM      6  C   UNL     1      -1.172  -2.108   0.008  0.00  0.00    +0.024 A 
ATOM      7  C   UNL     1      -2.352  -2.815   0.016  0.00  0.00    +0.015 A 
ATOM      8  C   UNL     1      -3.574  -2.134   0.026  0.00  0.00    +0.038 A 
ATOM      9  C   UNL     1      -3.591  -0.736   0.028  0.00  0.00    +0.015 A 
ATOM     10  C   UNL     1      -2.407  -0.035   0.025  0.00  0.00    +0.024 A 
BRANCH   5  12
ATOM     11  C   UNL     1      -0.018   1.461   0.010  0.00  0.00    +0.129 C 
ATOM     12  N   UNL     1       0.002  -0.004   0.002  0.00  0.00    -0.336 N 
ATOM     13  C   UNL     1       1.281  -0.719  -0.014  0.00  0.00    +0.129 C 
ENDBRANCH   5  12
ENDBRANCH   1   8
BRANCH   3  14
ATOM     14  N   UNL     1      -7.220  -2.948   0.051  0.00  0.00    -0.187 NA
ATOM     15  C   UNL     1      -8.353  -2.314   0.060  0.00  0.00    +0.142 C 
BRANCH  15  16
ATOM     16  C   UNL     1      -9.619  -3.068   0.068  0.00  0.00    +0.039 A 
ATOM     17  C   UNL     1     -10.841  -2.390   0.072  0.00  0.00    +0.033 A 
ATOM     18  C   UNL     1     -12.023  -3.102   0.079  0.00  0.00    +0.043 A 
ATOM     19  C   UNL     1     -12.004  -4.487   0.082  0.00  0.00    +0.043 A 
ATOM     20  C   UNL     1     -10.801  -5.169   0.079  0.00  0.00    +0.084 A 
ATOM     21  C   UNL     1      -9.605  -4.469   0.066  0.00  0.00    +0.144 A 
ATOM     22 CL   UNL     1     -10.789  -6.905   0.084  0.00  0.00    -0.080 Cl
ATOM     23 CL   UNL     1     -13.540  -2.258   0.085  0.00  0.00    -0.083 Cl
BRANCH  21  24
ATOM     24  O   UNL     1      -8.422  -5.138   0.056  0.00  0.00    -0.505 OA
ATOM     25  H   UNL     1      -8.074  -5.334   0.937  0.00  0.00    +0.292 HD
ENDBRANCH  21  24
ENDBRANCH  15  16
ENDBRANCH   3  14
TORSDOF 5
