REMARK  Name = ZINC63807165
REMARK  4 active torsions:
REMARK  status: ('A' for Active; 'I' for Inactive)
REMARK    1  A    between atoms: C_1  and  C_2
REMARK    2  A    between atoms: C_4  and  C_8
REMARK    3  A    between atoms: C_12  and  C_17
REMARK    4  A    between atoms: C_17  and  C_18
REMARK                            x       y       z     vdW  Elec       q    Type
REMARK                         _______ _______ _______ _____ _____    ______ ____
ROOT
ATOM      1  C   UNL     1      -0.964  -2.951   1.248  0.00  0.00    +0.182 C 
ATOM      2  N   UNL     1      -0.425  -4.337   1.261  0.00  0.00    -0.265 N 
ATOM      3  N   UNL     1      -1.263  -5.275   1.786  0.00  0.00    -0.224 N 
ATOM      4  C   UNL     1      -1.155  -6.543   2.329  0.00  0.00    +0.156 A 
ATOM      5  N   UNL     1      -2.353  -6.959   2.618  0.00  0.00    -0.132 NA
ATOM      6  N   UNL     1      -3.218  -6.055   2.320  0.00  0.00    -0.121 NA
ATOM      7  C   UNL     1      -2.609  -5.018   1.835  0.00  0.00    +0.210 A 
ATOM      8  S   UNL     1      -2.764  -3.358   1.208  0.00  0.00    -0.058 S 
ATOM      9  H   UNL     1      -0.106  -4.609   0.343  0.00  0.00    +0.168 HD
ENDROOT
BRANCH   1  13
ATOM     10  C   UNL     1      -0.018   1.503   0.010  0.00  0.00    +0.067 C 
ATOM     11  C   UNL     1       0.002  -0.004   0.002  0.00  0.00    +0.058 C 
ATOM     12  C   UNL     1      -1.086  -0.777   0.003  0.00  0.00    +0.029 C 
ATOM     13  C   UNL     1      -0.531  -2.190  -0.007  0.00  0.00    +0.185 C 
ATOM     14  N   UNL     1       0.926  -1.973  -0.013  0.00  0.00    -0.177 NA
ATOM     15  N   UNL     1       1.125  -0.756  -0.013  0.00  0.00    -0.159 NA
ENDBRANCH   1  13
BRANCH   4  16
ATOM     16  C   UNL     1       0.125  -7.309   2.545  0.00  0.00    +0.113 C 
BRANCH  16  17
ATOM     17  C   UNL     1       0.670  -6.998   3.916  0.00  0.00    -0.040 A 
ATOM     18  C   UNL     1       1.540  -5.937   4.089  0.00  0.00    +0.007 A 
ATOM     19  C   UNL     1       2.040  -5.651   5.345  0.00  0.00    +0.038 A 
ATOM     20  C   UNL     1       1.670  -6.428   6.430  0.00  0.00    +0.123 A 
ATOM     21  C   UNL     1       0.799  -7.490   6.255  0.00  0.00    +0.038 A 
ATOM     22  C   UNL     1       0.296  -7.771   4.999  0.00  0.00    +0.007 A 
ATOM     23  F   UNL     1       2.159  -6.149   7.658  0.00  0.00    -0.205 F 
ENDBRANCH  16  17
ENDBRANCH   4  16
TORSDOF 3
