REMARK  Name = ZINC47832888
REMARK  4 active torsions:
REMARK  status: ('A' for Active; 'I' for Inactive)
REMARK    1  A    between atoms: C_1  and  C_2
REMARK    2  A    between atoms: C_7  and  O_8
REMARK    3  A    between atoms: O_8  and  C_9
REMARK    4  A    between atoms: C_9  and  C_11
REMARK                            x       y       z     vdW  Elec       q    Type
REMARK                         _______ _______ _______ _____ _____    ______ ____
ROOT
ATOM      1  C   UNL     1      -0.059  -0.754   3.519  0.00  0.00    +0.344 C 
ATOM      2  O   UNL     1      -0.041  -1.969   3.472  0.00  0.00    -0.245 OA
ENDROOT
BRANCH   1   3
ATOM      3  C   UNL     1      -0.167  -0.094   4.769  0.00  0.00    +0.075 C 
ATOM      4  C   UNL     1      -0.245  -0.817   5.913  0.00  0.00    +0.025 C 
ATOM      5  C   UNL     1      -0.415  -0.092   7.180  0.00  0.00    +0.017 A 
ATOM      6  C   UNL     1      -0.239  -0.727   8.410  0.00  0.00    +0.011 A 
ATOM      7  C   UNL     1      -0.386  -0.004   9.575  0.00  0.00    +0.001 A 
ATOM      8  C   UNL     1      -0.704   1.344   9.528  0.00  0.00    +0.004 A 
ATOM      9  C   UNL     1      -0.891   1.981   8.316  0.00  0.00    +0.046 A 
ATOM     10  C   UNL     1      -0.759   1.270   7.136  0.00  0.00    +0.128 A 
ATOM     11  O   UNL     1      -0.978   1.858   5.934  0.00  0.00    -0.487 OA
ATOM     12  C   UNL     1      -0.190   1.411   4.828  0.00  0.00    +0.271 C 
ENDBRANCH   1   3
BRANCH   1  13
ATOM     13  O   UNL     1       0.025  -0.033   2.381  0.00  0.00    -0.422 OA
BRANCH  13  20
ATOM     14  C   UNL     1       2.507  -0.975   1.415  0.00  0.00    +0.047 C 
ATOM     15  C   UNL     1       1.212  -1.190   0.674  0.00  0.00    -0.008 A 
ATOM     16  C   UNL     1       1.207  -1.877  -0.524  0.00  0.00    +0.007 A 
ATOM     17  C   UNL     1       0.019  -2.075  -1.204  0.00  0.00    +0.000 A 
ATOM     18  C   UNL     1      -1.167  -1.587  -0.686  0.00  0.00    +0.004 A 
ATOM     19  C   UNL     1      -1.167  -0.901   0.513  0.00  0.00    +0.046 A 
ATOM     20  C   UNL     1       0.023  -0.705   1.199  0.00  0.00    +0.135 A 
ENDBRANCH  13  20
ENDBRANCH   1  13
TORSDOF 3
