REMARK  Name = ZINC53554638
REMARK  7 active torsions:
REMARK  status: ('A' for Active; 'I' for Inactive)
REMARK    1  A    between atoms: C_1  and  N_2
REMARK    2  A    between atoms: C_3  and  C_5
REMARK    3  A    between atoms: C_8  and  S_14
REMARK    4  A    between atoms: C_9  and  N_11
REMARK    5  A    between atoms: S_14  and  C_15
REMARK    6  A    between atoms: C_18  and  C_21
REMARK    7  A    between atoms: N_19  and  C_20
REMARK                            x       y       z     vdW  Elec       q    Type
REMARK                         _______ _______ _______ _____ _____    ______ ____
ROOT
ATOM      1  C   UNL     1      -1.179  -2.198   0.087  0.00  0.00    +0.039 A 
ATOM      2  C   UNL     1      -1.357  -2.952   1.250  0.00  0.00    +0.014 A 
ATOM      3  C   UNL     1      -1.325  -4.316   1.195  0.00  0.00    +0.018 A 
ATOM      4  C   UNL     1      -1.113  -4.964  -0.025  0.00  0.00    +0.046 A 
ATOM      5  C   UNL     1      -0.935  -4.216  -1.192  0.00  0.00    +0.141 A 
ATOM      6  C   UNL     1      -0.974  -2.841  -1.138  0.00  0.00    +0.047 A 
ENDROOT
BRANCH   1   9
ATOM      7  C   UNL     1      -1.448   1.361   1.393  0.00  0.00    +0.128 C 
ATOM      8  N   UNL     1      -1.413  -0.102   1.330  0.00  0.00    -0.314 N 
ATOM      9  C   UNL     1      -1.214  -0.722   0.150  0.00  0.00    +0.244 C 
ATOM     10  O   UNL     1      -1.065  -0.066  -0.863  0.00  0.00    -0.270 OA
ATOM     11  H   UNL     1      -1.532  -0.625   2.139  0.00  0.00    +0.149 HD
ENDBRANCH   1   9
BRANCH   5  12
ATOM     12  N   UNL     1      -0.711  -4.901  -2.486  0.00  0.00    +0.058 N 
ATOM     13  O   UNL     1      -0.543  -4.194  -3.585  0.00  0.00    -0.126 OA
ATOM     14  O   UNL     1      -0.679  -6.216  -2.537  0.00  0.00    -0.126 OA
ENDBRANCH   5  12
BRANCH   4  15
ATOM     15  S   UNL     1      -1.071  -6.724  -0.093  0.00  0.00    -0.048 S 
BRANCH  15  16
ATOM     16  C   UNL     1       0.546  -7.083  -0.204  0.00  0.00    +0.196 A 
ATOM     17  N   UNL     1       1.575  -6.196  -0.129  0.00  0.00    -0.122 NA
ATOM     18  N   UNL     1       2.691  -6.824  -0.256  0.00  0.00    -0.128 NA
ATOM     19  C   UNL     1       2.446  -8.153  -0.420  0.00  0.00    +0.167 A 
ATOM     20  N   UNL     1       1.091  -8.328  -0.383  0.00  0.00    -0.305 N 
ATOM     21  C   UNL     1       0.365  -9.594  -0.512  0.00  0.00    +0.153 C 
BRANCH  19  22
ATOM     22  C   UNL     1       3.416  -9.167  -0.592  0.00  0.00    +0.054 A 
ATOM     23  C   UNL     1       3.271 -10.123  -1.619  0.00  0.00    +0.014 A 
ATOM     24  C   UNL     1       4.211 -11.097  -1.777  0.00  0.00    +0.001 A 
ATOM     25  C   UNL     1       5.315 -11.156  -0.934  0.00  0.00    +0.003 A 
ATOM     26  C   UNL     1       5.478 -10.228   0.080  0.00  0.00    +0.039 A 
ATOM     27  C   UNL     1       4.543  -9.228   0.260  0.00  0.00    +0.134 A 
ATOM     28  F   UNL     1       4.701  -8.317   1.245  0.00  0.00    -0.205 F 
ENDBRANCH  19  22
ENDBRANCH  15  16
ENDBRANCH   4  15
TORSDOF 5
