REMARK  Name = ZINC32741224
REMARK  5 active torsions:
REMARK  status: ('A' for Active; 'I' for Inactive)
REMARK    1  A    between atoms: C_1  and  C_2
REMARK    2  A    between atoms: C_7  and  C_8
REMARK    3  A    between atoms: N_10  and  C_11
REMARK    4  A    between atoms: C_11  and  C_12
REMARK    5  A    between atoms: C_12  and  C_13
REMARK                            x       y       z     vdW  Elec       q    Type
REMARK                         _______ _______ _______ _____ _____    ______ ____
ROOT
ATOM      1  C   UNL     1       8.474  -1.567   0.979  0.00  0.00    +0.261 C 
ATOM      2  O   UNL     1       8.295  -1.815  -0.199  0.00  0.00    -0.269 OA
ATOM      3  N   UNL     1       7.436  -1.196   1.755  0.00  0.00    -0.310 N 
ATOM      4  H   UNL     1       7.598  -0.972   2.819  0.00  0.00    +0.149 HD
ENDROOT
BRANCH   1  11
ATOM      5  C   UNL     1      11.050  -2.414  -0.576  0.00  0.00    +0.047 C 
ATOM      6  C   UNL     1      10.951  -2.042   0.881  0.00  0.00    -0.010 A 
ATOM      7  C   UNL     1      12.001  -2.003   1.807  0.00  0.00    +0.042 A 
ATOM      8  C   UNL     1      11.466  -1.617   3.037  0.00  0.00    +0.027 A 
ATOM      9  N   UNL     1      10.158  -1.420   2.871  0.00  0.00    -0.354 N 
ATOM     10  H   UNL     1       9.537  -1.105   3.723  0.00  0.00    +0.166 HD
ATOM     11  C   UNL     1       9.821  -1.672   1.555  0.00  0.00    +0.106 A 
ATOM     12  C   UNL     1      12.301  -1.477   4.284  0.00  0.00    +0.054 C 
ATOM     13  C   UNL     1      13.595  -2.279   4.118  0.00  0.00    +0.014 C 
ATOM     14  C   UNL     1      14.311  -1.889   2.821  0.00  0.00    +0.080 C 
ATOM     15  C   UNL     1      13.433  -2.295   1.646  0.00  0.00    +0.165 C 
ATOM     16  O   UNL     1      13.883  -2.821   0.650  0.00  0.00    -0.292 OA
ENDBRANCH   1  11
BRANCH   3  17
ATOM     17  C   UNL     1       6.093  -1.091   1.180  0.00  0.00    +0.109 C 
BRANCH  17  18
ATOM     18  C   UNL     1       5.107  -0.655   2.265  0.00  0.00    +0.054 C 
BRANCH  18  19
ATOM     19  C   UNL     1       3.725  -0.548   1.674  0.00  0.00    -0.042 A 
ATOM     20  C   UNL     1       2.885  -1.646   1.677  0.00  0.00    +0.007 A 
ATOM     21  C   UNL     1       1.617  -1.553   1.135  0.00  0.00    +0.050 A 
ATOM     22  C   UNL     1       1.183  -0.356   0.589  0.00  0.00    +0.166 A 
ATOM     23  C   UNL     1       2.028   0.751   0.586  0.00  0.00    +0.166 A 
ATOM     24  C   UNL     1       3.299   0.650   1.130  0.00  0.00    +0.053 A 
ATOM     25  O   UNL     1       1.376   1.797  -0.001  0.00  0.00    -0.453 OA
ATOM     26  C   UNL     1      -0.018   1.436   0.010  0.00  0.00    +0.466 C 
ATOM     27  O   UNL     1       0.002  -0.004   0.002  0.00  0.00    -0.453 OA
ENDBRANCH  18  19
ENDBRANCH  17  18
ENDBRANCH   3  17
TORSDOF 4
