REMARK  Name = ZINC67255540
REMARK  7 active torsions:
REMARK  status: ('A' for Active; 'I' for Inactive)
REMARK    1  A    between atoms: C_1  and  N_2
REMARK    2  A    between atoms: N_2  and  C_3
REMARK    3  A    between atoms: C_3  and  C_4
REMARK    4  A    between atoms: N_6  and  C_7
REMARK    5  A    between atoms: N_17  and  C_18
REMARK    6  A    between atoms: C_21  and  C_24
REMARK    7  A    between atoms: C_24  and  C_25
REMARK                            x       y       z     vdW  Elec       q    Type
REMARK                         _______ _______ _______ _____ _____    ______ ____
ROOT
ATOM      1  C   UNL     1       0.010   1.527   0.054  0.00  0.00    +0.134 C 
ATOM      2  N   UNL     1       0.215   0.076   0.039  0.00  0.00    -0.280 N 
ATOM      3  C   UNL     1       0.251  -0.587  -1.133  0.00  0.00    +0.307 C 
ATOM      4  O   UNL     1       0.421  -1.791  -1.145  0.00  0.00    -0.252 OA
ATOM      5  N   UNL     1       0.099   0.084  -2.292  0.00  0.00    -0.269 N 
ATOM      6  H   UNL     1       0.039   1.052  -2.288  0.00  0.00    +0.156 HD
ENDROOT
BRANCH   5   7
ATOM      7  C   UNL     1       0.028  -0.617  -3.502  0.00  0.00    +0.035 A 
ATOM      8  C   UNL     1       0.553  -0.059  -4.660  0.00  0.00    +0.023 A 
ATOM      9  C   UNL     1       0.481  -0.753  -5.853  0.00  0.00    +0.006 A 
ATOM     10  C   UNL     1      -0.112  -2.001  -5.893  0.00  0.00    -0.034 A 
ATOM     11  C   UNL     1      -0.636  -2.559  -4.741  0.00  0.00    +0.006 A 
ATOM     12  C   UNL     1      -0.562  -1.873  -3.545  0.00  0.00    +0.023 A 
BRANCH  10  13
ATOM     13  C   UNL     1      -0.188  -2.755  -7.196  0.00  0.00    +0.153 C 
BRANCH  13  14
ATOM     14  C   UNL     1       1.013  -3.592  -7.349  0.00  0.00    +0.067 C 
ATOM     15  N   UNL     1       1.940  -4.238  -7.467  0.00  0.00    -0.196 NA
ENDBRANCH  13  14
ENDBRANCH  10  13
ENDBRANCH   5   7
BRANCH   2  16
ATOM     16  C   UNL     1       0.380  -0.653   1.299  0.00  0.00    +0.205 C 
BRANCH  16  17
ATOM     17  C   UNL     1      -0.969  -1.102   1.800  0.00  0.00    +0.235 C 
ATOM     18  O   UNL     1      -1.969  -0.839   1.167  0.00  0.00    -0.274 OA
ATOM     19  N   UNL     1      -1.063  -1.796   2.952  0.00  0.00    -0.284 N 
ATOM     20  H   UNL     1      -0.259  -2.065   3.423  0.00  0.00    +0.155 HD
BRANCH  19  21
ATOM     21  C   UNL     1      -2.320  -2.128   3.467  0.00  0.00    +0.039 A 
ATOM     22  C   UNL     1      -2.529  -2.135   4.840  0.00  0.00    +0.061 A 
ATOM     23  C   UNL     1      -3.773  -2.464   5.348  0.00  0.00    +0.128 A 
ATOM     24  C   UNL     1      -4.809  -2.788   4.488  0.00  0.00    +0.076 A 
ATOM     25  C   UNL     1      -4.603  -2.782   3.119  0.00  0.00    +0.128 A 
ATOM     26  C   UNL     1      -3.362  -2.447   2.607  0.00  0.00    +0.061 A 
ATOM     27  F   UNL     1      -5.615  -3.098   2.282  0.00  0.00    -0.205 F 
ATOM     28  F   UNL     1      -3.977  -2.471   6.683  0.00  0.00    -0.205 F 
ENDBRANCH  19  21
ENDBRANCH  16  17
ENDBRANCH   2  16
TORSDOF 6
