REMARK  Name = ZINC02727222
REMARK  9 active torsions:
REMARK  status: ('A' for Active; 'I' for Inactive)
REMARK    1  A    between atoms: C_1  and  C_2
REMARK    2  A    between atoms: C_2  and  C_3
REMARK    3  A    between atoms: C_3  and  O_4
REMARK    4  A    between atoms: O_4  and  C_5
REMARK    5  A    between atoms: C_7  and  C_28
REMARK    6  A    between atoms: C_12  and  C_17
REMARK    7  A    between atoms: C_22  and  O_23
REMARK    8  A    between atoms: O_23  and  C_24
REMARK    9  A    between atoms: C_26  and  C_27
REMARK                            x       y       z     vdW  Elec       q    Type
REMARK                         _______ _______ _______ _____ _____    ______ ____
ROOT
ATOM      1  C   UNL     1       1.443  -2.549   2.218  0.00  0.00    +0.338 C 
ATOM      2  C   UNL     1       1.467  -3.926   2.295  0.00  0.00    +0.070 C 
ATOM      3  C   UNL     1       2.251  -4.587   3.389  0.00  0.00    +0.099 C 
ATOM      4  C   UNL     1       2.146  -6.088   3.302  0.00  0.00    +0.028 C 
ATOM      5  C   UNL     1       1.412  -6.694   2.310  0.00  0.00    +0.050 C 
ATOM      6  C   UNL     1       1.325  -8.201   2.232  0.00  0.00    +0.064 C 
ATOM      7  C   UNL     1       1.431  -8.795   3.638  0.00  0.00    +0.036 C 
ATOM      8  C   UNL     1       2.760  -8.350   4.255  0.00  0.00    +0.088 C 
ATOM      9  C   UNL     1       2.818  -6.848   4.264  0.00  0.00    +0.162 C 
ATOM     10  O   UNL     1       3.464  -6.281   5.125  0.00  0.00    -0.292 OA
ATOM     11  N   UNL     1       0.759  -5.985   1.393  0.00  0.00    -0.256 NA
ATOM     12  C   UNL     1       0.762  -4.670   1.365  0.00  0.00    +0.049 C 
ATOM     13  C   UNL     1      -0.015  -3.957   0.289  0.00  0.00    +0.066 C 
ATOM     14  O   UNL     1       2.019  -1.810   3.186  0.00  0.00    -0.245 OA
ENDROOT
BRANCH   3  15
ATOM     15  C   UNL     1       3.699  -4.186   3.272  0.00  0.00    +0.047 A 
ATOM     16  C   UNL     1       4.309  -3.546   4.285  0.00  0.00    +0.204 A 
ATOM     17  O   UNL     1       5.590  -3.166   4.237  0.00  0.00    -0.462 OA
ATOM     18  C   UNL     1       6.373  -3.397   3.164  0.00  0.00    +0.138 A 
ATOM     19  C   UNL     1       7.702  -2.990   3.146  0.00  0.00    +0.047 A 
ATOM     20  C   UNL     1       8.482  -3.239   2.038  0.00  0.00    +0.004 A 
ATOM     21  C   UNL     1       7.956  -3.894   0.933  0.00  0.00    +0.001 A 
ATOM     22  C   UNL     1       6.641  -4.306   0.931  0.00  0.00    +0.015 A 
ATOM     23  C   UNL     1       5.842  -4.060   2.046  0.00  0.00    +0.064 A 
ATOM     24  C   UNL     1       4.430  -4.488   2.092  0.00  0.00    +0.197 A 
ATOM     25  O   UNL     1       3.913  -5.072   1.156  0.00  0.00    -0.287 OA
ENDBRANCH   3  15
BRANCH   7  26
ATOM     26  C   UNL     1       1.383 -10.299   3.557  0.00  0.00    -0.002 A 
ATOM     27  C   UNL     1       2.346 -10.983   2.840  0.00  0.00    +0.007 A 
ATOM     28  C   UNL     1       2.303 -12.363   2.765  0.00  0.00    +0.001 A 
ATOM     29  C   UNL     1       1.297 -13.062   3.408  0.00  0.00    +0.004 A 
ATOM     30  C   UNL     1       0.333 -12.382   4.126  0.00  0.00    +0.046 A 
ATOM     31  C   UNL     1       0.377 -10.998   4.207  0.00  0.00    +0.124 A 
BRANCH  31  32
ATOM     32  O   UNL     1      -0.568 -10.327   4.917  0.00  0.00    -0.495 OA
ATOM     33  C   UNL     1      -1.575 -11.111   5.561  0.00  0.00    +0.277 C 
ENDBRANCH  31  32
ENDBRANCH   7  26
BRANCH   1  34
ATOM     34  O   UNL     1       0.844  -1.943   1.175  0.00  0.00    -0.461 OA
BRANCH  34  35
ATOM     35  C   UNL     1       0.857  -0.514   1.159  0.00  0.00    +0.232 C 
BRANCH  35  37
ATOM     36  C   UNL     1       0.148   1.518  -0.109  0.00  0.00    +0.007 C 
ATOM     37  C   UNL     1       0.134  -0.012  -0.092  0.00  0.00    +0.038 C 
ENDBRANCH  35  37
ENDBRANCH  34  35
ENDBRANCH   1  34
TORSDOF 6
