REMARK  Name = ZINC27558113
REMARK  7 active torsions:
REMARK  status: ('A' for Active; 'I' for Inactive)
REMARK    1  A    between atoms: C_1  and  C_2
REMARK    2  A    between atoms: C_9  and  C_13
REMARK    3  A    between atoms: C_13  and  N_14
REMARK    4  A    between atoms: N_14  and  C_15
REMARK    5  A    between atoms: N_14  and  C_16
REMARK    6  A    between atoms: C_16  and  C_18
REMARK    7  A    between atoms: C_16  and  C_19
REMARK                            x       y       z     vdW  Elec       q    Type
REMARK                         _______ _______ _______ _____ _____    ______ ____
ROOT
ATOM      1  C   UNL     1      -0.391   0.582   0.121  0.00  0.00    +0.047 C 
ATOM      2  C   UNL     1      -0.732  -0.833   0.512  0.00  0.00    -0.009 A 
ATOM      3  C   UNL     1      -1.022  -1.759  -0.445  0.00  0.00    +0.008 A 
ATOM      4  C   UNL     1      -1.337  -3.071  -0.065  0.00  0.00    +0.019 A 
ATOM      5  C   UNL     1      -1.353  -3.414   1.243  0.00  0.00    +0.096 A 
ATOM      6  N   UNL     1      -1.065  -2.496   2.207  0.00  0.00    -0.269 N 
ATOM      7  C   UNL     1      -0.748  -1.210   1.867  0.00  0.00    +0.121 A 
ATOM      8  N   UNL     1      -0.460  -0.308   2.803  0.00  0.00    -0.343 N 
ATOM      9  C   UNL     1      -0.463  -0.625   4.089  0.00  0.00    +0.037 A 
ATOM     10  C   UNL     1      -0.771  -1.912   4.484  0.00  0.00    +0.093 A 
ATOM     11  C   UNL     1      -1.087  -2.862   3.506  0.00  0.00    +0.258 A 
ATOM     12  O   UNL     1      -1.364  -4.009   3.822  0.00  0.00    -0.267 OA
ATOM     13  H   UNL     1      -0.242   0.599   2.538  0.00  0.00    +0.167 HD
ENDROOT
BRANCH   9  14
ATOM     14  C   UNL     1      -0.131   0.421   5.122  0.00  0.00    +0.138 C 
BRANCH  14  15
ATOM     15  N   UNL     1       1.286   0.791   5.007  0.00  0.00    -0.293 NA
ATOM     16  C   UNL     1       1.503   1.696   3.871  0.00  0.00    +0.105 C 
BRANCH  15  17
ATOM     17  C   UNL     1       1.778   1.386   6.256  0.00  0.00    +0.084 C 
ATOM     18  C   UNL     1       3.257   1.746   6.102  0.00  0.00    +0.029 C 
BRANCH  17  19
ATOM     19  C   UNL     1       1.617   0.397   7.382  0.00  0.00    -0.030 A 
ATOM     20  C   UNL     1       2.020  -0.915   7.212  0.00  0.00    +0.008 A 
ATOM     21  C   UNL     1       1.873  -1.823   8.243  0.00  0.00    +0.038 A 
ATOM     22  C   UNL     1       1.322  -1.419   9.447  0.00  0.00    +0.123 A 
ATOM     23  C   UNL     1       0.919  -0.105   9.617  0.00  0.00    +0.038 A 
ATOM     24  C   UNL     1       1.072   0.803   8.586  0.00  0.00    +0.008 A 
ATOM     25  F   UNL     1       1.178  -2.305  10.456  0.00  0.00    -0.205 F 
ENDBRANCH  17  19
ENDBRANCH  15  17
ENDBRANCH  14  15
ENDBRANCH   9  14
TORSDOF 4
