REMARK  Name = ZINC63269897
REMARK  6 active torsions:
REMARK  status: ('A' for Active; 'I' for Inactive)
REMARK    1  A    between atoms: C_1  and  C_2
REMARK    2  A    between atoms: C_2  and  C_3
REMARK    3  A    between atoms: C_2  and  N_4
REMARK    4  A    between atoms: N_7  and  N_8
REMARK    5  A    between atoms: C_9  and  C_11
REMARK    6  A    between atoms: C_12  and  C_13
REMARK                            x       y       z     vdW  Elec       q    Type
REMARK                         _______ _______ _______ _____ _____    ______ ____
ROOT
ATOM      1  N   UNL     1      -3.940  -1.414   0.052  0.00  0.00    -0.230 N 
ATOM      2  C   UNL     1      -5.205  -1.881   0.061  0.00  0.00    +0.253 C 
ATOM      3  O   UNL     1      -5.450  -2.987  -0.389  0.00  0.00    -0.269 OA
ATOM      4  H   UNL     1      -3.745  -0.534   0.409  0.00  0.00    +0.173 HD
ENDROOT
BRANCH   1   8
ATOM      5  N   UNL     1      -1.372  -0.511   0.012  0.00  0.00    -0.296 N 
ATOM      6  C   UNL     1      -1.643  -1.734  -0.485  0.00  0.00    +0.316 C 
ATOM      7  O   UNL     1      -0.747  -2.417  -0.942  0.00  0.00    -0.251 OA
ATOM      8  N   UNL     1      -2.908  -2.201  -0.475  0.00  0.00    -0.218 N 
ATOM      9  H   UNL     1      -2.087   0.033   0.377  0.00  0.00    +0.151 HD
ATOM     10  H   UNL     1      -3.103  -3.081  -0.833  0.00  0.00    +0.174 HD
BRANCH   5  12
ATOM     11  C   UNL     1      -0.019   1.526   0.010  0.00  0.00    +0.027 C 
ATOM     12  C   UNL     1       0.002  -0.004   0.002  0.00  0.00    +0.068 C 
ATOM     13  C   UNL     1       0.742  -0.511   1.242  0.00  0.00    +0.027 C 
ENDBRANCH   5  12
ENDBRANCH   1   8
BRANCH   2  14
ATOM     14  C   UNL     1      -6.243  -1.090   0.591  0.00  0.00    +0.071 C 
ATOM     15  C   UNL     1      -7.521  -1.562   0.601  0.00  0.00    +0.034 C 
BRANCH  15  16
ATOM     16  C   UNL     1      -8.559  -0.771   1.130  0.00  0.00    +0.085 A 
ATOM     17  C   UNL     1      -8.563  -0.128   2.357  0.00  0.00    +0.156 A 
ATOM     18  N   UNL     1      -9.722   0.510   2.481  0.00  0.00    -0.209 NA
ATOM     19  C   UNL     1     -10.450   0.310   1.411  0.00  0.00    +0.179 A 
ATOM     20  N   UNL     1      -9.789  -0.479   0.512  0.00  0.00    -0.292 N 
ATOM     21  C   UNL     1     -10.437  -0.766  -0.666  0.00  0.00    +0.101 A 
ATOM     22  C   UNL     1     -11.657  -0.286  -0.909  0.00  0.00    +0.067 A 
ATOM     23  S   UNL     1     -11.990   0.638   0.583  0.00  0.00    -0.058 S 
ATOM     24 CL   UNL     1      -7.280  -0.151   3.526  0.00  0.00    -0.060 Cl
ENDBRANCH  15  16
ENDBRANCH   2  14
TORSDOF 4
