REMARK  Name = ZINC07701141
REMARK  3 active torsions:
REMARK  status: ('A' for Active; 'I' for Inactive)
REMARK    1  A    between atoms: C_1  and  C_2
REMARK    2  A    between atoms: C_5  and  C_9
REMARK    3  A    between atoms: C_6  and  C_8
REMARK                            x       y       z     vdW  Elec       q    Type
REMARK                         _______ _______ _______ _____ _____    ______ ____
ROOT
ATOM      1  C   UNL     1       6.918  -2.092   1.852  0.00  0.00    +0.028 C 
ATOM      2  C   UNL     1       5.628  -1.770   1.590  0.00  0.00    +0.079 C 
ATOM      3  C   UNL     1       4.436  -2.645   1.467  0.00  0.00    +0.276 C 
ATOM      4  O   UNL     1       4.509  -3.856   1.603  0.00  0.00    -0.267 OA
ATOM      5  N   UNL     1       3.297  -2.044   1.204  0.00  0.00    -0.154 NA
ATOM      6  C   UNL     1       3.204  -0.732   1.056  0.00  0.00    +0.154 C 
ATOM      7  S   UNL     1       4.884  -0.172   1.290  0.00  0.00    -0.052 S 
ATOM      8  N   UNL     1       2.090   0.015   0.782  0.00  0.00    -0.311 N 
ATOM      9  C   UNL     1       0.780  -0.628   0.615  0.00  0.00    +0.107 C 
ATOM     10  C   UNL     1       0.184  -0.191  -0.727  0.00  0.00    +0.019 C 
ATOM     11  C   UNL     1       0.146   1.338  -0.790  0.00  0.00    +0.003 C 
ATOM     12  C   UNL     1       1.570   1.889  -0.692  0.00  0.00    +0.019 C 
ATOM     13  C   UNL     1       2.182   1.476   0.650  0.00  0.00    +0.107 C 
ENDROOT
BRANCH   1  18
ATOM     14  C   UNL     1      11.008   1.932   1.521  0.00  0.00    +0.044 C 
ATOM     15  C   UNL     1       9.936   0.877   1.608  0.00  0.00    -0.050 A 
ATOM     16  C   UNL     1       8.713   1.086   0.994  0.00  0.00    +0.004 A 
ATOM     17  C   UNL     1       7.727   0.126   1.068  0.00  0.00    +0.008 A 
ATOM     18  C   UNL     1       7.965  -1.063   1.767  0.00  0.00    -0.021 A 
ATOM     19  C   UNL     1       9.201  -1.264   2.390  0.00  0.00    -0.043 A 
ATOM     20  C   UNL     1      10.179  -0.296   2.301  0.00  0.00    +0.007 A 
ATOM     21  C   UNL     1       9.466  -2.538   3.151  0.00  0.00    +0.044 C 
ENDBRANCH   1  18
TORSDOF 1
