REMARK  Name = ZINC08680652
REMARK  7 active torsions:
REMARK  status: ('A' for Active; 'I' for Inactive)
REMARK    1  A    between atoms: C_6  and  C_7
REMARK    2  A    between atoms: C_7  and  C_9
REMARK    3  A    between atoms: C_7  and  N_18
REMARK    4  A    between atoms: N_11  and  C_12
REMARK    5  A    between atoms: N_18  and  C_19
REMARK    6  A    between atoms: C_19  and  C_20
REMARK    7  A    between atoms: C_29  and  C_31
REMARK                            x       y       z     vdW  Elec       q    Type
REMARK                         _______ _______ _______ _____ _____    ______ ____
ROOT
ATOM      1  C   UNL     1      -1.008  -1.134  -0.088  0.00  0.00    +0.193 C 
ENDROOT
BRANCH   1   7
ATOM      2  C   UNL     1       1.438  -0.735  -0.439  0.00  0.00    +0.009 A 
ATOM      3  C   UNL     1       2.701  -1.171  -0.792  0.00  0.00    +0.038 A 
ATOM      4  C   UNL     1       2.895  -2.486  -1.180  0.00  0.00    +0.123 A 
ATOM      5  C   UNL     1       1.824  -3.362  -1.215  0.00  0.00    +0.038 A 
ATOM      6  C   UNL     1       0.562  -2.924  -0.861  0.00  0.00    +0.009 A 
ATOM      7  C   UNL     1       0.369  -1.611  -0.473  0.00  0.00    -0.018 A 
ATOM      8  F   UNL     1       4.129  -2.913  -1.526  0.00  0.00    -0.205 F 
ENDBRANCH   1   7
BRANCH   1   9
ATOM      9  C   UNL     1      -1.391  -1.727   1.243  0.00  0.00    +0.238 C 
ATOM     10  O   UNL     1      -1.768  -2.878   1.309  0.00  0.00    -0.273 OA
ATOM     11  N   UNL     1      -1.313  -0.979   2.362  0.00  0.00    -0.311 N 
ATOM     12  H   UNL     1      -1.012  -0.058   2.309  0.00  0.00    +0.149 HD
BRANCH  11  13
ATOM     13  C   UNL     1      -1.685  -1.555   3.656  0.00  0.00    +0.073 C 
ATOM     14  C   UNL     1      -3.198  -1.432   3.854  0.00  0.00    +0.022 C 
ATOM     15  C   UNL     1      -3.586  -2.034   5.205  0.00  0.00    +0.002 C 
ATOM     16  C   UNL     1      -2.862  -1.283   6.325  0.00  0.00    +0.000 C 
ATOM     17  C   UNL     1      -1.350  -1.407   6.127  0.00  0.00    +0.002 C 
ATOM     18  C   UNL     1      -0.962  -0.804   4.776  0.00  0.00    +0.022 C 
ENDBRANCH  11  13
ENDBRANCH   1   9
BRANCH   1  19
ATOM     19  N   UNL     1      -1.973  -1.555  -1.106  0.00  0.00    -0.276 N 
ATOM     20  C   UNL     1      -2.270  -0.736  -2.134  0.00  0.00    +0.268 C 
ATOM     21  O   UNL     1      -3.222  -0.978  -2.849  0.00  0.00    -0.268 OA
BRANCH  20  22
ATOM     22  C   UNL     1      -1.438   0.458  -2.391  0.00  0.00    +0.154 A 
ATOM     23  C   UNL     1      -1.722   1.368  -3.402  0.00  0.00    +0.155 A 
ATOM     24  N   UNL     1      -0.887   2.370  -3.497  0.00  0.00    -0.198 NA
ATOM     25  S   UNL     1       0.194   2.115  -2.326  0.00  0.00    +0.116 S 
ATOM     26  N   UNL     1      -0.365   0.748  -1.674  0.00  0.00    -0.186 NA
ENDBRANCH  20  22
BRANCH  19  27
ATOM     27  C   UNL     1      -2.616  -2.868  -1.007  0.00  0.00    +0.144 C 
BRANCH  27  28
ATOM     28  C   UNL     1      -4.045  -2.695  -0.559  0.00  0.00    -0.026 A 
ATOM     29  C   UNL     1      -4.335  -2.567   0.787  0.00  0.00    +0.009 A 
ATOM     30  C   UNL     1      -5.644  -2.408   1.202  0.00  0.00    +0.050 A 
ATOM     31  C   UNL     1      -6.668  -2.376   0.270  0.00  0.00    +0.166 A 
ATOM     32  C   UNL     1      -6.376  -2.505  -1.085  0.00  0.00    +0.167 A 
ATOM     33  C   UNL     1      -5.061  -2.659  -1.495  0.00  0.00    +0.054 A 
ATOM     34  O   UNL     1      -7.543  -2.443  -1.791  0.00  0.00    -0.453 OA
ATOM     35  C   UNL     1      -8.587  -2.685  -0.830  0.00  0.00    +0.466 C 
ATOM     36  O   UNL     1      -8.018  -2.233   0.414  0.00  0.00    -0.453 OA
ENDBRANCH  27  28
ENDBRANCH  19  27
ENDBRANCH   1  19
TORSDOF 7
