REMARK  Name = ZINC32986173
REMARK  4 active torsions:
REMARK  status: ('A' for Active; 'I' for Inactive)
REMARK    1  A    between atoms: C_4  and  O_7
REMARK    2  A    between atoms: O_7  and  C_8
REMARK    3  A    between atoms: C_13  and  C_14
REMARK    4  A    between atoms: C_18  and  C_27
REMARK                            x       y       z     vdW  Elec       q    Type
REMARK                         _______ _______ _______ _____ _____    ______ ____
ROOT
ATOM      1  C   UNL     1      -2.417   3.948  -0.381  0.00  0.00    +0.255 C 
ATOM      2  O   UNL     1      -2.247   5.124  -0.641  0.00  0.00    -0.270 OA
ATOM      3  N   UNL     1      -3.648   3.408  -0.481  0.00  0.00    -0.260 N 
ATOM      4  C   UNL     1      -3.910   2.023  -0.054  0.00  0.00    +0.168 C 
ATOM      5  C   UNL     1      -5.249   2.014   0.697  0.00  0.00    +0.276 C 
ATOM      6  O   UNL     1      -6.268   2.512  -0.173  0.00  0.00    -0.476 OA
ATOM      7  C   UNL     1      -6.027   3.679  -0.827  0.00  0.00    +0.143 A 
ATOM      8  C   UNL     1      -4.728   4.148  -0.992  0.00  0.00    +0.079 A 
ATOM      9  C   UNL     1      -4.498   5.339  -1.661  0.00  0.00    +0.027 A 
ATOM     10  C   UNL     1      -5.565   6.066  -2.159  0.00  0.00    +0.002 A 
ATOM     11  C   UNL     1      -6.857   5.604  -1.989  0.00  0.00    +0.004 A 
ATOM     12  C   UNL     1      -7.089   4.413  -1.333  0.00  0.00    +0.047 A 
ENDROOT
BRANCH   1  18
ATOM     13  C   UNL     1      -0.144   3.707   0.617  0.00  0.00    +0.141 A 
ATOM     14  C   UNL     1       0.921   2.912   1.013  0.00  0.00    +0.047 A 
ATOM     15  C   UNL     1       0.865   1.543   0.842  0.00  0.00    +0.004 A 
ATOM     16  C   UNL     1      -0.254   0.953   0.276  0.00  0.00    +0.001 A 
ATOM     17  C   UNL     1      -1.319   1.728  -0.128  0.00  0.00    +0.017 A 
ATOM     18  C   UNL     1      -1.278   3.114   0.044  0.00  0.00    +0.079 A 
BRANCH  13  19
ATOM     19  O   UNL     1      -0.090   5.052   0.784  0.00  0.00    -0.455 OA
BRANCH  19  23
ATOM     20  C   UNL     1       3.433   6.693   2.167  0.00  0.00    +0.000 A 
ATOM     21  C   UNL     1       3.330   6.290   0.848  0.00  0.00    +0.004 A 
ATOM     22  C   UNL     1       2.151   5.741   0.382  0.00  0.00    +0.046 A 
ATOM     23  C   UNL     1       1.070   5.592   1.240  0.00  0.00    +0.128 A 
ATOM     24  C   UNL     1       1.175   6.001   2.561  0.00  0.00    +0.046 A 
ATOM     25  C   UNL     1       2.357   6.546   3.023  0.00  0.00    +0.004 A 
ENDBRANCH  19  23
ENDBRANCH  13  19
ENDBRANCH   1  18
BRANCH   5  26
ATOM     26  C   UNL     1      -5.585   0.605   1.114  0.00  0.00    +0.253 C 
ATOM     27  O   UNL     1      -6.556   0.050   0.646  0.00  0.00    -0.272 OA
ATOM     28  N   UNL     1      -4.806  -0.037   2.007  0.00  0.00    -0.326 N 
ATOM     29  H   UNL     1      -5.051  -1.065   2.311  0.00  0.00    +0.145 HD
ATOM     30  H   UNL     1      -3.925   0.467   2.431  0.00  0.00    +0.145 HD
ENDBRANCH   5  26
TORSDOF 4
