REMARK  Name = ZINC17158170
REMARK  4 active torsions:
REMARK  status: ('A' for Active; 'I' for Inactive)
REMARK    1  A    between atoms: C_4  and  N_7
REMARK    2  A    between atoms: C_10  and  C_12
REMARK    3  A    between atoms: N_14  and  N_15
REMARK    4  A    between atoms: C_16  and  C_18
REMARK                            x       y       z     vdW  Elec       q    Type
REMARK                         _______ _______ _______ _____ _____    ______ ____
ROOT
ATOM      1  C   UNL     1       5.632  -3.587  -0.083  0.00  0.00    +0.282 C 
ATOM      2  O   UNL     1       6.838  -3.735  -0.094  0.00  0.00    -0.267 OA
ATOM      3  N   UNL     1       4.821  -4.664  -0.087  0.00  0.00    -0.229 N 
ATOM      4  H   UNL     1       3.859  -4.547  -0.079  0.00  0.00    +0.173 HD
ENDROOT
BRANCH   1   8
ATOM      5  N   UNL     1       3.623  -0.652  -0.037  0.00  0.00    -0.150 N 
ATOM      6  N   UNL     1       4.890  -0.053  -0.041  0.00  0.00    -0.155 NA
ATOM      7  C   UNL     1       5.776  -1.022  -0.058  0.00  0.00    +0.169 A 
ATOM      8  C   UNL     1       5.054  -2.228  -0.064  0.00  0.00    +0.169 A 
ATOM      9  N   UNL     1       3.767  -1.931  -0.046  0.00  0.00    -0.142 NA
BRANCH   5  13
ATOM     10  C   UNL     1      -0.017   1.379   0.010  0.00  0.00    +0.000 A 
ATOM     11  C   UNL     1       1.170   2.089   0.002  0.00  0.00    +0.002 A 
ATOM     12  C   UNL     1       2.377   1.419  -0.013  0.00  0.00    +0.029 A 
ATOM     13  C   UNL     1       2.400   0.031  -0.021  0.00  0.00    +0.086 A 
ATOM     14  C   UNL     1       1.207  -0.680  -0.013  0.00  0.00    +0.029 A 
ATOM     15  C   UNL     1       0.002  -0.004   0.002  0.00  0.00    +0.002 A 
ENDBRANCH   5  13
ENDBRANCH   1   8
BRANCH   3  16
ATOM     16  N   UNL     1       5.370  -5.954  -0.105  0.00  0.00    -0.234 N 
ATOM     17  C   UNL     1       4.559  -7.030  -0.110  0.00  0.00    +0.235 C 
ATOM     18  O   UNL     1       3.355  -6.883  -0.098  0.00  0.00    -0.274 OA
ATOM     19  H   UNL     1       6.332  -6.071  -0.114  0.00  0.00    +0.173 HD
BRANCH  17  20
ATOM     20  C   UNL     1       5.149  -8.417  -0.128  0.00  0.00    +0.049 C 
ATOM     21  C   UNL     1       6.002  -8.591  -1.386  0.00  0.00    +0.019 C 
ATOM     22  C   UNL     1       6.601  -9.999  -1.406  0.00  0.00    -0.009 C 
ATOM     23  C   UNL     1       5.473 -11.033  -1.407  0.00  0.00    +0.007 C 
ATOM     24  C   UNL     1       4.620 -10.859  -0.149  0.00  0.00    -0.009 C 
ATOM     25  C   UNL     1       4.021  -9.451  -0.130  0.00  0.00    +0.019 C 
ATOM     26  C   UNL     1       5.493 -11.059   1.091  0.00  0.00    +0.007 C 
ATOM     27  C   UNL     1       6.621 -10.025   1.093  0.00  0.00    -0.009 C 
ATOM     28  C   UNL     1       7.474 -10.199  -0.165  0.00  0.00    +0.007 C 
ATOM     29  C   UNL     1       6.022  -8.617   1.112  0.00  0.00    +0.019 C 
ENDBRANCH  17  20
ENDBRANCH   3  16
TORSDOF 4
