REMARK  Name = ZINC35791737
REMARK  10 active torsions:
REMARK  status: ('A' for Active; 'I' for Inactive)
REMARK    1  A    between atoms: C_1  and  C_2
REMARK    2  A    between atoms: C_2  and  O_3
REMARK    3  A    between atoms: O_3  and  C_4
REMARK    4  A    between atoms: C_6  and  C_11
REMARK    5  A    between atoms: C_9  and  O_10
REMARK    6  A    between atoms: C_11  and  N_12
REMARK    7  A    between atoms: C_21  and  C_23
REMARK    8  A    between atoms: C_24  and  C_31
REMARK    9  A    between atoms: C_26  and  C_30
REMARK   10  A    between atoms: C_28  and  C_29
REMARK                            x       y       z     vdW  Elec       q    Type
REMARK                         _______ _______ _______ _____ _____    ______ ____
ROOT
ATOM      1  N   UNL     1      -2.033  -5.670   0.207  0.00  0.00    +0.391 N 
ATOM      2  C   UNL     1      -2.432  -6.465  -0.957  0.00  0.00    -0.075 C 
ATOM      3  C   UNL     1      -3.939  -6.402  -1.173  0.00  0.00    +0.003 C 
ATOM      4  C   UNL     1      -4.464  -5.023  -0.762  0.00  0.00    +0.119 C 
ATOM      5  N   UNL     1      -4.792  -5.045   0.669  0.00  0.00    -0.352 N 
ATOM      6  C   UNL     1      -5.926  -4.561   1.246  0.00  0.00    +0.086 A 
ATOM      7  C   UNL     1      -5.838  -4.755   2.578  0.00  0.00    +0.019 A 
ATOM      8  C   UNL     1      -4.604  -5.388   2.831  0.00  0.00    +0.021 A 
ATOM      9  C   UNL     1      -3.988  -5.560   1.646  0.00  0.00    +0.009 A 
ATOM     10  C   UNL     1      -2.647  -6.218   1.425  0.00  0.00    +0.011 C 
ATOM     11  H   UNL     1      -2.336  -4.717   0.079  0.00  0.00    -0.080 HD
ENDROOT
BRANCH  10  12
ATOM     12  C   UNL     1      -1.752  -5.944   2.606  0.00  0.00    -0.049 A 
ATOM     13  C   UNL     1      -1.452  -4.642   2.959  0.00  0.00    -0.048 A 
ATOM     14  C   UNL     1      -0.631  -4.391   4.043  0.00  0.00    +0.007 A 
ATOM     15  C   UNL     1      -0.111  -5.443   4.774  0.00  0.00    -0.050 A 
ATOM     16  C   UNL     1      -0.413  -6.745   4.422  0.00  0.00    +0.007 A 
ATOM     17  C   UNL     1      -1.237  -6.996   3.341  0.00  0.00    -0.048 A 
ATOM     18  C   UNL     1      -1.570  -8.416   2.960  0.00  0.00    +0.044 C 
ATOM     19  C   UNL     1       0.785  -5.170   5.954  0.00  0.00    +0.044 C 
ATOM     20  C   UNL     1      -2.018  -3.495   2.162  0.00  0.00    +0.044 C 
ENDBRANCH  10  12
BRANCH   1  21
ATOM     21  C   UNL     1      -0.571  -5.704   0.342  0.00  0.00    -0.042 C 
BRANCH  21  24
ATOM     22  C   UNL     1       0.900  -3.098  -1.965  0.00  0.00    +0.162 A 
ATOM     23  C   UNL     1       0.321  -3.697  -0.857  0.00  0.00    +0.051 A 
ATOM     24  C   UNL     1       0.059  -5.054  -0.863  0.00  0.00    -0.060 A 
ATOM     25  C   UNL     1       0.375  -5.818  -1.972  0.00  0.00    +0.005 A 
ATOM     26  C   UNL     1       0.954  -5.227  -3.079  0.00  0.00    +0.049 A 
ATOM     27  C   UNL     1       1.213  -3.865  -3.083  0.00  0.00    +0.158 A 
BRANCH  27  28
ATOM     28  O   UNL     1       1.777  -3.281  -4.174  0.00  0.00    -0.503 OA
ATOM     29  H   UNL     1       2.743  -3.268  -4.157  0.00  0.00    +0.292 HD
ENDBRANCH  27  28
BRANCH  22  30
ATOM     30  O   UNL     1       1.157  -1.763  -1.961  0.00  0.00    -0.489 OA
BRANCH  30  32
ATOM     31  C   UNL     1       1.171   0.437  -0.961  0.00  0.00    +0.048 C 
ATOM     32  C   UNL     1       0.810  -1.039  -0.779  0.00  0.00    +0.226 C 
ENDBRANCH  30  32
ENDBRANCH  22  30
ENDBRANCH  21  24
ENDBRANCH   1  21
TORSDOF 6
