REMARK  Name = ZINC12541520
REMARK  11 active torsions:
REMARK  status: ('A' for Active; 'I' for Inactive)
REMARK    1  A    between atoms: C_1  and  C_2
REMARK    2  A    between atoms: C_5  and  C_9
REMARK    3  A    between atoms: C_7  and  C_8
REMARK    4  A    between atoms: C_18  and  C_21
REMARK    5  A    between atoms: C_21  and  O_23
REMARK    6  A    between atoms: O_23  and  C_24
REMARK    7  A    between atoms: C_24  and  C_25
REMARK    8  A    between atoms: N_27  and  N_28
REMARK    9  A    between atoms: C_29  and  C_31
REMARK   10  A    between atoms: C_36  and  O_37
REMARK   11  A    between atoms: O_37  and  C_38
REMARK                            x       y       z     vdW  Elec       q    Type
REMARK                         _______ _______ _______ _____ _____    ______ ____
ROOT
ATOM      1  C   UNL     1       3.571   2.070   1.228  0.00  0.00    +0.314 C 
ATOM      2  O   UNL     1       4.499   1.298   1.215  0.00  0.00    -0.250 OA
ENDROOT
BRANCH   1  10
ATOM      3  C   UNL     1       0.742  -0.511   1.242  0.00  0.00    -0.003 C 
ATOM      4  C   UNL     1       0.002  -0.004   0.002  0.00  0.00    +0.015 C 
ATOM      5  C   UNL     1      -0.019   1.526   0.010  0.00  0.00    -0.009 C 
ATOM      6  C   UNL     1      -0.735   2.019   1.269  0.00  0.00    +0.007 C 
ATOM      7  C   UNL     1       0.005   1.512   2.509  0.00  0.00    -0.009 C 
ATOM      8  C   UNL     1       0.026  -0.018   2.500  0.00  0.00    +0.015 C 
ATOM      9  C   UNL     1       1.441   2.042   2.498  0.00  0.00    +0.021 C 
ATOM     10  C   UNL     1       2.157   1.548   1.239  0.00  0.00    +0.069 C 
ATOM     11  C   UNL     1       1.417   2.055  -0.000  0.00  0.00    +0.021 C 
ATOM     12  C   UNL     1       2.178   0.019   1.231  0.00  0.00    +0.029 C 
BRANCH   3  17
ATOM     13  C   UNL     1       0.820  -6.289   1.210  0.00  0.00    +0.044 C 
ATOM     14  C   UNL     1       0.800  -4.782   1.218  0.00  0.00    -0.048 A 
ATOM     15  C   UNL     1       0.203  -4.105   2.265  0.00  0.00    +0.004 A 
ATOM     16  C   UNL     1       0.188  -2.723   2.275  0.00  0.00    +0.004 A 
ATOM     17  C   UNL     1       0.762  -2.018   1.233  0.00  0.00    -0.041 A 
ATOM     18  C   UNL     1       1.360  -2.695   0.187  0.00  0.00    +0.007 A 
ATOM     19  C   UNL     1       1.379  -4.077   0.180  0.00  0.00    -0.047 A 
ATOM     20  C   UNL     1       2.030  -4.816  -0.961  0.00  0.00    +0.044 C 
ENDBRANCH   3  17
ENDBRANCH   1  10
BRANCH   1  21
ATOM     21  O   UNL     1       3.798   3.393   1.233  0.00  0.00    -0.455 OA
BRANCH  21  22
ATOM     22  C   UNL     1       5.184   3.824   1.222  0.00  0.00    +0.329 C 
BRANCH  22  23
ATOM     23  C   UNL     1       5.243   5.330   1.230  0.00  0.00    +0.267 C 
ATOM     24  O   UNL     1       4.217   5.976   1.243  0.00  0.00    -0.271 OA
ATOM     25  N   UNL     1       6.435   5.958   1.222  0.00  0.00    -0.231 N 
ATOM     26  H   UNL     1       7.366   5.371   1.210  0.00  0.00    +0.173 HD
BRANCH  25  27
ATOM     27  N   UNL     1       6.490   7.358   1.229  0.00  0.00    -0.230 N 
ATOM     28  C   UNL     1       7.682   7.986   1.221  0.00  0.00    +0.264 C 
ATOM     29  O   UNL     1       8.711   7.337   1.208  0.00  0.00    -0.269 OA
ATOM     30  H   UNL     1       5.559   7.944   1.241  0.00  0.00    +0.173 HD
BRANCH  28  31
ATOM     31  C   UNL     1       7.739   9.460   1.228  0.00  0.00    +0.081 A 
ATOM     32  C   UNL     1       6.560  10.209   1.244  0.00  0.00    +0.036 A 
ATOM     33  C   UNL     1       6.620  11.586   1.251  0.00  0.00    +0.042 A 
ATOM     34  C   UNL     1       7.847  12.232   1.244  0.00  0.00    +0.023 A 
ATOM     35  C   UNL     1       9.020  11.503   1.228  0.00  0.00    +0.048 A 
ATOM     36  C   UNL     1       8.977  10.117   1.226  0.00  0.00    +0.132 A 
ATOM     37 CL   UNL     1       5.154  12.516   1.270  0.00  0.00    -0.084 Cl
BRANCH  36  38
ATOM     38  O   UNL     1      10.129   9.400   1.216  0.00  0.00    -0.494 OA
ATOM     39  C   UNL     1      11.352  10.138   1.214  0.00  0.00    +0.277 C 
ENDBRANCH  36  38
ENDBRANCH  28  31
ENDBRANCH  25  27
ENDBRANCH  22  23
ENDBRANCH  21  22
ENDBRANCH   1  21
TORSDOF 8
