REMARK  Name = ZINC33916772
REMARK  5 active torsions:
REMARK  status: ('A' for Active; 'I' for Inactive)
REMARK    1  A    between atoms: C_1  and  C_2
REMARK    2  A    between atoms: C_5  and  N_9
REMARK    3  A    between atoms: C_14  and  C_26
REMARK    4  A    between atoms: N_16  and  C_22
REMARK    5  A    between atoms: C_22  and  C_23
REMARK                            x       y       z     vdW  Elec       q    Type
REMARK                         _______ _______ _______ _____ _____    ______ ____
ROOT
ATOM      1  N   UNL     1       0.059  -4.173  -0.022  0.00  0.00    -0.208 N 
ATOM      2  C   UNL     1       0.069  -4.939   1.116  0.00  0.00    +0.234 C 
ATOM      3  O   UNL     1      -0.150  -4.579   2.252  0.00  0.00    -0.274 OA
ATOM      4  C   UNL     1       0.398  -6.271   0.662  0.00  0.00    +0.139 C 
ATOM      5  C   UNL     1       0.265  -7.666   1.117  0.00  0.00    +0.130 C 
ATOM      6  N   UNL     1       0.355  -8.435  -0.171  0.00  0.00    -0.170 NA
ATOM      7  O   UNL     1       0.433  -7.429  -1.271  0.00  0.00    -0.282 OA
ATOM      8  C   UNL     1      -0.317  -6.317  -0.746  0.00  0.00    +0.242 C 
ATOM      9  C   UNL     1       0.062  -4.922  -1.163  0.00  0.00    +0.258 C 
ATOM     10  O   UNL     1       0.319  -4.541  -2.285  0.00  0.00    -0.272 OA
ENDROOT
BRANCH   1  15
ATOM     11  C   UNL     1      -0.018   1.503   0.010  0.00  0.00    +0.045 C 
ATOM     12  C   UNL     1       0.002  -0.004   0.002  0.00  0.00    -0.032 A 
ATOM     13  C   UNL     1       0.006  -0.688  -1.200  0.00  0.00    +0.006 A 
ATOM     14  C   UNL     1       0.025  -2.068  -1.211  0.00  0.00    +0.024 A 
ATOM     15  C   UNL     1       0.040  -2.771  -0.013  0.00  0.00    +0.045 A 
ATOM     16  C   UNL     1       0.037  -2.084   1.192  0.00  0.00    +0.044 A 
ATOM     17  C   UNL     1       0.023  -0.701   1.197  0.00  0.00    +0.046 A 
ATOM     18 CL   UNL     1       0.025   0.161   2.704  0.00  0.00    -0.083 Cl
ENDBRANCH   1  15
BRANCH   5  19
ATOM     19  C   UNL     1       1.391  -8.036   2.047  0.00  0.00    -0.027 A 
ATOM     20  C   UNL     1       2.630  -8.371   1.533  0.00  0.00    +0.007 A 
ATOM     21  C   UNL     1       3.663  -8.711   2.386  0.00  0.00    +0.020 A 
ATOM     22  C   UNL     1       3.457  -8.716   3.754  0.00  0.00    +0.041 A 
ATOM     23  C   UNL     1       2.217  -8.381   4.268  0.00  0.00    +0.020 A 
ATOM     24  C   UNL     1       1.186  -8.036   3.414  0.00  0.00    +0.007 A 
ATOM     25 CL   UNL     1       4.754  -9.143   4.826  0.00  0.00    -0.084 Cl
ENDBRANCH   5  19
BRANCH   6  26
ATOM     26  C   UNL     1      -0.809  -9.313  -0.343  0.00  0.00    +0.210 C 
BRANCH  26  27
ATOM     27  C   UNL     1      -0.572 -10.241  -1.507  0.00  0.00    +0.227 C 
ATOM     28  O   UNL     1       0.466 -10.176  -2.132  0.00  0.00    -0.275 OA
ATOM     29  N   UNL     1      -1.512 -11.142  -1.853  0.00  0.00    -0.328 N 
ATOM     30  H   UNL     1      -2.341 -11.194  -1.353  0.00  0.00    +0.145 HD
ATOM     31  H   UNL     1      -1.359 -11.739  -2.602  0.00  0.00    +0.145 HD
ENDBRANCH  26  27
ENDBRANCH   6  26
TORSDOF 4
