REMARK  Name = ZINC12490324
REMARK  12 active torsions:
REMARK  status: ('A' for Active; 'I' for Inactive)
REMARK    1  A    between atoms: C_1  and  C_2
REMARK    2  A    between atoms: C_4  and  O_12
REMARK    3  A    between atoms: C_5  and  C_9
REMARK    4  A    between atoms: C_9  and  C_10
REMARK    5  A    between atoms: C_9  and  C_11
REMARK    6  A    between atoms: O_12  and  C_13
REMARK    7  A    between atoms: C_13  and  C_14
REMARK    8  A    between atoms: N_16  and  N_17
REMARK    9  A    between atoms: C_18  and  C_20
REMARK   10  A    between atoms: C_20  and  C_22
REMARK   11  A    between atoms: C_20  and  O_23
REMARK   12  A    between atoms: O_23  and  C_24
REMARK                            x       y       z     vdW  Elec       q    Type
REMARK                         _______ _______ _______ _____ _____    ______ ____
ROOT
ATOM      1  C   UNL     1      -0.462  -2.440  -4.799  0.00  0.00    +0.267 C 
ATOM      2  O   UNL     1      -0.636  -3.618  -4.567  0.00  0.00    -0.271 OA
ATOM      3  N   UNL     1      -0.300  -2.020  -6.069  0.00  0.00    -0.231 N 
ATOM      4  H   UNL     1      -0.161  -1.078  -6.255  0.00  0.00    +0.173 HD
ENDROOT
BRANCH   3   5
ATOM      5  N   UNL     1      -0.334  -2.944  -7.122  0.00  0.00    -0.231 N 
ATOM      6  C   UNL     1      -0.172  -2.524  -8.393  0.00  0.00    +0.270 C 
ATOM      7  O   UNL     1       0.002  -1.346  -8.624  0.00  0.00    -0.270 OA
ATOM      8  H   UNL     1      -0.473  -3.886  -6.937  0.00  0.00    +0.173 HD
BRANCH   6   9
ATOM      9  C   UNL     1      -0.208  -3.517  -9.525  0.00  0.00    +0.257 C 
ATOM     10  C   UNL     1       0.979  -4.475  -9.401  0.00  0.00    +0.062 C 
BRANCH   9  11
ATOM     11  O   UNL     1      -0.132  -2.822 -10.771  0.00  0.00    -0.478 OA
BRANCH  11  12
ATOM     12  C   UNL     1      -0.658  -3.445 -11.859  0.00  0.00    +0.140 A 
ATOM     13  C   UNL     1      -1.132  -4.745 -11.753  0.00  0.00    +0.048 A 
ATOM     14  C   UNL     1      -1.666  -5.376 -12.860  0.00  0.00    +0.023 A 
ATOM     15  C   UNL     1      -1.728  -4.714 -14.073  0.00  0.00    +0.043 A 
ATOM     16  C   UNL     1      -1.256  -3.418 -14.182  0.00  0.00    +0.043 A 
ATOM     17  C   UNL     1      -0.726  -2.780 -13.075  0.00  0.00    +0.084 A 
ATOM     18 CL   UNL     1      -0.140  -1.152 -13.210  0.00  0.00    -0.080 Cl
ATOM     19 CL   UNL     1      -2.399  -5.511 -15.462  0.00  0.00    -0.083 Cl
ENDBRANCH  11  12
ENDBRANCH   9  11
ENDBRANCH   6   9
ENDBRANCH   3   5
BRANCH   1  20
ATOM     20  C   UNL     1      -0.426  -1.447  -3.666  0.00  0.00    +0.326 C 
BRANCH  20  21
ATOM     21  O   UNL     1      -0.619  -2.130  -2.426  0.00  0.00    -0.482 OA
BRANCH  21  25
ATOM     22  C   UNL     1      -0.218   2.256  -0.323  0.00  0.00    +0.045 C 
ATOM     23  C   UNL     1      -0.422   0.765  -0.232  0.00  0.00    -0.033 A 
ATOM     24  C   UNL     1      -0.427  -0.002  -1.381  0.00  0.00    +0.050 A 
ATOM     25  C   UNL     1      -0.614  -1.374  -1.297  0.00  0.00    +0.125 A 
ATOM     26  C   UNL     1      -0.796  -1.973  -0.059  0.00  0.00    -0.002 A 
ATOM     27  C   UNL     1      -0.791  -1.202   1.087  0.00  0.00    +0.023 A 
ATOM     28  C   UNL     1      -0.599   0.165   1.002  0.00  0.00    +0.021 A 
ATOM     29 BR   UNL     1      -0.585   1.217   2.573  0.00  0.00    -0.050 Br
BRANCH  26  30
ATOM     30  C   UNL     1      -1.000  -3.463   0.035  0.00  0.00    +0.016 C 
ATOM     31  C   UNL     1       0.112  -4.077   0.887  0.00  0.00    +0.012 C 
ATOM     32  C   UNL     1      -2.357  -3.752   0.681  0.00  0.00    +0.012 C 
ENDBRANCH  26  30
ENDBRANCH  21  25
ENDBRANCH  20  21
ENDBRANCH   1  20
TORSDOF 8
