REMARK  Name = ZINC63460988
REMARK  8 active torsions:
REMARK  status: ('A' for Active; 'I' for Inactive)
REMARK    1  A    between atoms: C_1  and  C_2
REMARK    2  A    between atoms: C_2  and  C_3
REMARK    3  A    between atoms: C_2  and  C_4
REMARK    4  A    between atoms: C_2  and  O_5
REMARK    5  A    between atoms: O_5  and  C_6
REMARK    6  A    between atoms: N_8  and  N_9
REMARK    7  A    between atoms: C_10  and  C_12
REMARK    8  A    between atoms: C_15  and  N_18
REMARK                            x       y       z     vdW  Elec       q    Type
REMARK                         _______ _______ _______ _____ _____    ______ ____
ROOT
ATOM      1  N   UNL     1       2.023  -1.296  -3.385  0.00  0.00    -0.228 N 
ATOM      2  C   UNL     1       2.712  -1.696  -4.472  0.00  0.00    +0.260 C 
ATOM      3  O   UNL     1       3.869  -1.353  -4.619  0.00  0.00    -0.269 OA
ATOM      4  H   UNL     1       1.100  -1.570  -3.267  0.00  0.00    +0.173 HD
ENDROOT
BRANCH   2   5
ATOM      5  C   UNL     1       2.061  -2.552  -5.485  0.00  0.00    +0.038 A 
ATOM      6  C   UNL     1       0.729  -2.942  -5.320  0.00  0.00    +0.015 A 
ATOM      7  C   UNL     1       0.125  -3.740  -6.267  0.00  0.00    +0.028 A 
ATOM      8  C   UNL     1       0.839  -4.156  -7.385  0.00  0.00    +0.065 A 
ATOM      9  C   UNL     1       2.164  -3.769  -7.552  0.00  0.00    +0.028 A 
ATOM     10  C   UNL     1       2.773  -2.967  -6.612  0.00  0.00    +0.015 A 
BRANCH   8  11
ATOM     11  N   UNL     1       0.222  -4.965  -8.345  0.00  0.00    -0.239 N 
ATOM     12  C   UNL     1       0.800  -5.447  -9.477  0.00  0.00    +0.129 A 
ATOM     13  C   UNL     1      -0.130  -6.183 -10.129  0.00  0.00    +0.056 A 
ATOM     14  C   UNL     1      -1.310  -6.153  -9.376  0.00  0.00    +0.150 A 
ATOM     15  N   UNL     1      -1.099  -5.430  -8.307  0.00  0.00    -0.174 NA
ATOM     16 BR   UNL     1       0.121  -7.092 -11.768  0.00  0.00    -0.047 Br
ENDBRANCH   8  11
ENDBRANCH   2   5
BRANCH   1  19
ATOM     17  C   UNL     1       1.952  -0.085  -1.337  0.00  0.00    +0.417 C 
ATOM     18  O   UNL     1       2.488   0.619  -0.503  0.00  0.00    -0.225 OA
ATOM     19  N   UNL     1       2.641  -0.485  -2.424  0.00  0.00    -0.199 N 
ATOM     20  H   UNL     1       3.564  -0.211  -2.541  0.00  0.00    +0.176 HD
BRANCH  17  21
ATOM     21  O   UNL     1       0.671  -0.465  -1.174  0.00  0.00    -0.444 OA
BRANCH  21  23
ATOM     22  C   UNL     1      -0.019   1.526   0.010  0.00  0.00    +0.055 C 
ATOM     23  C   UNL     1       0.002  -0.004   0.002  0.00  0.00    +0.107 C 
ATOM     24  C   UNL     1       0.742  -0.511   1.242  0.00  0.00    +0.055 C 
ATOM     25  C   UNL     1      -1.433  -0.534   0.013  0.00  0.00    +0.055 C 
ENDBRANCH  21  23
ENDBRANCH  17  21
ENDBRANCH   1  19
TORSDOF 5
