REMARK  Name = ZINC62425751
REMARK  4 active torsions:
REMARK  status: ('A' for Active; 'I' for Inactive)
REMARK    1  A    between atoms: C_1  and  C_2
REMARK    2  A    between atoms: C_8  and  C_14
REMARK    3  A    between atoms: C_9  and  C_12
REMARK    4  A    between atoms: C_12  and  O_13
REMARK                            x       y       z     vdW  Elec       q    Type
REMARK                         _______ _______ _______ _____ _____    ______ ____
ROOT
ATOM      1  C   UNL     1      -0.201   1.400  -0.144  0.00  0.00    +0.066 C 
ATOM      2  C   UNL     1      -0.152  -0.106  -0.106  0.00  0.00    +0.048 A 
ATOM      3  C   UNL     1      -0.168  -0.845  -1.244  0.00  0.00    +0.071 A 
ATOM      4  S   UNL     1      -0.092  -2.496  -0.568  0.00  0.00    -0.056 S 
ATOM      5  C   UNL     1      -0.050  -2.078   1.061  0.00  0.00    +0.196 A 
ATOM      6  N   UNL     1      -0.087  -0.764   1.035  0.00  0.00    -0.226 NA
ATOM      7  N   UNL     1       0.015  -2.921   2.171  0.00  0.00    -0.192 N 
ATOM      8  C   UNL     1      -0.043  -4.284   2.168  0.00  0.00    +0.076 A 
ATOM      9  C   UNL     1       0.056  -4.681   3.454  0.00  0.00    +0.112 A 
ATOM     10  N   UNL     1       0.172  -3.605   4.233  0.00  0.00    -0.131 NA
ATOM     11  N   UNL     1       0.159  -2.537   3.513  0.00  0.00    -0.058 NA
ENDROOT
BRANCH   8  12
ATOM     12  C   UNL     1      -0.190  -5.174   0.961  0.00  0.00    +0.040 C 
ATOM     13  C   UNL     1      -1.542  -5.889   1.016  0.00  0.00    +0.010 C 
ATOM     14  C   UNL     1      -1.691  -6.793  -0.209  0.00  0.00    +0.001 C 
ATOM     15  C   UNL     1      -0.566  -7.830  -0.218  0.00  0.00    +0.000 C 
ATOM     16  C   UNL     1       0.786  -7.115  -0.274  0.00  0.00    +0.001 C 
ATOM     17  C   UNL     1       0.935  -6.211   0.952  0.00  0.00    +0.010 C 
ENDBRANCH   8  12
BRANCH   9  18
ATOM     18  C   UNL     1       0.038  -6.109   3.932  0.00  0.00    +0.214 C 
BRANCH  18  19
ATOM     19  O   UNL     1       1.380  -6.574   4.095  0.00  0.00    -0.389 OA
ATOM     20  H   UNL     1       1.445  -7.489   4.402  0.00  0.00    +0.210 HD
ENDBRANCH  18  19
ENDBRANCH   9  18
TORSDOF 3
