REMARK  Name = ZINC01515963
REMARK  7 active torsions:
REMARK  status: ('A' for Active; 'I' for Inactive)
REMARK    1  A    between atoms: C_1  and  C_2
REMARK    2  A    between atoms: C_2  and  O_3
REMARK    3  A    between atoms: O_3  and  C_4
REMARK    4  A    between atoms: C_4  and  C_6
REMARK    5  A    between atoms: C_10  and  N_11
REMARK    6  A    between atoms: C_13  and  C_23
REMARK    7  A    between atoms: C_18  and  O_22
REMARK                            x       y       z     vdW  Elec       q    Type
REMARK                         _______ _______ _______ _____ _____    ______ ____
ROOT
ATOM      1  N   UNL     1      -0.597  -2.440  -3.908  0.00  0.00    -0.319 N 
ATOM      2  C   UNL     1      -1.083  -2.769  -5.091  0.00  0.00    +0.212 A 
ATOM      3  C   UNL     1      -2.530  -2.710  -5.363  0.00  0.00    +0.097 A 
ATOM      4  C   UNL     1      -2.925  -2.535  -6.684  0.00  0.00    +0.030 A 
ATOM      5  C   UNL     1      -1.919  -2.458  -7.678  0.00  0.00    +0.018 A 
ATOM      6  C   UNL     1      -2.244  -2.083  -8.991  0.00  0.00    +0.015 A 
ATOM      7  C   UNL     1      -1.261  -1.972  -9.929  0.00  0.00    +0.046 A 
ATOM      8  C   UNL     1       0.067  -2.236  -9.597  0.00  0.00    +0.120 A 
ATOM      9  C   UNL     1       0.406  -2.627  -8.310  0.00  0.00    +0.092 A 
ATOM     10  C   UNL     1      -0.581  -2.751  -7.346  0.00  0.00    +0.141 A 
ATOM     11  O   UNL     1      -0.267  -3.168  -6.099  0.00  0.00    -0.438 OA
ATOM     12  H   UNL     1      -1.183  -2.075  -3.226  0.00  0.00    +0.169 HD
ENDROOT
BRANCH   1  17
ATOM     13  C   UNL     1       1.421  -2.328  -2.470  0.00  0.00    +0.093 A 
ATOM     14  C   UNL     1       2.845  -2.618  -2.457  0.00  0.00    -0.021 A 
ATOM     15  C   UNL     1       3.363  -3.133  -3.594  0.00  0.00    -0.004 A 
ATOM     16  S   UNL     1       1.993  -3.252  -4.712  0.00  0.00    -0.075 S 
ATOM     17  C   UNL     1       0.714  -2.611  -3.647  0.00  0.00    +0.095 A 
ATOM     18  C   UNL     1       4.788  -3.518  -3.848  0.00  0.00    +0.043 C 
ATOM     19  C   UNL     1       5.662  -2.897  -2.749  0.00  0.00    +0.005 C 
ATOM     20  C   UNL     1       5.017  -3.182  -1.389  0.00  0.00    +0.005 C 
ATOM     21  C   UNL     1       3.733  -2.366  -1.242  0.00  0.00    +0.037 C 
BRANCH  13  22
ATOM     22  C   UNL     1       0.770  -1.786  -1.333  0.00  0.00    +0.342 C 
ATOM     23  O   UNL     1       0.294  -2.527  -0.494  0.00  0.00    -0.245 OA
BRANCH  22  24
ATOM     24  O   UNL     1       0.679  -0.448  -1.182  0.00  0.00    -0.461 OA
BRANCH  24  26
ATOM     25  C   UNL     1       0.007   1.559  -0.016  0.00  0.00    +0.048 C 
ATOM     26  C   UNL     1       0.011   0.029  -0.013  0.00  0.00    +0.229 C 
ENDBRANCH  24  26
ENDBRANCH  22  24
ENDBRANCH  13  22
ENDBRANCH   1  17
BRANCH   3  27
ATOM     27  C   UNL     1      -3.518  -2.833  -4.278  0.00  0.00    +0.247 C 
ATOM     28  O   UNL     1      -3.147  -2.898  -3.122  0.00  0.00    -0.270 OA
ATOM     29  N   UNL     1      -4.834  -2.871  -4.567  0.00  0.00    -0.325 N 
ATOM     30  H   UNL     1      -5.128  -2.893  -5.491  0.00  0.00    +0.145 HD
ATOM     31  H   UNL     1      -5.488  -2.877  -3.850  0.00  0.00    +0.145 HD
ENDBRANCH   3  27
BRANCH   8  32
ATOM     32  O   UNL     1       1.035  -2.110 -10.539  0.00  0.00    -0.507 OA
ATOM     33  H   UNL     1       1.427  -1.227 -10.585  0.00  0.00    +0.292 HD
ENDBRANCH   8  32
TORSDOF 6
