REMARK  Name = ZINC35375491
REMARK  9 active torsions:
REMARK  status: ('A' for Active; 'I' for Inactive)
REMARK    1  A    between atoms: C_1  and  C_2
REMARK    2  A    between atoms: C_2  and  C_3
REMARK    3  A    between atoms: C_3  and  C_5
REMARK    4  A    between atoms: C_3  and  N_6
REMARK    5  A    between atoms: C_19  and  C_26
REMARK    6  A    between atoms: C_20  and  C_25
REMARK    7  A    between atoms: C_28  and  C_30
REMARK    8  A    between atoms: C_30  and  C_32
REMARK    9  A    between atoms: C_30  and  O_33
REMARK                            x       y       z     vdW  Elec       q    Type
REMARK                         _______ _______ _______ _____ _____    ______ ____
ROOT
ATOM      1  N   UNL     1      -0.008  -0.140   2.444  0.00  0.00    -0.239 N 
ATOM      2  C   UNL     1      -1.261  -0.553   2.671  0.00  0.00    +0.228 C 
ATOM      3  O   UNL     1      -1.908  -1.266   1.935  0.00  0.00    -0.275 OA
ATOM      4  C   UNL     1      -1.743   0.008   3.990  0.00  0.00    +0.109 C 
ATOM      5  C   UNL     1      -0.522   0.822   4.502  0.00  0.00    +0.123 C 
ATOM      6  C   UNL     1       0.505   0.634   3.407  0.00  0.00    +0.228 C 
ATOM      7  O   UNL     1       1.618   1.114   3.401  0.00  0.00    -0.275 OA
ATOM      8  C   UNL     1      -0.073   0.087   5.771  0.00  0.00    +0.136 C 
ATOM      9  C   UNL     1      -0.603   0.751   7.010  0.00  0.00    +0.004 A 
ATOM     10  C   UNL     1      -1.871   1.031   7.467  0.00  0.00    +0.008 A 
ATOM     11  C   UNL     1      -2.043   1.672   8.681  0.00  0.00    +0.004 A 
ATOM     12  C   UNL     1      -0.939   2.030   9.433  0.00  0.00    -0.046 A 
ATOM     13  C   UNL     1       0.333   1.753   8.978  0.00  0.00    -0.026 A 
ATOM     14  C   UNL     1       0.516   1.107   7.758  0.00  0.00    +0.042 A 
ATOM     15  N   UNL     1       1.683   0.721   7.095  0.00  0.00    -0.283 N 
ATOM     16  C   UNL     1       1.423   0.114   5.921  0.00  0.00    +0.243 C 
ATOM     17  O   UNL     1       2.238  -0.324   5.137  0.00  0.00    -0.273 OA
ATOM     18  C   UNL     1       1.529   2.149   9.805  0.00  0.00    +0.046 C 
ATOM     19  C   UNL     1      -1.127   2.729  10.755  0.00  0.00    +0.044 C 
ATOM     20  N   UNL     1      -0.577  -1.293   5.639  0.00  0.00    -0.293 NA
ATOM     21  C   UNL     1      -1.922  -1.145   5.000  0.00  0.00    +0.096 C 
ATOM     22  H   UNL     1       2.577   0.873   7.441  0.00  0.00    +0.155 HD
ATOM     23  H   UNL     1       0.032  -1.845   5.053  0.00  0.00    +0.124 HD
ENDROOT
BRANCH   1  24
ATOM     24  C   UNL     1       0.742  -0.511   1.242  0.00  0.00    +0.081 C 
ATOM     25  C   UNL     1       0.872  -2.034   1.171  0.00  0.00    +0.028 C 
BRANCH  24  27
ATOM     26  C   UNL     1      -0.019   1.526   0.010  0.00  0.00    +0.006 C 
ATOM     27  C   UNL     1       0.002  -0.004   0.002  0.00  0.00    +0.019 C 
ENDBRANCH  24  27
ENDBRANCH   1  24
BRANCH  21  28
ATOM     28  C   UNL     1      -2.346  -2.425   4.277  0.00  0.00    +0.129 C 
ATOM     29  C   UNL     1      -2.518  -3.553   5.296  0.00  0.00    +0.039 C 
BRANCH  28  30
ATOM     30  O   UNL     1      -3.585  -2.202   3.600  0.00  0.00    -0.390 OA
ATOM     31  H   UNL     1      -3.915  -2.973   3.119  0.00  0.00    +0.210 HD
ENDBRANCH  28  30
ENDBRANCH  21  28
TORSDOF 4
