REMARK  Name = ZINC04090652
REMARK  8 active torsions:
REMARK  status: ('A' for Active; 'I' for Inactive)
REMARK    1  A    between atoms: C_1  and  O_2
REMARK    2  A    between atoms: O_2  and  C_3
REMARK    3  A    between atoms: C_6  and  N_9
REMARK    4  A    between atoms: C_10  and  C_12
REMARK    5  A    between atoms: C_15  and  C_27
REMARK    6  A    between atoms: C_27  and  C_28
REMARK    7  A    between atoms: C_28  and  S_29
REMARK    8  A    between atoms: S_29  and  C_30
REMARK                            x       y       z     vdW  Elec       q    Type
REMARK                         _______ _______ _______ _____ _____    ______ ____
ROOT
ATOM      1  C   UNL     1       2.984   0.512   1.236  0.00  0.00    +0.076 C 
ATOM      2  C   UNL     1       3.363  -0.786   0.484  0.00  0.00    -0.004 C 
ATOM      3  C   UNL     1       2.720  -0.580  -0.911  0.00  0.00    -0.068 C 
ATOM      4  C   UNL     1       2.691   1.535   0.132  0.00  0.00    +0.049 C 
ATOM      5  C   UNL     1       1.286   2.063   0.242  0.00  0.00    -0.028 A 
ATOM      6  C   UNL     1       0.046   1.467   0.193  0.00  0.00    +0.004 A 
ATOM      7  C   UNL     1      -1.097   2.236   0.323  0.00  0.00    +0.000 A 
ATOM      8  C   UNL     1      -0.990   3.601   0.514  0.00  0.00    +0.002 A 
ATOM      9  C   UNL     1       0.251   4.202   0.565  0.00  0.00    +0.023 A 
ATOM     10  C   UNL     1       1.407   3.436   0.429  0.00  0.00    +0.036 A 
ATOM     11  N   UNL     1       2.753   3.805   0.444  0.00  0.00    -0.286 N 
ATOM     12  C   UNL     1       3.571   2.749   0.275  0.00  0.00    +0.211 C 
ATOM     13  O   UNL     1       4.784   2.772   0.245  0.00  0.00    -0.277 OA
ATOM     14  H   UNL     1       3.063   4.716   0.562  0.00  0.00    +0.155 HD
ATOM     15  N   UNL     1       2.904   0.862  -1.141  0.00  0.00    +0.394 N 
ATOM     16  H   UNL     1       2.223   1.196  -1.834  0.00  0.00    -0.083 HD
ATOM     17  H   UNL     1       3.855   1.044  -1.481  0.00  0.00    -0.083 HD
ENDROOT
BRANCH   1  19
ATOM     18  N   UNL     1       1.484   1.123   3.105  0.00  0.00    -0.285 N 
ATOM     19  C   UNL     1       1.758   0.289   2.083  0.00  0.00    +0.220 C 
ATOM     20  O   UNL     1       1.018  -0.642   1.845  0.00  0.00    -0.275 OA
ATOM     21  H   UNL     1       2.035   1.908   3.252  0.00  0.00    +0.155 HD
BRANCH  18  25
ATOM     22  C   UNL     1      -1.733   0.331   5.638  0.00  0.00    +0.120 A 
ATOM     23  C   UNL     1      -1.012  -0.717   5.085  0.00  0.00    +0.047 A 
ATOM     24  C   UNL     1       0.054  -0.455   4.246  0.00  0.00    +0.027 A 
ATOM     25  C   UNL     1       0.403   0.857   3.956  0.00  0.00    +0.034 A 
ATOM     26  C   UNL     1      -0.316   1.906   4.514  0.00  0.00    +0.027 A 
ATOM     27  C   UNL     1      -1.385   1.643   5.348  0.00  0.00    +0.047 A 
BRANCH  22  29
ATOM     28  C   UNL     1      -3.480   1.200   6.997  0.00  0.00    +0.277 C 
ATOM     29  O   UNL     1      -2.782   0.073   6.463  0.00  0.00    -0.495 OA
ENDBRANCH  22  29
ENDBRANCH  18  25
ENDBRANCH   1  19
BRANCH   3  30
ATOM     30  C   UNL     1       3.444  -1.411  -1.972  0.00  0.00    -0.005 C 
BRANCH  30  31
ATOM     31  C   UNL     1       2.779  -1.194  -3.332  0.00  0.00    +0.067 C 
BRANCH  31  32
ATOM     32  S   UNL     1       3.637  -2.180  -4.590  0.00  0.00    -0.164 S 
ATOM     33  C   UNL     1       2.739  -1.815  -6.122  0.00  0.00    +0.084 C 
ENDBRANCH  31  32
ENDBRANCH  30  31
ENDBRANCH   3  30
TORSDOF 6
