REMARK  Name = ZINC32738745
REMARK  9 active torsions:
REMARK  status: ('A' for Active; 'I' for Inactive)
REMARK    1  A    between atoms: C_1  and  C_2
REMARK    2  A    between atoms: C_6  and  S_8
REMARK    3  A    between atoms: S_8  and  C_9
REMARK    4  A    between atoms: C_9  and  C_10
REMARK    5  A    between atoms: N_27  and  C_35
REMARK    6  A    between atoms: N_30  and  C_31
REMARK    7  A    between atoms: C_31  and  C_32
REMARK    8  A    between atoms: C_32  and  C_33
REMARK    9  A    between atoms: C_32  and  C_34
REMARK                            x       y       z     vdW  Elec       q    Type
REMARK                         _______ _______ _______ _____ _____    ______ ____
ROOT
ATOM      1  C   UNL     1      -0.018   1.503   0.010  0.00  0.00    +0.088 C 
ATOM      2  C   UNL     1       0.002  -0.004   0.002  0.00  0.00    +0.130 A 
ATOM      3  N   UNL     1       0.005  -0.630  -1.161  0.00  0.00    -0.214 NA
ATOM      4  C   UNL     1       0.023  -1.954  -1.212  0.00  0.00    +0.154 A 
ATOM      5  C   UNL     1       0.038  -2.680  -0.006  0.00  0.00    +0.114 A 
ATOM      6  C   UNL     1       0.035  -1.974   1.206  0.00  0.00    +0.115 A 
ATOM      7  N   UNL     1       0.022  -0.641   1.155  0.00  0.00    -0.225 NA
ATOM      8  C   UNL     1       0.059  -4.145  -0.070  0.00  0.00    +0.268 A 
ATOM      9  O   UNL     1       0.072  -4.815   0.945  0.00  0.00    -0.267 OA
ATOM     10  N   UNL     1       0.061  -4.729  -1.289  0.00  0.00    -0.263 N 
ATOM     11  C   UNL     1       0.045  -3.993  -2.412  0.00  0.00    +0.333 A 
ATOM     12  O   UNL     1       0.049  -4.567  -3.483  0.00  0.00    -0.246 OA
ATOM     13  N   UNL     1       0.027  -2.648  -2.403  0.00  0.00    -0.277 N 
ATOM     14  C   UNL     1       0.081  -6.190  -1.387  0.00  0.00    +0.157 C 
ENDROOT
BRANCH   6  15
ATOM     15  S   UNL     1       0.054  -2.823   2.750  0.00  0.00    -0.097 S 
BRANCH  15  16
ATOM     16  C   UNL     1       0.042  -1.492   3.983  0.00  0.00    +0.150 C 
BRANCH  16  17
ATOM     17  C   UNL     1       0.056  -2.089   5.367  0.00  0.00    +0.121 A 
ATOM     18  N   UNL     1       0.045  -1.267   6.447  0.00  0.00    -0.310 N 
ATOM     19  H   UNL     1       0.027  -0.306   6.314  0.00  0.00    +0.170 HD
ATOM     20  C   UNL     1       0.057  -1.758   7.701  0.00  0.00    +0.260 A 
ATOM     21  O   UNL     1       0.045  -1.006   8.661  0.00  0.00    -0.267 OA
ATOM     22  C   UNL     1       0.083  -3.179   7.888  0.00  0.00    +0.075 A 
ATOM     23  C   UNL     1       0.101  -3.929   9.143  0.00  0.00    -0.023 A 
ATOM     24  C   UNL     1       0.125  -5.276   9.050  0.00  0.00    -0.004 A 
ATOM     25  S   UNL     1       0.124  -5.617   7.310  0.00  0.00    -0.073 S 
ATOM     26  C   UNL     1       0.093  -3.946   6.712  0.00  0.00    +0.116 A 
ATOM     27  N   UNL     1       0.075  -3.387   5.505  0.00  0.00    -0.226 NA
ATOM     28  C   UNL     1       0.147  -6.263  10.177  0.00  0.00    +0.043 C 
ATOM     29  C   UNL     1       0.516  -5.517  11.467  0.00  0.00    +0.005 C 
ATOM     30  C   UNL     1      -0.344  -4.253  11.566  0.00  0.00    +0.005 C 
ATOM     31  C   UNL     1       0.094  -3.242  10.505  0.00  0.00    +0.037 C 
ENDBRANCH  16  17
ENDBRANCH  15  16
ENDBRANCH   6  15
BRANCH  13  32
ATOM     32  C   UNL     1       0.010  -1.914  -3.671  0.00  0.00    +0.131 C 
BRANCH  32  33
ATOM     33  C   UNL     1       1.447  -1.638  -4.119  0.00  0.00    +0.003 C 
ATOM     34  C   UNL     1       2.148  -2.963  -4.427  0.00  0.00    +0.009 C 
ATOM     35  C   UNL     1       1.430  -0.766  -5.376  0.00  0.00    +0.009 C 
ENDBRANCH  32  33
ENDBRANCH  13  32
TORSDOF 5
