REMARK  Name = ZINC03654520
REMARK  7 active torsions:
REMARK  status: ('A' for Active; 'I' for Inactive)
REMARK    1  A    between atoms: C_1  and  C_2
REMARK    2  A    between atoms: C_2  and  C_34
REMARK    3  A    between atoms: C_6  and  C_22
REMARK    4  A    between atoms: C_8  and  C_20
REMARK    5  A    between atoms: C_25  and  N_28
REMARK    6  A    between atoms: N_28  and  C_29
REMARK    7  A    between atoms: N_28  and  C_30
REMARK                            x       y       z     vdW  Elec       q    Type
REMARK                         _______ _______ _______ _____ _____    ______ ____
ROOT
ATOM      1  C   UNL     1       0.513   5.245   3.120  0.00  0.00    +0.011 C 
ATOM      2  C   UNL     1       0.791   6.069   1.863  0.00  0.00    -0.023 C 
ATOM      3  C   UNL     1      -0.215   5.710   0.767  0.00  0.00    +0.058 C 
ATOM      4  C   UNL     1      -0.079   4.258   0.379  0.00  0.00    +0.025 C 
ATOM      5  C   UNL     1       1.143   3.675   0.428  0.00  0.00    +0.025 C 
ATOM      6  C   UNL     1       1.264   2.226   0.001  0.00  0.00    +0.098 C 
ATOM      7  C   UNL     1      -0.028   1.435   0.004  0.00  0.00    +0.082 C 
ATOM      8  C   UNL     1      -1.214   2.161   0.017  0.00  0.00    +0.146 C 
ATOM      9  N   UNL     1      -1.199   3.544   0.039  0.00  0.00    -0.256 N 
ATOM     10  C   UNL     1      -2.366   4.208  -0.332  0.00  0.00    +0.050 A 
ATOM     11  C   UNL     1      -2.373   5.516  -0.793  0.00  0.00    +0.024 A 
ATOM     12  C   UNL     1      -3.571   6.160  -1.036  0.00  0.00    +0.002 A 
ATOM     13  C   UNL     1      -4.776   5.498  -0.865  0.00  0.00    +0.001 A 
ATOM     14  C   UNL     1      -4.788   4.167  -0.504  0.00  0.00    +0.013 A 
ATOM     15  C   UNL     1      -3.581   3.497  -0.314  0.00  0.00    +0.036 A 
ATOM     16  C   UNL     1      -3.537   2.046  -0.076  0.00  0.00    +0.127 C 
ATOM     17  N   UNL     1      -2.361   1.465   0.050  0.00  0.00    -0.215 NA
ATOM     18  N   UNL     1      -4.690   1.308   0.013  0.00  0.00    -0.343 N 
ATOM     19  C   UNL     1       2.280   4.354   0.882  0.00  0.00    +0.162 C 
ATOM     20  O   UNL     1       3.353   3.780   0.913  0.00  0.00    -0.292 OA
ATOM     21  C   UNL     1       2.203   5.784   1.347  0.00  0.00    +0.086 C 
ATOM     22  C   UNL     1       0.664   7.560   2.195  0.00  0.00    +0.011 C 
ATOM     23  H   UNL     1      -4.643   0.352   0.169  0.00  0.00    +0.144 HD
ATOM     24  H   UNL     1      -5.552   1.743  -0.081  0.00  0.00    +0.144 HD
ENDROOT
BRANCH   6  25
ATOM     25  C   UNL     1       1.824   2.192  -1.397  0.00  0.00    -0.035 A 
ATOM     26  C   UNL     1       1.084   2.700  -2.449  0.00  0.00    +0.006 A 
ATOM     27  C   UNL     1       1.597   2.676  -3.731  0.00  0.00    +0.023 A 
ATOM     28  C   UNL     1       2.852   2.129  -3.966  0.00  0.00    +0.029 A 
ATOM     29  C   UNL     1       3.590   1.614  -2.908  0.00  0.00    +0.023 A 
ATOM     30  C   UNL     1       3.074   1.647  -1.627  0.00  0.00    +0.006 A 
BRANCH  28  31
ATOM     31  N   UNL     1       3.370   2.097  -5.262  0.00  0.00    -0.336 N 
ATOM     32  C   UNL     1       4.742   1.636  -5.491  0.00  0.00    +0.129 C 
ATOM     33  C   UNL     1       2.543   2.525  -6.393  0.00  0.00    +0.129 C 
ENDBRANCH  28  31
ENDBRANCH   6  25
BRANCH   7  34
ATOM     34  C   UNL     1      -0.024   0.005  -0.011  0.00  0.00    +0.099 C 
ATOM     35  N   UNL     1      -0.021  -1.131  -0.023  0.00  0.00    -0.191 NA
ENDBRANCH   7  34
TORSDOF 3
