REMARK  Name = ZINC22426491
REMARK  11 active torsions:
REMARK  status: ('A' for Active; 'I' for Inactive)
REMARK    1  A    between atoms: C_1  and  C_2
REMARK    2  A    between atoms: C_8  and  N_15
REMARK    3  A    between atoms: C_11  and  C_13
REMARK    4  A    between atoms: C_11  and  C_14
REMARK    5  A    between atoms: C_16  and  C_18
REMARK    6  A    between atoms: C_18  and  N_19
REMARK    7  A    between atoms: N_19  and  C_20
REMARK    8  A    between atoms: N_19  and  S_27
REMARK    9  A    between atoms: S_27  and  C_30
REMARK   10  A    between atoms: C_33  and  S_36
REMARK   11  A    between atoms: S_36  and  C_37
REMARK                            x       y       z     vdW  Elec       q    Type
REMARK                         _______ _______ _______ _____ _____    ______ ____
ROOT
ATOM      1  N   UNL     1       6.870  -0.238  -2.550  0.00  0.00    -0.194 N 
ENDROOT
BRANCH   1   2
ATOM      2  C   UNL     1       7.488  -1.450  -2.234  0.00  0.00    +0.055 A 
ATOM      3  C   UNL     1       8.453  -1.500  -1.235  0.00  0.00    +0.025 A 
ATOM      4  C   UNL     1       9.060  -2.700  -0.921  0.00  0.00    +0.005 A 
ATOM      5  C   UNL     1       8.716  -3.851  -1.605  0.00  0.00    +0.038 A 
ATOM      6  C   UNL     1       7.759  -3.805  -2.605  0.00  0.00    +0.125 A 
ATOM      7  C   UNL     1       7.144  -2.607  -2.921  0.00  0.00    +0.063 A 
ATOM      8  F   UNL     1       7.425  -4.932  -3.272  0.00  0.00    -0.205 F 
ENDBRANCH   1   2
BRANCH   1   9
ATOM      9  S   UNL     1       7.658   1.191  -2.269  0.00  0.00    +0.075 S 
ATOM     10  O   UNL     1       6.756   2.229  -2.628  0.00  0.00    -0.150 OA
ATOM     11  O   UNL     1       8.228   1.092  -0.971  0.00  0.00    -0.150 OA
BRANCH   9  12
ATOM     12  C   UNL     1       9.002   1.277  -3.405  0.00  0.00    +0.109 A 
ATOM     13  C   UNL     1      10.216   0.697  -3.082  0.00  0.00    +0.030 A 
ATOM     14  C   UNL     1      11.270   0.758  -3.972  0.00  0.00    +0.016 A 
ATOM     15  C   UNL     1      11.114   1.412  -5.188  0.00  0.00    +0.008 A 
ATOM     16  C   UNL     1       9.895   1.998  -5.506  0.00  0.00    +0.016 A 
ATOM     17  C   UNL     1       8.843   1.929  -4.614  0.00  0.00    +0.030 A 
BRANCH  15  18
ATOM     18  S   UNL     1      12.459   1.498  -6.324  0.00  0.00    -0.129 S 
ATOM     19  C   UNL     1      13.800   0.611  -5.483  0.00  0.00    +0.090 C 
ENDBRANCH  15  18
ENDBRANCH   9  12
ENDBRANCH   1   9
BRANCH   1  20
ATOM     20  C   UNL     1       5.525  -0.232  -3.131  0.00  0.00    +0.227 C 
BRANCH  20  22
ATOM     21  N   UNL     1       3.189  -0.177  -2.319  0.00  0.00    -0.307 N 
ATOM     22  C   UNL     1       4.501  -0.276  -2.026  0.00  0.00    +0.233 C 
ATOM     23  O   UNL     1       4.857  -0.400  -0.873  0.00  0.00    -0.274 OA
ATOM     24  H   UNL     1       2.861  -0.143  -3.368  0.00  0.00    +0.149 HD
BRANCH  21  32
ATOM     25  C   UNL     1       4.040   4.431  -0.321  0.00  0.00    +0.044 C 
ATOM     26  C   UNL     1       2.855   3.505  -0.423  0.00  0.00    -0.050 A 
ATOM     27  C   UNL     1       1.582   3.981  -0.171  0.00  0.00    +0.007 A 
ATOM     28  C   UNL     1       0.498   3.133  -0.266  0.00  0.00    +0.046 A 
ATOM     29  C   UNL     1       0.681   1.799  -0.615  0.00  0.00    +0.126 A 
ATOM     30  C   UNL     1       1.957   1.324  -0.864  0.00  0.00    +0.015 A 
ATOM     31  C   UNL     1       3.041   2.180  -0.768  0.00  0.00    +0.012 A 
ATOM     32  C   UNL     1       2.200  -0.116  -1.240  0.00  0.00    +0.111 C 
ATOM     33  C   UNL     1       0.891  -0.754  -1.711  0.00  0.00    +0.074 C 
ATOM     34  C   UNL     1      -0.203  -0.417  -0.691  0.00  0.00    +0.107 C 
ATOM     35  O   UNL     1      -0.411   0.996  -0.703  0.00  0.00    -0.486 OA
ATOM     36  C   UNL     1       0.239  -0.861   0.706  0.00  0.00    +0.055 C 
ATOM     37  C   UNL     1      -1.501  -1.133  -1.071  0.00  0.00    +0.055 C 
ENDBRANCH  21  32
ENDBRANCH  20  22
ENDBRANCH   1  20
TORSDOF 7
