REMARK  Name = ZINC01188729
REMARK  7 active torsions:
REMARK  status: ('A' for Active; 'I' for Inactive)
REMARK    1  A    between atoms: C_11  and  C_12
REMARK    2  A    between atoms: C_11  and  N_53
REMARK    3  A    between atoms: C_12  and  C_14
REMARK    4  A    between atoms: C_12  and  O_26
REMARK    5  A    between atoms: C_14  and  O_15
REMARK    6  A    between atoms: O_15  and  C_16
REMARK    7  A    between atoms: C_16  and  C_17
REMARK                            x       y       z     vdW  Elec       q    Type
REMARK                         _______ _______ _______ _____ _____    ______ ____
ROOT
ATOM      1  C   UNL     1       1.243   7.397   3.089  0.00  0.00    -0.045 C 
ENDROOT
BRANCH   1  14
ATOM      2  C   UNL     1       1.857  11.204   9.856  0.00  0.00    +0.005 A 
ATOM      3  C   UNL     1       2.174  10.220  10.783  0.00  0.00    +0.018 A 
ATOM      4  C   UNL     1       2.466   8.945  10.342  0.00  0.00    +0.084 A 
ATOM      5  C   UNL     1       2.151   9.563   8.141  0.00  0.00    +0.099 A 
ATOM      6  C   UNL     1       1.846  10.868   8.514  0.00  0.00    +0.042 A 
ATOM      7  N   UNL     1       2.144   9.211   6.796  0.00  0.00    -0.320 N 
ATOM      8  C   UNL     1       2.492   7.794   6.621  0.00  0.00    +0.088 C 
ATOM      9  C   UNL     1       2.550   7.468   5.127  0.00  0.00    -0.059 C 
ATOM     10  C   UNL     1       0.903   9.186   4.686  0.00  0.00    -0.059 C 
ATOM     11  C   UNL     1       0.844   9.512   6.180  0.00  0.00    +0.088 C 
ATOM     12  N   UNL     1       2.459   8.578   9.033  0.00  0.00    -0.350 N 
ATOM     13  H   UNL     1       2.672   7.619   8.735  0.00  0.00    +0.166 HD
ATOM     14  N   UNL     1       1.231   7.754   4.524  0.00  0.00    +0.383 N 
ATOM     15  H   UNL     1       0.517   7.192   5.002  0.00  0.00    -0.082 HD
ENDBRANCH   1  14
BRANCH   1  16
ATOM     16  C   UNL     1       1.119   5.878   2.960  0.00  0.00    +0.124 C 
BRANCH  16  17
ATOM     17  O   UNL     1      -0.104   5.447   3.561  0.00  0.00    -0.391 OA
ATOM     18  H   UNL     1      -0.896   5.833   3.162  0.00  0.00    +0.210 HD
ENDBRANCH  16  17
BRANCH  16  19
ATOM     19  C   UNL     1       1.124   5.490   1.480  0.00  0.00    +0.189 C 
BRANCH  19  20
ATOM     20  O   UNL     1       1.125   4.066   1.361  0.00  0.00    -0.373 OA
BRANCH  20  21
ATOM     21  C   UNL     1       1.130   3.595   0.011  0.00  0.00    +0.195 C 
BRANCH  21  22
ATOM     22  C   UNL     1       1.131   2.088   0.005  0.00  0.00    -0.018 A 
ATOM     23  C   UNL     1       2.329   1.399   0.008  0.00  0.00    +0.010 A 
ATOM     24  C   UNL     1       2.335   0.017  -0.000  0.00  0.00    +0.050 A 
ATOM     25  C   UNL     1       1.139  -0.682  -0.008  0.00  0.00    +0.166 A 
ATOM     26  C   UNL     1      -0.068   0.013  -0.009  0.00  0.00    +0.167 A 
ATOM     27  C   UNL     1      -0.067   1.398  -0.002  0.00  0.00    +0.055 A 
ATOM     28  O   UNL     1      -1.091  -0.891  -0.017  0.00  0.00    -0.453 OA
ATOM     29  C   UNL     1      -0.501  -2.137  -0.433  0.00  0.00    +0.466 C 
ATOM     30  O   UNL     1       0.872  -2.020  -0.015  0.00  0.00    -0.453 OA
ENDBRANCH  21  22
ENDBRANCH  20  21
ENDBRANCH  19  20
ENDBRANCH  16  19
ENDBRANCH   1  16
TORSDOF 7
