REMARK  Name = ZINC42030085
REMARK  6 active torsions:
REMARK  status: ('A' for Active; 'I' for Inactive)
REMARK    1  A    between atoms: C_1  and  C_2
REMARK    2  A    between atoms: C_2  and  N_3
REMARK    3  A    between atoms: C_4  and  C_16
REMARK    4  A    between atoms: C_7  and  C_8
REMARK    5  A    between atoms: C_11  and  N_15
REMARK    6  A    between atoms: C_13  and  O_14
REMARK                            x       y       z     vdW  Elec       q    Type
REMARK                         _______ _______ _______ _____ _____    ______ ____
ROOT
ATOM      1  C   UNL     1      -1.209  -0.454   2.856  0.00  0.00    +0.061 A 
ATOM      2  C   UNL     1      -2.261  -0.986   2.108  0.00  0.00    +0.017 A 
ATOM      3  C   UNL     1      -3.564  -0.766   2.499  0.00  0.00    +0.023 A 
ATOM      4  C   UNL     1      -3.835  -0.014   3.638  0.00  0.00    +0.028 A 
ATOM      5  C   UNL     1      -2.794   0.520   4.387  0.00  0.00    +0.068 A 
ATOM      6  C   UNL     1      -1.482   0.298   4.005  0.00  0.00    +0.129 A 
ENDROOT
BRANCH   1  11
ATOM      7  N   UNL     1       0.703  -0.522   1.181  0.00  0.00    -0.311 N 
ATOM      8  C   UNL     1       2.023  -0.848   1.274  0.00  0.00    +0.131 A 
ATOM      9  N   UNL     1       2.255  -1.189   2.513  0.00  0.00    -0.134 NA
ATOM     10  N   UNL     1       1.175  -1.101   3.205  0.00  0.00    -0.129 NA
ATOM     11  C   UNL     1       0.189  -0.689   2.439  0.00  0.00    +0.168 A 
ATOM     12  C   UNL     1       3.029  -0.821   0.153  0.00  0.00    +0.088 C 
BRANCH   7  14
ATOM     13  C   UNL     1      -0.051   1.451  -0.052  0.00  0.00    +0.027 C 
ATOM     14  C   UNL     1      -0.016  -0.078  -0.016  0.00  0.00    +0.122 C 
ENDBRANCH   7  14
ENDBRANCH   1  11
BRANCH   4  15
ATOM     15  N   UNL     1      -5.156   0.206   4.027  0.00  0.00    -0.358 N 
ATOM     16  H   UNL     1      -5.884  -0.165   3.505  0.00  0.00    +0.142 HD
ATOM     17  H   UNL     1      -5.346   0.730   4.821  0.00  0.00    +0.142 HD
ENDBRANCH   4  15
BRANCH   6  18
ATOM     18  O   UNL     1      -0.463   0.813   4.740  0.00  0.00    -0.506 OA
ATOM     19  H   UNL     1      -0.190   1.699   4.466  0.00  0.00    +0.292 HD
ENDBRANCH   6  18
TORSDOF 4
