REMARK  Name = ZINC12417076
REMARK  4 active torsions:
REMARK  status: ('A' for Active; 'I' for Inactive)
REMARK    1  A    between atoms: C_1  and  C_2
REMARK    2  A    between atoms: C_9  and  S_14
REMARK    3  A    between atoms: S_14  and  N_17
REMARK    4  A    between atoms: N_17  and  C_18
REMARK                            x       y       z     vdW  Elec       q    Type
REMARK                         _______ _______ _______ _____ _____    ______ ____
ROOT
ATOM      1  S   UNL     1      -0.020   1.652   0.011  0.00  0.00    +0.059 S 
ATOM      2  O   UNL     1      -0.589   2.057  -1.227  0.00  0.00    -0.153 OA
ATOM      3  O   UNL     1      -0.565   2.044   1.264  0.00  0.00    -0.153 OA
ENDROOT
BRANCH   1  11
ATOM      4  C   UNL     1       7.506   4.423   1.079  0.00  0.00    +0.062 C 
ATOM      5  C   UNL     1       5.980   4.323   1.046  0.00  0.00    +0.256 C 
ATOM      6  C   UNL     1       5.486   3.750   2.350  0.00  0.00    +0.258 C 
ATOM      7  O   UNL     1       6.120   3.923   3.369  0.00  0.00    -0.271 OA
ATOM      8  N   UNL     1       4.335   3.044   2.378  0.00  0.00    -0.279 N 
ATOM      9  C   UNL     1       3.640   2.830   1.179  0.00  0.00    +0.078 A 
ATOM     10  C   UNL     1       2.321   2.407   1.192  0.00  0.00    +0.055 A 
ATOM     11  C   UNL     1       1.655   2.196  -0.002  0.00  0.00    +0.107 A 
ATOM     12  C   UNL     1       2.300   2.415  -1.206  0.00  0.00    +0.032 A 
ATOM     13  C   UNL     1       3.615   2.842  -1.225  0.00  0.00    +0.049 A 
ATOM     14  C   UNL     1       4.289   3.051  -0.034  0.00  0.00    +0.143 A 
ATOM     15  O   UNL     1       5.582   3.474  -0.034  0.00  0.00    -0.478 OA
ATOM     16  H   UNL     1       3.994   2.691   3.215  0.00  0.00    +0.155 HD
ENDBRANCH   1  11
BRANCH   1  17
ATOM     17  N   UNL     1       0.002  -0.004   0.002  0.00  0.00    -0.186 NA
ATOM     18  H   UNL     1      -0.354  -0.490  -0.759  0.00  0.00    +0.148 HD
BRANCH  17  19
ATOM     19  C   UNL     1       0.559  -0.735   1.143  0.00  0.00    +0.083 C 
ATOM     20  C   UNL     1       2.024  -1.078   0.863  0.00  0.00    +0.008 C 
ATOM     21  C   UNL     1       2.113  -1.947  -0.393  0.00  0.00    +0.008 C 
ATOM     22  C   UNL     1       1.320  -3.237  -0.178  0.00  0.00    -0.010 C 
ATOM     23  C   UNL     1       1.902  -4.001   1.013  0.00  0.00    +0.007 C 
ATOM     24  C   UNL     1       1.812  -3.132   2.269  0.00  0.00    -0.010 C 
ATOM     25  C   UNL     1       2.606  -1.842   2.054  0.00  0.00    +0.008 C 
ATOM     26  C   UNL     1       0.347  -2.789   2.549  0.00  0.00    +0.008 C 
ATOM     27  C   UNL     1      -0.234  -2.026   1.358  0.00  0.00    +0.008 C 
ATOM     28  C   UNL     1      -0.145  -2.895   0.102  0.00  0.00    +0.008 C 
ENDBRANCH  17  19
ENDBRANCH   1  17
TORSDOF 3
