REMARK  Name = ZINC39275793
REMARK  3 active torsions:
REMARK  status: ('A' for Active; 'I' for Inactive)
REMARK    1  A    between atoms: C_1  and  C_2
REMARK    2  A    between atoms: C_9  and  C_13
REMARK    3  A    between atoms: C_16  and  C_19
REMARK                            x       y       z     vdW  Elec       q    Type
REMARK                         _______ _______ _______ _____ _____    ______ ____
ROOT
ATOM      1  C   UNL     1       2.752  -2.660   2.723  0.00  0.00    +0.322 C 
ATOM      2  N   UNL     1       3.167  -3.707   3.670  0.00  0.00    -0.287 N 
ATOM      3  C   UNL     1       3.275  -3.105   4.910  0.00  0.00    +0.168 C 
ATOM      4  N   UNL     1       2.985  -1.847   4.846  0.00  0.00    -0.067 NA
ATOM      5  O   UNL     1       2.646  -1.471   3.521  0.00  0.00    -0.367 OA
ATOM      6  H   UNL     1       3.333  -4.640   3.464  0.00  0.00    +0.151 HD
ENDROOT
BRANCH   1  14
ATOM      7  C   UNL     1      -0.019   1.526   0.010  0.00  0.00    +0.008 C 
ATOM      8  C   UNL     1       0.002  -0.004   0.002  0.00  0.00    -0.010 C 
ATOM      9  C   UNL     1       0.721  -0.499  -1.256  0.00  0.00    +0.010 C 
ATOM     10  C   UNL     1       0.541  -2.015  -1.391  0.00  0.00    +0.057 C 
ATOM     11  C   UNL     1       0.916  -2.663  -0.076  0.00  0.00    +0.065 C 
ATOM     12  C   UNL     1       1.002  -1.982   1.071  0.00  0.00    -0.015 C 
ATOM     13  C   UNL     1       0.747  -0.514   1.244  0.00  0.00    +0.038 C 
ATOM     14  C   UNL     1       1.397  -3.009   2.102  0.00  0.00    +0.217 C 
ATOM     15  N   UNL     1       1.486  -4.248   1.305  0.00  0.00    -0.174 NA
ATOM     16  N   UNL     1       1.208  -3.965   0.135  0.00  0.00    -0.158 NA
ENDBRANCH   1  14
BRANCH   3  17
ATOM     17  C   UNL     1       3.671  -3.809   6.150  0.00  0.00    +0.018 A 
ATOM     18  C   UNL     1       3.971  -5.171   6.117  0.00  0.00    +0.011 A 
ATOM     19  C   UNL     1       4.340  -5.822   7.276  0.00  0.00    +0.001 A 
ATOM     20  C   UNL     1       4.412  -5.127   8.470  0.00  0.00    +0.000 A 
ATOM     21  C   UNL     1       4.116  -3.776   8.510  0.00  0.00    +0.001 A 
ATOM     22  C   UNL     1       3.752  -3.113   7.356  0.00  0.00    +0.011 A 
ENDBRANCH   3  17
TORSDOF 2
