REMARK  Name = ZINC09392285
REMARK  9 active torsions:
REMARK  status: ('A' for Active; 'I' for Inactive)
REMARK    1  A    between atoms: C_1  and  O_2
REMARK    2  A    between atoms: O_2  and  C_3
REMARK    3  A    between atoms: C_6  and  C_9
REMARK    4  A    between atoms: C_12  and  C_25
REMARK    5  A    between atoms: N_14  and  S_15
REMARK    6  A    between atoms: S_15  and  C_18
REMARK    7  A    between atoms: C_28  and  N_31
REMARK    8  A    between atoms: N_31  and  S_32
REMARK    9  A    between atoms: S_32  and  C_35
REMARK                            x       y       z     vdW  Elec       q    Type
REMARK                         _______ _______ _______ _____ _____    ______ ____
ROOT
ATOM      1  C   UNL     1       7.521   4.119   2.857  0.00  0.00    +0.154 C 
ATOM      2  C   UNL     1       6.256   3.595   2.148  0.00  0.00    +0.088 C 
ATOM      3  C   UNL     1       5.330   3.223   3.284  0.00  0.00    +0.070 C 
ATOM      4  N   UNL     1       5.905   3.472   4.409  0.00  0.00    -0.167 NA
ATOM      5  N   UNL     1       7.192   3.993   4.286  0.00  0.00    -0.115 N 
ENDROOT
BRANCH   1   9
ATOM      6  C   UNL     1       8.237   8.205   1.833  0.00  0.00    +0.120 A 
ATOM      7  C   UNL     1       8.949   7.195   1.202  0.00  0.00    +0.046 A 
ATOM      8  C   UNL     1       8.715   5.875   1.535  0.00  0.00    +0.009 A 
ATOM      9  C   UNL     1       7.773   5.560   2.496  0.00  0.00    -0.023 A 
ATOM     10  C   UNL     1       7.059   6.564   3.123  0.00  0.00    +0.009 A 
ATOM     11  C   UNL     1       7.293   7.886   2.798  0.00  0.00    +0.046 A 
BRANCH   6  13
ATOM     12  C   UNL     1       7.697  10.491   2.199  0.00  0.00    +0.277 C 
ATOM     13  O   UNL     1       8.466   9.505   1.508  0.00  0.00    -0.495 OA
ENDBRANCH   6  13
ENDBRANCH   1   9
BRANCH   3  14
ATOM     14  C   UNL     1       3.973   2.665   3.127  0.00  0.00    -0.002 A 
ATOM     15  C   UNL     1       3.208   2.358   4.255  0.00  0.00    +0.011 A 
ATOM     16  C   UNL     1       1.941   1.838   4.106  0.00  0.00    +0.025 A 
ATOM     17  C   UNL     1       1.423   1.619   2.834  0.00  0.00    +0.048 A 
ATOM     18  C   UNL     1       2.184   1.918   1.709  0.00  0.00    +0.025 A 
ATOM     19  C   UNL     1       3.450   2.443   1.851  0.00  0.00    +0.011 A 
BRANCH  17  20
ATOM     20  N   UNL     1       0.139   1.092   2.686  0.00  0.00    -0.221 N 
ATOM     21  H   UNL     1      -0.020   0.150   2.852  0.00  0.00    +0.173 HD
BRANCH  20  22
ATOM     22  S   UNL     1      -1.111   2.075   2.226  0.00  0.00    +0.040 S 
ATOM     23  O   UNL     1      -2.247   1.222   2.184  0.00  0.00    -0.155 OA
ATOM     24  O   UNL     1      -0.649   2.724   1.050  0.00  0.00    -0.155 OA
ATOM     25  C   UNL     1      -1.281   3.275   3.576  0.00  0.00    +0.218 C 
ENDBRANCH  20  22
ENDBRANCH  17  20
ENDBRANCH   3  14
BRANCH   5  26
ATOM     26  S   UNL     1       8.187   4.408   5.544  0.00  0.00    +0.089 S 
ATOM     27  O   UNL     1       7.840   3.562   6.632  0.00  0.00    -0.149 OA
ATOM     28  O   UNL     1       9.505   4.469   5.016  0.00  0.00    -0.149 OA
BRANCH  26  29
ATOM     29  C   UNL     1       7.761   6.048   6.025  0.00  0.00    +0.110 A 
ATOM     30  C   UNL     1       8.398   7.127   5.441  0.00  0.00    +0.030 A 
ATOM     31  C   UNL     1       8.060   8.414   5.814  0.00  0.00    +0.022 A 
ATOM     32  C   UNL     1       7.092   8.623   6.781  0.00  0.00    +0.041 A 
ATOM     33  C   UNL     1       6.459   7.542   7.369  0.00  0.00    +0.022 A 
ATOM     34  C   UNL     1       6.793   6.256   6.991  0.00  0.00    +0.030 A 
ATOM     35 CL   UNL     1       6.672  10.239   7.255  0.00  0.00    -0.084 Cl
ENDBRANCH  26  29
ENDBRANCH   5  26
TORSDOF 7
