REMARK  Name = ZINC22851940
REMARK  5 active torsions:
REMARK  status: ('A' for Active; 'I' for Inactive)
REMARK    1  A    between atoms: C_1  and  C_2
REMARK    2  A    between atoms: N_5  and  C_8
REMARK    3  A    between atoms: C_8  and  C_10
REMARK    4  A    between atoms: C_8  and  C_17
REMARK    5  A    between atoms: C_23  and  C_25
REMARK                            x       y       z     vdW  Elec       q    Type
REMARK                         _______ _______ _______ _____ _____    ______ ____
ROOT
ATOM      1  C   UNL     1      -8.386   0.319   0.038  0.00  0.00    +0.006 C 
ENDROOT
BRANCH   1   2
ATOM      2  C   UNL     1      -6.889   0.146   0.092  0.00  0.00    +0.050 A 
ATOM      3  C   UNL     1      -5.935   1.079   0.189  0.00  0.00    +0.282 A 
ATOM      4  N   UNL     1      -4.609   0.724   0.224  0.00  0.00    -0.169 N 
ATOM      5  C   UNL     1      -4.319  -0.611   0.158  0.00  0.00    +0.200 A 
ATOM      6  S   UNL     1      -5.927  -1.358   0.045  0.00  0.00    -0.050 S 
ATOM      7  N   UNL     1      -3.027  -0.784   0.198  0.00  0.00    -0.197 NA
ATOM      8  C   UNL     1      -2.424   0.409   0.300  0.00  0.00    +0.218 A 
ATOM      9  N   UNL     1      -3.340   1.353   0.316  0.00  0.00    -0.138 NA
ATOM     10  O   UNL     1      -6.282   2.393   0.252  0.00  0.00    -0.265 OA
BRANCH   8  11
ATOM     11  C   UNL     1      -0.965   0.628   0.375  0.00  0.00    +0.173 A 
ATOM     12  C   UNL     1      -0.011  -0.340   0.359  0.00  0.00    +0.053 A 
ATOM     13  C   UNL     1       1.234   0.315   0.445  0.00  0.00    +0.042 A 
ATOM     14  C   UNL     1       0.981   1.636   0.514  0.00  0.00    +0.196 A 
ATOM     15  O   UNL     1      -0.349   1.822   0.476  0.00  0.00    -0.460 OA
ENDBRANCH   8  11
ENDBRANCH   1   2
BRANCH   1  20
ATOM     16  C   UNL     1     -11.168  -2.619   4.075  0.00  0.00    +0.007 C 
ATOM     17  C   UNL     1     -10.580  -1.484   3.234  0.00  0.00    -0.018 C 
ATOM     18  C   UNL     1     -11.120  -1.574   1.804  0.00  0.00    -0.015 C 
ATOM     19  C   UNL     1     -10.482  -0.473   0.953  0.00  0.00    -0.077 C 
ATOM     20  N   UNL     1      -9.023  -0.635   0.956  0.00  0.00    +0.387 N 
ATOM     21  C   UNL     1      -8.476  -0.505   2.312  0.00  0.00    -0.077 C 
ATOM     22  C   UNL     1      -9.054  -1.606   3.204  0.00  0.00    -0.015 C 
ATOM     23  H   UNL     1      -8.797  -1.651   0.600  0.00  0.00    -0.080 HD
ENDBRANCH   1  20
BRANCH   1  24
ATOM     24  C   UNL     1      -8.870   0.065  -1.366  0.00  0.00    -0.056 A 
ATOM     25  C   UNL     1      -8.933  -1.227  -1.853  0.00  0.00    +0.004 A 
ATOM     26  C   UNL     1      -9.382  -1.461  -3.139  0.00  0.00    +0.020 A 
ATOM     27  C   UNL     1      -9.759  -0.400  -3.943  0.00  0.00    +0.041 A 
ATOM     28  C   UNL     1      -9.690   0.894  -3.458  0.00  0.00    +0.020 A 
ATOM     29  C   UNL     1      -9.246   1.126  -2.170  0.00  0.00    +0.004 A 
ATOM     30 CL   UNL     1     -10.317  -0.692  -5.561  0.00  0.00    -0.084 Cl
ENDBRANCH   1  24
TORSDOF 4
