REMARK  Name = ZINC35378960
REMARK  9 active torsions:
REMARK  status: ('A' for Active; 'I' for Inactive)
REMARK    1  A    between atoms: C_1  and  C_2
REMARK    2  A    between atoms: C_2  and  N_3
REMARK    3  A    between atoms: N_3  and  C_4
REMARK    4  A    between atoms: C_7  and  O_10
REMARK    5  A    between atoms: O_10  and  C_11
REMARK    6  A    between atoms: C_12  and  C_14
REMARK    7  A    between atoms: N_19  and  S_21
REMARK    8  A    between atoms: S_21  and  C_24
REMARK    9  A    between atoms: C_29  and  C_30
REMARK                            x       y       z     vdW  Elec       q    Type
REMARK                         _______ _______ _______ _____ _____    ______ ____
ROOT
ATOM      1  C   UNL     1      -1.660  -0.195   2.520  0.00  0.00    +0.091 C 
ATOM      2  C   UNL     1      -0.461  -1.089   2.197  0.00  0.00    +0.015 C 
ATOM      3  C   UNL     1       0.592  -0.951   3.299  0.00  0.00    +0.018 C 
ATOM      4  C   UNL     1      -0.008  -1.410   4.633  0.00  0.00    +0.109 C 
ATOM      5  N   UNL     1      -1.243  -0.654   4.880  0.00  0.00    -0.176 NA
ATOM      6  C   UNL     1      -2.285  -0.643   3.845  0.00  0.00    +0.122 C 
ENDROOT
BRANCH   1   8
ATOM      7  N   UNL     1      -2.506   0.370   0.266  0.00  0.00    -0.271 N 
ATOM      8  C   UNL     1      -2.682  -0.306   1.419  0.00  0.00    +0.224 C 
ATOM      9  O   UNL     1      -3.663  -1.003   1.569  0.00  0.00    -0.275 OA
BRANCH   7  10
ATOM     10  C   UNL     1      -3.519   0.379  -0.702  0.00  0.00    +0.036 A 
ATOM     11  C   UNL     1      -4.770  -0.145  -0.404  0.00  0.00    +0.027 A 
ATOM     12  C   UNL     1      -5.768  -0.136  -1.359  0.00  0.00    +0.047 A 
ATOM     13  C   UNL     1      -5.521   0.398  -2.615  0.00  0.00    +0.120 A 
ATOM     14  C   UNL     1      -4.272   0.922  -2.914  0.00  0.00    +0.047 A 
ATOM     15  C   UNL     1      -3.275   0.918  -1.958  0.00  0.00    +0.027 A 
BRANCH  13  16
ATOM     16  O   UNL     1      -6.504   0.407  -3.554  0.00  0.00    -0.495 OA
ATOM     17  C   UNL     1      -6.181   0.972  -4.827  0.00  0.00    +0.277 C 
ENDBRANCH  13  16
ENDBRANCH   7  10
BRANCH   7  19
ATOM     18  C   UNL     1      -1.428   2.559   0.432  0.00  0.00    +0.025 C 
ATOM     19  C   UNL     1      -1.256   1.094   0.024  0.00  0.00    +0.110 C 
ENDBRANCH   7  19
ENDBRANCH   1   8
BRANCH   5  20
ATOM     20  S   UNL     1      -1.457   0.171   6.300  0.00  0.00    +0.061 S 
ATOM     21  O   UNL     1      -2.854   0.177   6.560  0.00  0.00    -0.153 OA
ATOM     22  O   UNL     1      -0.512  -0.355   7.222  0.00  0.00    -0.153 OA
BRANCH  20  23
ATOM     23  C   UNL     1      -0.993   1.845   6.005  0.00  0.00    +0.112 A 
ATOM     24  C   UNL     1      -1.954   2.841   6.026  0.00  0.00    +0.076 A 
ATOM     25  C   UNL     1      -1.589   4.155   5.795  0.00  0.00    +0.144 A 
ATOM     26  C   UNL     1      -0.256   4.472   5.540  0.00  0.00    +0.076 A 
ATOM     27  C   UNL     1       0.701   3.471   5.521  0.00  0.00    +0.032 A 
ATOM     28  C   UNL     1       0.330   2.160   5.758  0.00  0.00    -0.022 A 
ATOM     29  C   UNL     1       1.371   1.070   5.743  0.00  0.00    +0.046 C 
ATOM     30  N   UNL     1       0.099   5.808   5.306  0.00  0.00    -0.280 N 
ATOM     31  C   UNL     1      -0.773   6.785   5.636  0.00  0.00    +0.255 C 
ATOM     32  O   UNL     1      -0.501   7.945   5.414  0.00  0.00    -0.272 OA
ATOM     33  C   UNL     1      -2.088   6.426   6.282  0.00  0.00    +0.325 C 
ATOM     34  O   UNL     1      -2.520   5.146   5.813  0.00  0.00    -0.481 OA
ATOM     35  H   UNL     1       0.958   6.027   4.912  0.00  0.00    +0.155 HD
ENDBRANCH  20  23
ENDBRANCH   5  20
TORSDOF 6
