REMARK  Name = ZINC66058629
REMARK  3 active torsions:
REMARK  status: ('A' for Active; 'I' for Inactive)
REMARK    1  A    between atoms: C_6  and  C_7
REMARK    2  A    between atoms: C_7  and  O_8
REMARK    3  A    between atoms: O_8  and  C_9
REMARK                            x       y       z     vdW  Elec       q    Type
REMARK                         _______ _______ _______ _____ _____    ______ ____
ROOT
ATOM      1  O   UNL     1      -1.715  -1.011  -1.334  0.00  0.00    -0.471 OA
ENDROOT
BRANCH   1   2
ATOM      2  C   UNL     1      -2.871  -1.697  -1.504  0.00  0.00    +0.226 A 
ATOM      3  C   UNL     1      -3.355  -1.978  -2.809  0.00  0.00    +0.069 A 
ATOM      4  C   UNL     1      -2.790  -1.635  -4.103  0.00  0.00    +0.023 A 
ATOM      5  C   UNL     1      -3.433  -2.011  -5.218  0.00  0.00    +0.048 A 
ATOM      6  S   UNL     1      -4.870  -2.869  -4.602  0.00  0.00    -0.077 S 
ATOM      7  C   UNL     1      -4.569  -2.699  -2.863  0.00  0.00    +0.115 A 
ATOM      8  N   UNL     1      -5.194  -3.075  -1.765  0.00  0.00    -0.228 NA
ATOM      9  C   UNL     1      -4.693  -2.783  -0.581  0.00  0.00    +0.226 A 
ATOM     10  N   UNL     1      -3.558  -2.118  -0.457  0.00  0.00    -0.201 NA
ENDBRANCH   1   2
BRANCH   1  11
ATOM     11  C   UNL     1      -1.293  -0.775   0.011  0.00  0.00    +0.266 C 
BRANCH  11  17
ATOM     12  C   UNL     1      -0.017   1.378   0.010  0.00  0.00    +0.008 A 
ATOM     13  C   UNL     1       1.171   2.086   0.002  0.00  0.00    +0.020 A 
ATOM     14  C   UNL     1       2.378   1.410  -0.013  0.00  0.00    +0.041 A 
ATOM     15  C   UNL     1       2.396   0.027  -0.021  0.00  0.00    +0.020 A 
ATOM     16  C   UNL     1       1.208  -0.679  -0.013  0.00  0.00    +0.008 A 
ATOM     17  C   UNL     1       0.002  -0.004   0.002  0.00  0.00    -0.010 A 
ATOM     18 CL   UNL     1       3.870   2.298  -0.023  0.00  0.00    -0.084 Cl
ENDBRANCH  11  17
ENDBRANCH   1  11
TORSDOF 3
