REMARK  Name = ZINC66328515
REMARK  9 active torsions:
REMARK  status: ('A' for Active; 'I' for Inactive)
REMARK    1  A    between atoms: C_1  and  C_2
REMARK    2  A    between atoms: N_4  and  C_5
REMARK    3  A    between atoms: C_5  and  C_7
REMARK    4  A    between atoms: C_5  and  C_23
REMARK    5  A    between atoms: C_7  and  C_8
REMARK    6  A    between atoms: N_10  and  C_11
REMARK    7  A    between atoms: C_16  and  C_17
REMARK    8  A    between atoms: N_19  and  C_20
REMARK    9  A    between atoms: C_20  and  C_21
REMARK                            x       y       z     vdW  Elec       q    Type
REMARK                         _______ _______ _______ _____ _____    ______ ____
ROOT
ATOM      1  C   UNL     1      -1.445  -2.247   2.579  0.00  0.00    +0.219 C 
ATOM      2  O   UNL     1      -2.393  -1.519   2.375  0.00  0.00    -0.275 OA
ATOM      3  N   UNL     1      -1.110  -2.580   3.841  0.00  0.00    -0.285 N 
ATOM      4  H   UNL     1      -0.397  -3.217   4.002  0.00  0.00    +0.155 HD
ENDROOT
BRANCH   3   5
ATOM      5  C   UNL     1      -1.788  -2.007   4.916  0.00  0.00    +0.046 A 
ATOM      6  C   UNL     1      -3.146  -1.733   4.818  0.00  0.00    +0.024 A 
ATOM      7  C   UNL     1      -3.815  -1.165   5.883  0.00  0.00    +0.002 A 
ATOM      8  C   UNL     1      -3.140  -0.866   7.056  0.00  0.00    +0.001 A 
ATOM      9  C   UNL     1      -1.793  -1.132   7.171  0.00  0.00    +0.015 A 
ATOM     10  C   UNL     1      -1.103  -1.711   6.104  0.00  0.00    +0.058 A 
BRANCH  10  11
ATOM     11  C   UNL     1       0.337  -2.004   6.223  0.00  0.00    +0.247 C 
ATOM     12  O   UNL     1       0.957  -2.410   5.258  0.00  0.00    -0.270 OA
ATOM     13  N   UNL     1       0.967  -1.822   7.400  0.00  0.00    -0.300 N 
ATOM     14  H   UNL     1       0.473  -1.498   8.169  0.00  0.00    +0.150 HD
BRANCH  13  15
ATOM     15  C   UNL     1       2.398  -2.113   7.518  0.00  0.00    +0.193 C 
BRANCH  15  16
ATOM     16  C   UNL     1       2.843  -1.834   8.893  0.00  0.00    -0.087 C 
ATOM     17  C   UNL     1       3.199  -1.612   9.990  0.00  0.00    +0.005 C 
ENDBRANCH  15  16
ENDBRANCH  13  15
ENDBRANCH  10  11
ENDBRANCH   3   5
BRANCH   1  18
ATOM     18  C   UNL     1      -0.642  -2.781   1.421  0.00  0.00    +0.123 C 
BRANCH  18  19
ATOM     19  C   UNL     1      -1.228  -2.255   0.109  0.00  0.00    +0.117 C 
BRANCH  19  20
ATOM     20  C   UNL     1      -0.503  -2.885  -1.053  0.00  0.00    +0.043 A 
ATOM     21  C   UNL     1       0.780  -2.476  -1.372  0.00  0.00    +0.131 A 
ATOM     22  C   UNL     1       1.446  -3.055  -2.439  0.00  0.00    +0.039 A 
ATOM     23  C   UNL     1       0.829  -4.041  -3.186  0.00  0.00    +0.006 A 
ATOM     24  C   UNL     1      -0.453  -4.449  -2.869  0.00  0.00    +0.039 A 
ATOM     25  C   UNL     1      -1.118  -3.876  -1.798  0.00  0.00    +0.131 A 
ATOM     26  F   UNL     1      -2.368  -4.280  -1.484  0.00  0.00    -0.205 F 
ATOM     27  F   UNL     1       1.384  -1.512  -0.642  0.00  0.00    -0.205 F 
ENDBRANCH  19  20
BRANCH  19  31
ATOM     28  C   UNL     1      -1.862   1.451  -0.603  0.00  0.00    +0.109 C 
ATOM     29  C   UNL     1      -1.957  -0.053  -0.636  0.00  0.00    +0.210 C 
ATOM     30  O   UNL     1      -2.831  -0.591  -1.283  0.00  0.00    -0.276 OA
ATOM     31  N   UNL     1      -1.071  -0.800   0.052  0.00  0.00    -0.308 N 
ATOM     32  H   UNL     1      -0.330  -0.374   0.509  0.00  0.00    +0.149 HD
ENDBRANCH  19  31
ENDBRANCH  18  19
ENDBRANCH   1  18
TORSDOF 8
