REMARK  Name = ZINC59197670
REMARK  6 active torsions:
REMARK  status: ('A' for Active; 'I' for Inactive)
REMARK    1  A    between atoms: C_1  and  C_2
REMARK    2  A    between atoms: C_5  and  N_9
REMARK    3  A    between atoms: C_7  and  C_8
REMARK    4  A    between atoms: C_19  and  N_20
REMARK    5  A    between atoms: N_20  and  N_21
REMARK    6  A    between atoms: C_22  and  C_24
REMARK                            x       y       z     vdW  Elec       q    Type
REMARK                         _______ _______ _______ _____ _____    ______ ____
ROOT
ATOM      1  N   UNL     1       0.133  -4.172  -0.026  0.00  0.00    -0.216 N 
ATOM      2  C   UNL     1       0.049  -4.832  -1.202  0.00  0.00    +0.263 C 
ATOM      3  O   UNL     1       0.029  -4.230  -2.260  0.00  0.00    -0.269 OA
ATOM      4  C   UNL     1      -0.017  -6.303  -1.161  0.00  0.00    +0.116 C 
ATOM      5  C   UNL     1       0.014  -6.936   0.165  0.00  0.00    +0.276 C 
ATOM      6  O   UNL     1      -0.041  -8.280   0.291  0.00  0.00    -0.268 OA
ATOM      7  N   UNL     1       0.098  -6.161   1.232  0.00  0.00    -0.153 NA
ATOM      8  C   UNL     1       0.161  -4.835   1.139  0.00  0.00    +0.171 C 
ATOM      9  S   UNL     1       0.275  -3.926   2.585  0.00  0.00    -0.016 S 
ATOM     10  C   UNL     1      -0.104  -7.057  -2.321  0.00  0.00    +0.106 C 
ENDROOT
BRANCH   1  15
ATOM     11  C   UNL     1       0.393   1.496  -0.020  0.00  0.00    +0.044 C 
ATOM     12  C   UNL     1       0.324  -0.009  -0.021  0.00  0.00    -0.047 A 
ATOM     13  C   UNL     1       1.489  -0.753  -0.051  0.00  0.00    +0.005 A 
ATOM     14  C   UNL     1       1.429  -2.133  -0.052  0.00  0.00    +0.024 A 
ATOM     15  C   UNL     1       0.197  -2.773  -0.024  0.00  0.00    +0.044 A 
ATOM     16  C   UNL     1      -0.971  -2.023   0.005  0.00  0.00    +0.027 A 
ATOM     17  C   UNL     1      -0.904  -0.643   0.012  0.00  0.00    -0.046 A 
ATOM     18  C   UNL     1      -2.171   0.172   0.051  0.00  0.00    +0.044 C 
ENDBRANCH   1  15
BRANCH  10  20
ATOM     19  H   UNL     1       0.012  -5.486  -3.579  0.00  0.00    +0.169 HD
ATOM     20  N   UNL     1      -0.117  -6.446  -3.521  0.00  0.00    -0.271 N 
BRANCH  20  21
ATOM     21  N   UNL     1      -0.314  -7.197  -4.688  0.00  0.00    -0.233 N 
ATOM     22  C   UNL     1      -0.327  -6.586  -5.889  0.00  0.00    +0.267 C 
ATOM     23  O   UNL     1      -0.165  -5.382  -5.960  0.00  0.00    -0.268 OA
ATOM     24  H   UNL     1      -0.443  -8.157  -4.630  0.00  0.00    +0.173 HD
BRANCH  22  25
ATOM     25  C   UNL     1      -0.534  -7.371  -7.109  0.00  0.00    +0.075 A 
ATOM     26  C   UNL     1      -0.575  -6.944  -8.427  0.00  0.00    +0.021 A 
ATOM     27  C   UNL     1      -0.787  -7.924  -9.366  0.00  0.00    +0.008 A 
ATOM     28  C   UNL     1      -0.939  -9.208  -8.956  0.00  0.00    +0.046 A 
ATOM     29  S   UNL     1      -0.790  -9.127  -7.285  0.00  0.00    -0.092 S 
ENDBRANCH  22  25
ENDBRANCH  20  21
ENDBRANCH  10  20
TORSDOF 4
