REMARK  Name = ZINC65197296
REMARK  6 active torsions:
REMARK  status: ('A' for Active; 'I' for Inactive)
REMARK    1  A    between atoms: C_1  and  C_2
REMARK    2  A    between atoms: C_9  and  C_19
REMARK    3  A    between atoms: C_12  and  C_13
REMARK    4  A    between atoms: N_21  and  N_22
REMARK    5  A    between atoms: N_25  and  C_26
REMARK    6  A    between atoms: C_26  and  C_27
REMARK                            x       y       z     vdW  Elec       q    Type
REMARK                         _______ _______ _______ _____ _____    ______ ____
ROOT
ATOM      1  C   UNL     1      -0.643   1.423   0.113  0.00  0.00    +0.051 C 
ATOM      2  C   UNL     1      -0.298  -0.042   0.051  0.00  0.00    +0.040 A 
ATOM      3  C   UNL     1      -0.406  -0.749  -1.169  0.00  0.00    +0.196 A 
ATOM      4  O   UNL     1      -0.776  -0.196  -2.192  0.00  0.00    -0.287 OA
ATOM      5  C   UNL     1      -0.051  -2.182  -1.157  0.00  0.00    +0.065 A 
ATOM      6  C   UNL     1      -0.126  -2.958  -2.313  0.00  0.00    +0.015 A 
ATOM      7  C   UNL     1       0.213  -4.295  -2.268  0.00  0.00    +0.002 A 
ATOM      8  C   UNL     1       0.627  -4.874  -1.082  0.00  0.00    +0.017 A 
ATOM      9  C   UNL     1       0.709  -4.116   0.085  0.00  0.00    +0.081 A 
ATOM     10  C   UNL     1       0.368  -2.755   0.053  0.00  0.00    +0.151 A 
ATOM     11  O   UNL     1       0.439  -1.999   1.165  0.00  0.00    -0.454 OA
ATOM     12  C   UNL     1       0.125  -0.694   1.168  0.00  0.00    +0.142 A 
ENDROOT
BRANCH  12  13
ATOM     13  C   UNL     1       0.237   0.061   2.431  0.00  0.00    +0.018 A 
ATOM     14  C   UNL     1      -0.333  -0.442   3.603  0.00  0.00    +0.011 A 
ATOM     15  C   UNL     1      -0.224   0.268   4.780  0.00  0.00    +0.001 A 
ATOM     16  C   UNL     1       0.448   1.478   4.802  0.00  0.00    +0.000 A 
ATOM     17  C   UNL     1       1.016   1.982   3.645  0.00  0.00    +0.001 A 
ATOM     18  C   UNL     1       0.920   1.279   2.462  0.00  0.00    +0.011 A 
ENDBRANCH  12  13
BRANCH   9  19
ATOM     19  C   UNL     1       1.151  -4.741   1.347  0.00  0.00    +0.264 C 
ATOM     20  O   UNL     1       1.221  -4.077   2.362  0.00  0.00    -0.269 OA
ATOM     21  N   UNL     1       1.478  -6.048   1.373  0.00  0.00    -0.229 N 
ATOM     22  H   UNL     1       1.422  -6.578   0.562  0.00  0.00    +0.173 HD
BRANCH  21  23
ATOM     23  N   UNL     1       1.898  -6.642   2.570  0.00  0.00    -0.218 N 
ATOM     24  C   UNL     1       2.225  -7.949   2.596  0.00  0.00    +0.316 C 
ATOM     25  O   UNL     1       2.590  -8.464   3.635  0.00  0.00    -0.251 OA
ATOM     26  N   UNL     1       2.147  -8.685   1.470  0.00  0.00    -0.298 N 
ATOM     27  H   UNL     1       1.954  -6.112   3.381  0.00  0.00    +0.174 HD
ATOM     28  H   UNL     1       1.857  -8.275   0.641  0.00  0.00    +0.150 HD
BRANCH  26  29
ATOM     29  C   UNL     1       2.503 -10.107   1.498  0.00  0.00    +0.109 C 
BRANCH  29  30
ATOM     30  C   UNL     1       2.329 -10.704   0.100  0.00  0.00    +0.006 C 
ATOM     31  C   UNL     1       1.275 -11.799  -0.074  0.00  0.00    +0.005 C 
ATOM     32  C   UNL     1       2.762 -12.156  -0.107  0.00  0.00    +0.005 C 
ENDBRANCH  29  30
ENDBRANCH  26  29
ENDBRANCH  21  23
ENDBRANCH   9  19
TORSDOF 5
