REMARK  Name = ZINC44177164
REMARK  8 active torsions:
REMARK  status: ('A' for Active; 'I' for Inactive)
REMARK    1  A    between atoms: C_1  and  C_2
REMARK    2  A    between atoms: C_2  and  N_3
REMARK    3  A    between atoms: N_3  and  C_4
REMARK    4  A    between atoms: C_4  and  C_5
REMARK    5  A    between atoms: N_16  and  C_17
REMARK    6  A    between atoms: C_21  and  C_24
REMARK    7  A    between atoms: C_22  and  C_23
REMARK    8  A    between atoms: N_26  and  C_27
REMARK                            x       y       z     vdW  Elec       q    Type
REMARK                         _______ _______ _______ _____ _____    ______ ____
ROOT
ATOM      1  N   UNL     1       0.913  -1.500   1.628  0.00  0.00    -0.281 N 
ATOM      2  C   UNL     1       2.248  -1.425   1.452  0.00  0.00    +0.307 C 
ATOM      3  O   UNL     1       2.998  -1.715   2.364  0.00  0.00    -0.252 OA
ATOM      4  N   UNL     1       2.750  -1.029   0.266  0.00  0.00    -0.269 N 
ATOM      5  H   UNL     1       2.154  -0.865  -0.482  0.00  0.00    +0.156 HD
ENDROOT
BRANCH   4   6
ATOM      6  C   UNL     1       4.130  -0.854   0.113  0.00  0.00    +0.038 A 
ATOM      7  C   UNL     1       4.935  -0.674   1.232  0.00  0.00    +0.023 A 
ATOM      8  C   UNL     1       6.299  -0.501   1.087  0.00  0.00    +0.003 A 
ATOM      9  C   UNL     1       6.870  -0.506  -0.170  0.00  0.00    +0.013 A 
ATOM     10  C   UNL     1       6.070  -0.685  -1.299  0.00  0.00    +0.041 A 
ATOM     11  C   UNL     1       4.694  -0.865  -1.153  0.00  0.00    -0.017 A 
ATOM     12  C   UNL     1       3.824  -1.066  -2.366  0.00  0.00    +0.046 C 
BRANCH  10  13
ATOM     13  C   UNL     1       6.679  -0.691  -2.647  0.00  0.00    +0.244 C 
ATOM     14  O   UNL     1       5.970  -0.714  -3.634  0.00  0.00    -0.270 OA
ATOM     15  N   UNL     1       8.020  -0.669  -2.780  0.00  0.00    -0.314 N 
ATOM     16  C   UNL     1       8.623  -0.674  -4.115  0.00  0.00    +0.128 C 
ATOM     17  H   UNL     1       8.585  -0.650  -1.992  0.00  0.00    +0.149 HD
ENDBRANCH  10  13
ENDBRANCH   4   6
BRANCH   1  19
ATOM     18  C   UNL     1      -0.324   0.340   0.597  0.00  0.00    +0.024 C 
ATOM     19  C   UNL     1       0.009  -1.151   0.530  0.00  0.00    +0.106 C 
ENDBRANCH   1  19
BRANCH   1  20
ATOM     20  C   UNL     1       0.368  -1.931   2.918  0.00  0.00    +0.144 C 
BRANCH  20  21
ATOM     21  C   UNL     1       0.198  -3.428   2.917  0.00  0.00    -0.026 A 
ATOM     22  C   UNL     1      -0.989  -3.988   2.482  0.00  0.00    +0.009 A 
ATOM     23  C   UNL     1      -1.149  -5.361   2.479  0.00  0.00    +0.050 A 
ATOM     24  C   UNL     1      -0.119  -6.180   2.912  0.00  0.00    +0.166 A 
ATOM     25  C   UNL     1       1.077  -5.617   3.349  0.00  0.00    +0.167 A 
ATOM     26  C   UNL     1       1.232  -4.240   3.345  0.00  0.00    +0.054 A 
ATOM     27  O   UNL     1       1.923  -6.622   3.719  0.00  0.00    -0.453 OA
ATOM     28  C   UNL     1       1.089  -7.783   3.889  0.00  0.00    +0.466 C 
ATOM     29  O   UNL     1      -0.022  -7.538   3.008  0.00  0.00    -0.453 OA
ENDBRANCH  20  21
ENDBRANCH   1  20
TORSDOF 5
