REMARK  Name = ZINC15074407
REMARK  7 active torsions:
REMARK  status: ('A' for Active; 'I' for Inactive)
REMARK    1  A    between atoms: C_1  and  C_2
REMARK    2  A    between atoms: C_3  and  C_12
REMARK    3  A    between atoms: C_5  and  C_7
REMARK    4  A    between atoms: C_12  and  N_49
REMARK    5  A    between atoms: C_14  and  C_23
REMARK    6  A    between atoms: C_19  and  C_21
REMARK    7  A    between atoms: C_19  and  C_22
REMARK                            x       y       z     vdW  Elec       q    Type
REMARK                         _______ _______ _______ _____ _____    ______ ____
ROOT
ATOM      1  C   UNL     1       0.031  -0.359   2.519  0.00  0.00    -0.018 C 
ENDROOT
BRANCH   1  12
ATOM      2  C   UNL     1      -2.267  -1.266   2.542  0.00  0.00    -0.071 C 
ATOM      3  C   UNL     1      -3.209  -1.541   3.740  0.00  0.00    -0.048 C 
ATOM      4  C   UNL     1      -3.046  -0.270   4.620  0.00  0.00    -0.011 C 
ATOM      5  C   UNL     1      -1.518  -0.027   4.431  0.00  0.00    -0.067 C 
ATOM      6  C   UNL     1      -0.804  -1.075   5.277  0.00  0.00    -0.009 C 
ATOM      7  C   UNL     1      -1.223  -2.511   5.025  0.00  0.00    -0.036 C 
ATOM      8  C   UNL     1      -2.653  -2.711   4.552  0.00  0.00    +0.011 C 
ATOM      9  C   UNL     1      -0.239  -3.217   4.087  0.00  0.00    +0.011 C 
ATOM     10  C   UNL     1      -1.108  -3.247   6.389  0.00  0.00    +0.011 C 
ATOM     11  C   UNL     1      -4.663  -1.763   3.298  0.00  0.00    +0.009 C 
ATOM     12  N   UNL     1      -1.396  -0.167   2.964  0.00  0.00    +0.386 N 
ATOM     13  H   UNL     1      -1.738   0.699   2.530  0.00  0.00    -0.081 HD
ENDBRANCH   1  12
BRANCH   1  16
ATOM     14  C   UNL     1      -0.018   1.503   0.010  0.00  0.00    +0.088 C 
ATOM     15  C   UNL     1       0.002  -0.004   0.002  0.00  0.00    +0.124 A 
ATOM     16  C   UNL     1       0.023  -0.806   1.080  0.00  0.00    +0.066 A 
ATOM     17  N   UNL     1       0.036  -2.078   0.647  0.00  0.00    -0.216 NA
ATOM     18  C   UNL     1       0.023  -2.074  -0.666  0.00  0.00    +0.228 A 
ATOM     19  O   UNL     1      -0.003  -0.798  -1.089  0.00  0.00    -0.440 OA
BRANCH  18  20
ATOM     20  C   UNL     1       0.031  -3.269  -1.532  0.00  0.00    +0.044 A 
ATOM     21  C   UNL     1       0.010  -3.147  -2.922  0.00  0.00    +0.021 A 
ATOM     22  C   UNL     1       0.023  -4.283  -3.653  0.00  0.00    +0.046 A 
ATOM     23  S   UNL     1       0.052  -5.546  -2.395  0.00  0.00    -0.104 S 
ATOM     24  C   UNL     1       0.052  -4.526  -0.994  0.00  0.00    +0.058 A 
ENDBRANCH  18  20
ENDBRANCH   1  16
TORSDOF 3
