REMARK  Name = ZINC02778700
REMARK  5 active torsions:
REMARK  status: ('A' for Active; 'I' for Inactive)
REMARK    1  A    between atoms: C_1  and  C_2
REMARK    2  A    between atoms: N_14  and  N_15
REMARK    3  A    between atoms: C_16  and  C_18
REMARK    4  A    between atoms: C_24  and  C_31
REMARK    5  A    between atoms: C_26  and  C_27
REMARK                            x       y       z     vdW  Elec       q    Type
REMARK                         _______ _______ _______ _____ _____    ______ ____
ROOT
ATOM      1  N   UNL     1       5.810   1.786  -0.042  0.00  0.00    -0.215 N 
ATOM      2  C   UNL     1       6.461   1.462  -1.177  0.00  0.00    +0.267 C 
ATOM      3  O   UNL     1       5.832   1.220  -2.191  0.00  0.00    -0.268 OA
ATOM      4  H   UNL     1       6.311   1.978   0.766  0.00  0.00    +0.176 HD
ENDROOT
BRANCH   1  18
ATOM      5  C   UNL     1       4.632   4.309  -0.018  0.00  0.00    +0.088 C 
ATOM      6  C   UNL     1       3.796   3.056  -0.017  0.00  0.00    +0.129 A 
ATOM      7  N   UNL     1       2.493   3.154  -0.004  0.00  0.00    -0.225 NA
ATOM      8  C   UNL     1       1.727   2.066  -0.003  0.00  0.00    +0.116 A 
ATOM      9  C   UNL     1       2.271   0.775  -0.015  0.00  0.00    +0.077 A 
ATOM     10  C   UNL     1       1.305  -0.334  -0.013  0.00  0.00    -0.023 A 
ATOM     11  C   UNL     1       0.002  -0.004   0.002  0.00  0.00    -0.004 A 
ATOM     12  S   UNL     1      -0.022   1.774   0.012  0.00  0.00    -0.073 S 
ATOM     13  C   UNL     1      -0.890  -1.216   0.007  0.00  0.00    +0.043 C 
ATOM     14  C   UNL     1       0.036  -2.377   0.430  0.00  0.00    +0.010 C 
ATOM     15  C   UNL     1       1.415  -1.861  -0.025  0.00  0.00    +0.037 C 
ATOM     16  C   UNL     1       3.702   0.700  -0.029  0.00  0.00    +0.280 A 
ATOM     17  O   UNL     1       4.266  -0.380  -0.041  0.00  0.00    -0.265 OA
ATOM     18  N   UNL     1       4.410   1.845  -0.029  0.00  0.00    -0.209 N 
ENDBRANCH   1  18
BRANCH   2  19
ATOM     19  C   UNL     1       7.924   1.400  -1.190  0.00  0.00    +0.102 A 
ATOM     20  C   UNL     1       8.783   1.651  -0.105  0.00  0.00    +0.150 A 
ATOM     21  N   UNL     1      10.018   1.496  -0.502  0.00  0.00    -0.172 NA
ATOM     22  N   UNL     1      10.034   1.140  -1.855  0.00  0.00    -0.209 N 
ATOM     23  C   UNL     1       8.741   1.072  -2.292  0.00  0.00    +0.169 A 
ATOM     24  N   UNL     1       8.459   0.757  -3.554  0.00  0.00    -0.224 NA
ATOM     25  C   UNL     1       9.430   0.490  -4.419  0.00  0.00    +0.110 A 
ATOM     26  C   UNL     1      10.779   0.545  -4.000  0.00  0.00    +0.064 A 
ATOM     27  C   UNL     1      11.060   0.871  -2.718  0.00  0.00    +0.149 A 
BRANCH  25  28
ATOM     28  C   UNL     1       9.103   0.137  -5.810  0.00  0.00    +0.153 A 
ATOM     29  C   UNL     1       7.850   0.043  -6.339  0.00  0.00    +0.051 A 
ATOM     30  C   UNL     1       8.006  -0.312  -7.690  0.00  0.00    +0.042 A 
ATOM     31  C   UNL     1       9.331  -0.427  -7.919  0.00  0.00    +0.196 A 
ATOM     32  O   UNL     1       9.990  -0.155  -6.782  0.00  0.00    -0.461 OA
ENDBRANCH  25  28
BRANCH  27  33
ATOM     33  C   UNL     1      12.489   0.938  -2.245  0.00  0.00    +0.434 C 
ATOM     34  F   UNL     1      12.880  -0.317  -1.763  0.00  0.00    -0.164 F 
ATOM     35  F   UNL     1      13.317   1.306  -3.311  0.00  0.00    -0.164 F 
ATOM     36  F   UNL     1      12.598   1.885  -1.221  0.00  0.00    -0.164 F 
ENDBRANCH  27  33
ENDBRANCH   2  19
TORSDOF 4
