REMARK  Name = ZINC64369965
REMARK  5 active torsions:
REMARK  status: ('A' for Active; 'I' for Inactive)
REMARK    1  A    between atoms: C_4  and  O_7
REMARK    2  A    between atoms: O_7  and  C_8
REMARK    3  A    between atoms: C_8  and  C_9
REMARK    4  A    between atoms: C_13  and  N_16
REMARK    5  A    between atoms: C_17  and  C_19
REMARK                            x       y       z     vdW  Elec       q    Type
REMARK                         _______ _______ _______ _____ _____    ______ ____
ROOT
ATOM      1  N   UNL     1       8.622  -2.421   0.996  0.00  0.00    -0.286 N 
ATOM      2  C   UNL     1       9.307  -1.903   2.035  0.00  0.00    +0.247 C 
ATOM      3  O   UNL     1       9.063  -0.777   2.423  0.00  0.00    -0.270 OA
ATOM      4  H   UNL     1       8.866  -3.289   0.639  0.00  0.00    +0.151 HD
ENDROOT
BRANCH   2   5
ATOM      5  C   UNL     1      10.359  -2.706   2.704  0.00  0.00    +0.051 A 
ATOM      6  C   UNL     1      10.733  -3.921   2.205  0.00  0.00    +0.083 A 
ATOM      7  C   UNL     1      11.772  -4.689   2.886  0.00  0.00    +0.250 A 
ATOM      8  O   UNL     1      12.107  -5.772   2.441  0.00  0.00    -0.268 OA
ATOM      9  N   UNL     1      12.366  -4.217   3.997  0.00  0.00    -0.322 N 
ATOM     10  H   UNL     1      13.053  -4.747   4.429  0.00  0.00    +0.169 HD
ATOM     11  C   UNL     1      12.017  -2.996   4.532  0.00  0.00    +0.050 A 
ATOM     12  C   UNL     1      11.027  -2.209   3.916  0.00  0.00    +0.011 A 
ATOM     13  C   UNL     1      10.684  -0.969   4.463  0.00  0.00    +0.011 A 
ATOM     14  C   UNL     1      11.316  -0.525   5.589  0.00  0.00    +0.001 A 
ATOM     15  C   UNL     1      12.299  -1.295   6.197  0.00  0.00    +0.002 A 
ATOM     16  C   UNL     1      12.644  -2.525   5.683  0.00  0.00    +0.026 A 
ENDBRANCH   2   5
BRANCH   1  20
ATOM     17  C   UNL     1       4.924  -2.618  -0.002  0.00  0.00    +0.167 C 
ATOM     18  N   UNL     1       5.700  -2.105  -1.175  0.00  0.00    -0.238 NA
ATOM     19  N   UNL     1       7.131  -2.233  -0.920  0.00  0.00    -0.226 NA
ATOM     20  C   UNL     1       7.508  -1.673   0.407  0.00  0.00    +0.217 C 
ATOM     21  S   UNL     1       5.955  -1.932   1.367  0.00  0.00    -0.098 S 
ATOM     22  H   UNL     1       5.439  -2.590  -2.021  0.00  0.00    +0.142 HD
ATOM     23  H   UNL     1       7.669  -1.806  -1.659  0.00  0.00    +0.143 HD
BRANCH  17  24
ATOM     24  C   UNL     1       3.507  -2.042   0.024  0.00  0.00    +0.260 C 
BRANCH  24  25
ATOM     25  O   UNL     1       3.572  -0.615   0.012  0.00  0.00    -0.490 OA
BRANCH  25  29
ATOM     26  C   UNL     1      -0.014   1.424   0.072  0.00  0.00    +0.000 A 
ATOM     27  C   UNL     1       1.178   2.125   0.041  0.00  0.00    +0.004 A 
ATOM     28  C   UNL     1       2.380   1.444   0.021  0.00  0.00    +0.045 A 
ATOM     29  C   UNL     1       2.391   0.057   0.032  0.00  0.00    +0.121 A 
ATOM     30  C   UNL     1       1.194  -0.643   0.063  0.00  0.00    +0.045 A 
ATOM     31  C   UNL     1      -0.006   0.042   0.083  0.00  0.00    +0.004 A 
ENDBRANCH  25  29
ENDBRANCH  24  25
ENDBRANCH  17  24
ENDBRANCH   1  20
TORSDOF 5
