REMARK  Name = ZINC07472317
REMARK  7 active torsions:
REMARK  status: ('A' for Active; 'I' for Inactive)
REMARK    1  A    between atoms: C_1  and  C_2
REMARK    2  A    between atoms: C_5  and  C_28
REMARK    3  A    between atoms: C_6  and  C_8
REMARK    4  A    between atoms: C_14  and  C_16
REMARK    5  A    between atoms: C_16  and  N_17
REMARK    6  A    between atoms: C_20  and  C_24
REMARK    7  A    between atoms: C_20  and  C_25
REMARK                            x       y       z     vdW  Elec       q    Type
REMARK                         _______ _______ _______ _____ _____    ______ ____
ROOT
ATOM      1  C   UNL     1       0.612  -3.886   4.645  0.00  0.00    +0.080 A 
ATOM      2  C   UNL     1       0.823  -2.859   5.523  0.00  0.00    +0.076 A 
ATOM      3  S   UNL     1       1.045  -1.495   4.389  0.00  0.00    -0.060 S 
ATOM      4  C   UNL     1       0.835  -2.424   2.877  0.00  0.00    +0.165 A 
ATOM      5  N   UNL     1       0.618  -3.639   3.343  0.00  0.00    -0.225 NA
ATOM      6  N   UNL     1       0.883  -1.983   1.560  0.00  0.00    -0.263 N 
ATOM      7  C   UNL     1       1.116  -0.683   1.293  0.00  0.00    +0.237 C 
ATOM      8  O   UNL     1       1.284   0.102   2.201  0.00  0.00    -0.274 OA
ATOM      9  H   UNL     1       0.748  -2.611   0.833  0.00  0.00    +0.157 HD
ENDROOT
BRANCH   1  15
ATOM     10  C   UNL     1       0.394  -7.128   8.435  0.00  0.00    +0.044 C 
ATOM     11  C   UNL     1       0.265  -6.823   6.965  0.00  0.00    -0.050 A 
ATOM     12  C   UNL     1      -0.079  -7.828   6.079  0.00  0.00    +0.003 A 
ATOM     13  C   UNL     1      -0.199  -7.556   4.729  0.00  0.00    +0.004 A 
ATOM     14  C   UNL     1       0.024  -6.278   4.257  0.00  0.00    -0.041 A 
ATOM     15  C   UNL     1       0.371  -5.261   5.145  0.00  0.00    +0.004 A 
ATOM     16  C   UNL     1       0.496  -5.543   6.505  0.00  0.00    +0.013 A 
ATOM     17  C   UNL     1      -0.108  -5.982   2.785  0.00  0.00    +0.044 C 
ENDBRANCH   1  15
BRANCH   7  18
ATOM     18  C   UNL     1       1.167  -0.205  -0.136  0.00  0.00    +0.214 C 
BRANCH  18  19
ATOM     19  N   UNL     1       1.433   1.236  -0.159  0.00  0.00    -0.215 N 
ATOM     20  C   UNL     1       2.666   1.778  -0.199  0.00  0.00    +0.247 C 
ATOM     21  O   UNL     1       3.725   1.188  -0.221  0.00  0.00    -0.273 OA
ATOM     22  C   UNL     1       2.453   3.279  -0.211  0.00  0.00    +0.113 C 
ATOM     23  N   UNL     1       0.988   3.421  -0.172  0.00  0.00    -0.285 N 
ATOM     24  C   UNL     1       0.480   2.176  -0.149  0.00  0.00    +0.310 C 
ATOM     25  O   UNL     1      -0.710   1.931  -0.118  0.00  0.00    -0.252 OA
ATOM     26  C   UNL     1       3.093   3.923   1.021  0.00  0.00    +0.042 C 
ATOM     27  H   UNL     1       0.486   4.252  -0.169  0.00  0.00    +0.151 HD
BRANCH  22  28
ATOM     28  C   UNL     1       3.020   3.893  -1.493  0.00  0.00    +0.021 C 
ATOM     29  C   UNL     1       4.321   4.690  -1.379  0.00  0.00    +0.006 C 
ATOM     30  C   UNL     1       2.996   5.418  -1.617  0.00  0.00    +0.006 C 
ENDBRANCH  22  28
ENDBRANCH  18  19
ENDBRANCH   7  18
TORSDOF 4
