REMARK  Name = ZINC36024543
REMARK  8 active torsions:
REMARK  status: ('A' for Active; 'I' for Inactive)
REMARK    1  A    between atoms: C_1  and  C_2
REMARK    2  A    between atoms: C_5  and  S_8
REMARK    3  A    between atoms: S_8  and  N_11
REMARK    4  A    between atoms: C_18  and  C_30
REMARK    5  A    between atoms: N_22  and  C_23
REMARK    6  A    between atoms: C_23  and  C_24
REMARK    7  A    between atoms: C_30  and  C_31
REMARK    8  A    between atoms: C_30  and  C_32
REMARK                            x       y       z     vdW  Elec       q    Type
REMARK                         _______ _______ _______ _____ _____    ______ ____
ROOT
ATOM      1  N   UNL     1       1.387  -5.296   0.098  0.00  0.00    -0.177 NA
ATOM      2  C   UNL     1       2.101  -5.341  -1.186  0.00  0.00    +0.109 C 
ATOM      3  C   UNL     1       3.262  -4.343  -1.139  0.00  0.00    +0.023 C 
ATOM      4  C   UNL     1       4.131  -4.633   0.083  0.00  0.00    +0.006 C 
ATOM      5  C   UNL     1       3.311  -4.490   1.364  0.00  0.00    +0.023 C 
ATOM      6  C   UNL     1       2.151  -5.485   1.339  0.00  0.00    +0.109 C 
ATOM      7  N   UNL     1       5.275  -3.697   0.116  0.00  0.00    +0.401 N 
ATOM      8  C   UNL     1       6.339  -4.442  -0.601  0.00  0.00    +0.022 C 
ATOM      9  C   UNL     1       5.986  -5.901  -0.408  0.00  0.00    +0.201 C 
ATOM     10  O   UNL     1       6.733  -6.840  -0.584  0.00  0.00    -0.277 OA
ATOM     11  N   UNL     1       4.700  -5.981  -0.008  0.00  0.00    -0.311 N 
ATOM     12  H   UNL     1       5.050  -2.842  -0.370  0.00  0.00    -0.082 HD
ATOM     13  H   UNL     1       5.552  -3.506   1.067  0.00  0.00    -0.082 HD
ENDROOT
BRANCH   1  14
ATOM     14  S   UNL     1      -0.247  -5.031   0.145  0.00  0.00    +0.061 S 
ATOM     15  O   UNL     1      -0.711  -5.577   1.373  0.00  0.00    -0.153 OA
ATOM     16  O   UNL     1      -0.762  -5.441  -1.114  0.00  0.00    -0.153 OA
BRANCH  14  21
ATOM     17  C   UNL     1      -1.080   0.935   0.487  0.00  0.00    +0.044 C 
ATOM     18  C   UNL     1      -0.872  -0.555   0.401  0.00  0.00    -0.050 A 
ATOM     19  C   UNL     1      -0.800  -1.173  -0.833  0.00  0.00    +0.005 A 
ATOM     20  C   UNL     1      -0.609  -2.540  -0.911  0.00  0.00    +0.029 A 
ATOM     21  C   UNL     1      -0.489  -3.289   0.245  0.00  0.00    +0.105 A 
ATOM     22  C   UNL     1      -0.561  -2.670   1.479  0.00  0.00    +0.029 A 
ATOM     23  C   UNL     1      -0.747  -1.303   1.557  0.00  0.00    +0.005 A 
ENDBRANCH  14  21
ENDBRANCH   1  14
BRANCH   8  24
ATOM     24  C   UNL     1       7.707  -4.137   0.012  0.00  0.00    -0.023 C 
ATOM     25  C   UNL     1       8.788  -4.914  -0.742  0.00  0.00    +0.006 C 
ATOM     26  C   UNL     1       7.991  -2.637  -0.094  0.00  0.00    +0.006 C 
ENDBRANCH   8  24
BRANCH  11  27
ATOM     27  C   UNL     1       3.983  -7.223   0.290  0.00  0.00    +0.137 C 
BRANCH  27  28
ATOM     28  C   UNL     1       4.193  -7.593   1.760  0.00  0.00    +0.136 C 
ATOM     29  C   UNL     1       3.404  -8.880   2.109  0.00  0.00    +0.035 C 
ATOM     30  C   UNL     1       4.223  -9.409   3.318  0.00  0.00    +0.031 C 
ATOM     31  C   UNL     1       5.662  -8.989   2.949  0.00  0.00    +0.160 C 
ATOM     32  O   UNL     1       5.571  -7.918   2.000  0.00  0.00    -0.375 OA
ENDBRANCH  27  28
ENDBRANCH  11  27
TORSDOF 5
