REMARK  Name = ZINC47002869
REMARK  7 active torsions:
REMARK  status: ('A' for Active; 'I' for Inactive)
REMARK    1  A    between atoms: C_1  and  N_2
REMARK    2  A    between atoms: C_7  and  N_12
REMARK    3  A    between atoms: N_15  and  C_16
REMARK    4  A    between atoms: N_15  and  C_17
REMARK    5  A    between atoms: C_17  and  C_18
REMARK    6  A    between atoms: C_18  and  O_19
REMARK    7  A    between atoms: O_19  and  C_20
REMARK                            x       y       z     vdW  Elec       q    Type
REMARK                         _______ _______ _______ _____ _____    ______ ____
ROOT
ATOM      1  N   UNL     1       1.018  -4.256  -1.118  0.00  0.00    -0.292 N 
ATOM      2  C   UNL     1       0.658  -5.157  -0.183  0.00  0.00    +0.303 C 
ATOM      3  O   UNL     1      -0.473  -5.152   0.263  0.00  0.00    -0.253 OA
ATOM      4  N   UNL     1       1.552  -6.065   0.258  0.00  0.00    -0.285 N 
ATOM      5  C   UNL     1       2.915  -6.071  -0.279  0.00  0.00    +0.133 C 
ATOM      6  H   UNL     1       1.921  -4.261  -1.474  0.00  0.00    +0.151 HD
ENDROOT
BRANCH   1  13
ATOM      7  C   UNL     1      -0.018   1.461   0.010  0.00  0.00    +0.172 C 
ATOM      8  N   UNL     1       0.002  -0.004   0.002  0.00  0.00    -0.271 N 
ATOM      9  C   UNL     1       0.008  -0.789  -1.088  0.00  0.00    +0.044 A 
ATOM     10  C   UNL     1       0.030  -2.081  -0.670  0.00  0.00    +0.013 A 
ATOM     11  C   UNL     1       0.036  -2.082   0.723  0.00  0.00    +0.140 A 
ATOM     12  N   UNL     1       0.025  -0.837   1.131  0.00  0.00    -0.179 NA
ATOM     13  C   UNL     1       0.047  -3.270  -1.598  0.00  0.00    +0.108 C 
ATOM     14  C   UNL     1       0.448  -2.786  -2.997  0.00  0.00    +0.027 C 
ATOM     15  C   UNL     1      -0.411  -1.580  -3.387  0.00  0.00    +0.008 C 
ATOM     16  C   UNL     1      -0.009  -0.369  -2.536  0.00  0.00    +0.055 C 
ENDBRANCH   1  13
BRANCH   4  17
ATOM     17  C   UNL     1       1.160  -7.044   1.275  0.00  0.00    +0.150 C 
BRANCH  17  18
ATOM     18  C   UNL     1       0.611  -8.297   0.590  0.00  0.00    +0.248 C 
BRANCH  18  19
ATOM     19  O   UNL     1       1.652  -8.926  -0.160  0.00  0.00    -0.490 OA
BRANCH  19  20
ATOM     20  C   UNL     1       1.328 -10.061  -0.833  0.00  0.00    +0.121 A 
ATOM     21  C   UNL     1       0.033 -10.556  -0.778  0.00  0.00    +0.047 A 
ATOM     22  C   UNL     1      -0.295 -11.710  -1.463  0.00  0.00    +0.023 A 
ATOM     23  C   UNL     1       0.668 -12.373  -2.204  0.00  0.00    +0.041 A 
ATOM     24  C   UNL     1       1.960 -11.881  -2.260  0.00  0.00    +0.023 A 
ATOM     25  C   UNL     1       2.290 -10.724  -1.581  0.00  0.00    +0.047 A 
ATOM     26 CL   UNL     1       0.254 -13.823  -3.064  0.00  0.00    -0.084 Cl
ENDBRANCH  19  20
ENDBRANCH  18  19
ENDBRANCH  17  18
ENDBRANCH   4  17
TORSDOF 5
