REMARK  Name = ZINC20781277
REMARK  6 active torsions:
REMARK  status: ('A' for Active; 'I' for Inactive)
REMARK    1  A    between atoms: C_1  and  C_2
REMARK    2  A    between atoms: C_3  and  C_9
REMARK    3  A    between atoms: N_5  and  C_7
REMARK    4  A    between atoms: N_15  and  C_18
REMARK    5  A    between atoms: C_18  and  C_20
REMARK    6  A    between atoms: C_18  and  C_21
REMARK                            x       y       z     vdW  Elec       q    Type
REMARK                         _______ _______ _______ _____ _____    ______ ____
ROOT
ATOM      1  C   UNL     1      -0.016   1.309   0.009  0.00  0.00    +0.146 A 
ATOM      2  N   UNL     1       1.268   1.778  -0.001  0.00  0.00    -0.335 N 
ATOM      3  H   UNL     1       1.458   2.862   0.004  0.00  0.00    +0.167 HD
ATOM      4  C   UNL     1       2.103   0.671  -0.014  0.00  0.00    +0.105 A 
ATOM      5  C   UNL     1       3.425   0.210  -0.030  0.00  0.00    +0.162 A 
ATOM      6  N   UNL     1       3.413  -1.097  -0.038  0.00  0.00    -0.175 NA
ATOM      7  N   UNL     1       2.086  -1.544  -0.027  0.00  0.00    -0.238 N 
ATOM      8  C   UNL     1       1.271  -0.443  -0.013  0.00  0.00    +0.177 A 
ATOM      9  N   UNL     1       0.002  -0.004   0.002  0.00  0.00    -0.208 NA
ENDROOT
BRANCH   1  12
ATOM     10  C   UNL     1      -3.004   0.245   0.018  0.00  0.00    +0.068 C 
ATOM     11  C   UNL     1      -2.566   1.687   0.024  0.00  0.00    +0.072 A 
ATOM     12  C   UNL     1      -1.232   2.148   0.020  0.00  0.00    +0.076 A 
ATOM     13  C   UNL     1      -1.276   3.526   0.033  0.00  0.00    +0.138 A 
ATOM     14  N   UNL     1      -2.573   3.888   0.036  0.00  0.00    -0.255 N 
ATOM     15  N   UNL     1      -3.355   2.727   0.034  0.00  0.00    -0.175 NA
ATOM     16  C   UNL     1      -3.080   5.263   0.047  0.00  0.00    +0.174 C 
ATOM     17 CL   UNL     1       0.090   4.598   0.040  0.00  0.00    -0.062 Cl
ENDBRANCH   1  12
BRANCH   7  18
ATOM     18  C   UNL     1       1.647  -2.941  -0.030  0.00  0.00    +0.136 C 
ATOM     19  C   UNL     1       2.195  -3.651   1.210  0.00  0.00    +0.038 C 
BRANCH  18  20
ATOM     20  C   UNL     1       2.162  -3.627  -1.270  0.00  0.00    -0.023 A 
ATOM     21  C   UNL     1       3.522  -3.698  -1.505  0.00  0.00    +0.006 A 
ATOM     22  C   UNL     1       3.995  -4.330  -2.640  0.00  0.00    +0.000 A 
ATOM     23  C   UNL     1       3.107  -4.883  -3.544  0.00  0.00    +0.000 A 
ATOM     24  C   UNL     1       1.747  -4.807  -3.311  0.00  0.00    +0.000 A 
ATOM     25  C   UNL     1       1.274  -4.178  -2.174  0.00  0.00    +0.006 A 
ENDBRANCH  18  20
ENDBRANCH   7  18
TORSDOF 3
