REMARK  Name = ZINC45068176
REMARK  4 active torsions:
REMARK  status: ('A' for Active; 'I' for Inactive)
REMARK    1  A    between atoms: C_4  and  N_17
REMARK    2  A    between atoms: C_5  and  N_7
REMARK    3  A    between atoms: N_7  and  N_8
REMARK    4  A    between atoms: C_9  and  C_11
REMARK                            x       y       z     vdW  Elec       q    Type
REMARK                         _______ _______ _______ _____ _____    ______ ____
ROOT
ATOM      1  N   UNL     1       1.098  -2.035   0.472  0.00  0.00    -0.262 N 
ATOM      2  H   UNL     1       1.920  -2.547   0.526  0.00  0.00    +0.170 HD
ENDROOT
BRANCH   1   7
ATOM      3  C   UNL     1       0.030   1.454   0.031  0.00  0.00    +0.002 A 
ATOM      4  C   UNL     1       1.240   2.065  -0.243  0.00  0.00    +0.002 A 
ATOM      5  C   UNL     1       2.403   1.317  -0.280  0.00  0.00    +0.034 A 
ATOM      6  C   UNL     1       2.359  -0.043  -0.043  0.00  0.00    +0.148 A 
ATOM      7  C   UNL     1       1.145  -0.659   0.233  0.00  0.00    +0.075 A 
ATOM      8  C   UNL     1      -0.021   0.095   0.269  0.00  0.00    +0.027 A 
BRANCH   6   9
ATOM      9  N   UNL     1       3.604  -0.842  -0.083  0.00  0.00    +0.058 N 
ATOM     10  O   UNL     1       4.636  -0.375   0.339  0.00  0.00    -0.126 OA
ATOM     11  O   UNL     1       3.589  -1.963  -0.537  0.00  0.00    -0.126 OA
ENDBRANCH   6   9
ENDBRANCH   1   7
BRANCH   1  12
ATOM     12  N   UNL     1      -0.138  -2.675   0.636  0.00  0.00    -0.232 N 
ATOM     13  C   UNL     1      -0.184  -4.002   0.867  0.00  0.00    +0.261 C 
ATOM     14  O   UNL     1       0.847  -4.644   0.934  0.00  0.00    -0.269 OA
ATOM     15  H   UNL     1      -0.960  -2.163   0.582  0.00  0.00    +0.173 HD
BRANCH  13  16
ATOM     16  C   UNL     1      -1.482  -4.674   1.038  0.00  0.00    +0.046 A 
ATOM     17  C   UNL     1      -1.571  -6.092   1.293  0.00  0.00    +0.036 A 
ATOM     18  C   UNL     1      -2.818  -6.585   1.431  0.00  0.00    +0.056 A 
ATOM     19  S   UNL     1      -3.846  -5.147   1.219  0.00  0.00    -0.089 S 
ATOM     20  C   UNL     1      -2.668  -3.979   0.970  0.00  0.00    +0.059 A 
ATOM     21 BR   UNL     1      -3.347  -8.369   1.768  0.00  0.00    -0.043 Br
ENDBRANCH  13  16
ENDBRANCH   1  12
TORSDOF 4
