REMARK  Name = ZINC66556314
REMARK  7 active torsions:
REMARK  status: ('A' for Active; 'I' for Inactive)
REMARK    1  A    between atoms: C_1  and  C_2
REMARK    2  A    between atoms: C_6  and  C_7
REMARK    3  A    between atoms: N_9  and  N_10
REMARK    4  A    between atoms: C_11  and  C_13
REMARK    5  A    between atoms: N_16  and  C_18
REMARK    6  A    between atoms: C_21  and  O_24
REMARK    7  A    between atoms: O_24  and  C_25
REMARK                            x       y       z     vdW  Elec       q    Type
REMARK                         _______ _______ _______ _____ _____    ______ ____
ROOT
ATOM      1  N   UNL     1       0.059  -0.732   4.900  0.00  0.00    -0.229 N 
ATOM      2  C   UNL     1       0.081  -1.625   5.909  0.00  0.00    +0.280 C 
ATOM      3  O   UNL     1       0.094  -2.816   5.666  0.00  0.00    -0.267 OA
ATOM      4  H   UNL     1       0.048   0.219   5.094  0.00  0.00    +0.173 HD
ENDROOT
BRANCH   2   5
ATOM      5  C   UNL     1       0.088  -1.157   7.309  0.00  0.00    +0.149 A 
ATOM      6  C   UNL     1       0.116  -1.969   8.467  0.00  0.00    +0.054 A 
ATOM      7  C   UNL     1       0.112  -1.111   9.514  0.00  0.00    +0.115 A 
ATOM      8  N   UNL     1       0.084   0.146   9.000  0.00  0.00    -0.239 N 
ATOM      9  N   UNL     1       0.076   0.098   7.716  0.00  0.00    -0.162 NA
BRANCH   8  10
ATOM     10  C   UNL     1       0.070   1.325   9.759  0.00  0.00    +0.066 A 
ATOM     11  C   UNL     1       0.092   1.257  11.146  0.00  0.00    +0.031 A 
ATOM     12  C   UNL     1       0.079   2.418  11.894  0.00  0.00    +0.048 A 
ATOM     13  C   UNL     1       0.044   3.651  11.259  0.00  0.00    +0.120 A 
ATOM     14  C   UNL     1       0.022   3.719   9.874  0.00  0.00    +0.048 A 
ATOM     15  C   UNL     1       0.041   2.559   9.125  0.00  0.00    +0.031 A 
BRANCH  13  16
ATOM     16  O   UNL     1       0.031   4.794  11.996  0.00  0.00    -0.495 OA
ATOM     17  C   UNL     1      -0.005   6.029  11.277  0.00  0.00    +0.277 C 
ENDBRANCH  13  16
ENDBRANCH   8  10
ENDBRANCH   2   5
BRANCH   1  20
ATOM     18  C   UNL     1       0.031  -0.283   2.562  0.00  0.00    +0.267 C 
ATOM     19  O   UNL     1       0.017   0.910   2.805  0.00  0.00    -0.268 OA
ATOM     20  N   UNL     1       0.052  -1.176   3.571  0.00  0.00    -0.230 N 
ATOM     21  H   UNL     1       0.063  -2.126   3.378  0.00  0.00    +0.173 HD
BRANCH  18  27
ATOM     22  C   UNL     1      -0.018   1.503   0.010  0.00  0.00    +0.045 C 
ATOM     23  C   UNL     1       0.002  -0.004   0.002  0.00  0.00    -0.031 A 
ATOM     24  C   UNL     1       0.007  -0.729  -1.166  0.00  0.00    +0.011 A 
ATOM     25  C   UNL     1       0.025  -2.083  -1.101  0.00  0.00    +0.046 A 
ATOM     26  S   UNL     1       0.037  -2.416   0.545  0.00  0.00    -0.092 S 
ATOM     27  C   UNL     1       0.023  -0.748   1.172  0.00  0.00    +0.078 A 
ENDBRANCH  18  27
ENDBRANCH   1  20
TORSDOF 5
