REMARK  Name = ZINC58301829
REMARK  10 active torsions:
REMARK  status: ('A' for Active; 'I' for Inactive)
REMARK    1  A    between atoms: C_1  and  C_2
REMARK    2  A    between atoms: C_4  and  C_14
REMARK    3  A    between atoms: N_10  and  C_13
REMARK    4  A    between atoms: N_16  and  C_17
REMARK    5  A    between atoms: C_17  and  C_18
REMARK    6  A    between atoms: C_17  and  C_19
REMARK    7  A    between atoms: C_23  and  O_25
REMARK    8  A    between atoms: O_25  and  C_26
REMARK    9  A    between atoms: C_26  and  C_27
REMARK   10  A    between atoms: C_26  and  C_28
REMARK                            x       y       z     vdW  Elec       q    Type
REMARK                         _______ _______ _______ _____ _____    ______ ____
ROOT
ATOM      1  C   UNL     1      -1.029  -3.197  -3.102  0.00  0.00    +0.245 C 
ATOM      2  O   UNL     1      -0.987  -4.411  -3.141  0.00  0.00    -0.270 OA
ATOM      3  N   UNL     1      -0.856  -2.480  -4.230  0.00  0.00    -0.305 N 
ATOM      4  H   UNL     1      -0.890  -1.512  -4.199  0.00  0.00    +0.150 HD
ENDROOT
BRANCH   1   8
ATOM      5  C   UNL     1      -1.611   0.998  -0.443  0.00  0.00    +0.065 C 
ATOM      6  C   UNL     1      -1.554  -0.506  -0.520  0.00  0.00    +0.041 A 
ATOM      7  C   UNL     1      -1.325  -1.112  -1.744  0.00  0.00    +0.037 A 
ATOM      8  C   UNL     1      -1.272  -2.505  -1.814  0.00  0.00    +0.054 A 
ATOM      9  C   UNL     1      -1.456  -3.229  -0.626  0.00  0.00    +0.096 A 
ATOM     10  C   UNL     1      -1.471  -4.665  -0.298  0.00  0.00    +0.275 A 
ATOM     11  O   UNL     1      -1.309  -5.586  -1.074  0.00  0.00    -0.266 OA
ATOM     12  N   UNL     1      -1.698  -4.764   1.028  0.00  0.00    -0.262 N 
ATOM     13  H   UNL     1      -1.760  -5.594   1.527  0.00  0.00    +0.190 HD
ATOM     14  N   UNL     1      -1.829  -3.482   1.572  0.00  0.00    -0.269 N 
ATOM     15  C   UNL     1      -1.684  -2.537   0.575  0.00  0.00    +0.161 A 
ATOM     16  N   UNL     1      -1.719  -1.213   0.580  0.00  0.00    -0.233 NA
ATOM     17  C   UNL     1      -2.082  -3.187   2.985  0.00  0.00    +0.172 C 
ENDBRANCH   1   8
BRANCH   3  18
ATOM     18  C   UNL     1      -0.616  -3.165  -5.503  0.00  0.00    +0.101 C 
ATOM     19  C   UNL     1      -1.955  -3.555  -6.132  0.00  0.00    +0.033 C 
BRANCH  18  20
ATOM     20  C   UNL     1       0.127  -2.244  -6.436  0.00  0.00    -0.024 A 
ATOM     21  C   UNL     1      -0.197  -0.900  -6.485  0.00  0.00    +0.006 A 
ATOM     22  C   UNL     1       0.483  -0.053  -7.339  0.00  0.00    +0.004 A 
ATOM     23  C   UNL     1       1.489  -0.547  -8.148  0.00  0.00    +0.045 A 
ATOM     24  C   UNL     1       1.816  -1.894  -8.101  0.00  0.00    +0.121 A 
ATOM     25  C   UNL     1       1.136  -2.741  -7.238  0.00  0.00    +0.051 A 
BRANCH  24  26
ATOM     26  O   UNL     1       2.805  -2.382  -8.896  0.00  0.00    -0.489 OA
BRANCH  26  27
ATOM     27  C   UNL     1       3.168  -3.752  -8.711  0.00  0.00    +0.167 C 
ATOM     28  C   UNL     1       2.228  -4.643  -9.526  0.00  0.00    +0.051 C 
ATOM     29  C   UNL     1       4.608  -3.965  -9.182  0.00  0.00    +0.051 C 
ENDBRANCH  26  27
ENDBRANCH  24  26
ENDBRANCH  18  20
ENDBRANCH   3  18
TORSDOF 5
