REMARK  Name = ZINC08636388
REMARK  9 active torsions:
REMARK  status: ('A' for Active; 'I' for Inactive)
REMARK    1  A    between atoms: C_1  and  N_2
REMARK    2  A    between atoms: N_2  and  C_3
REMARK    3  A    between atoms: C_3  and  C_4
REMARK    4  A    between atoms: C_6  and  C_8
REMARK    5  A    between atoms: C_11  and  O_35
REMARK    6  A    between atoms: C_13  and  O_34
REMARK    7  A    between atoms: N_19  and  C_23
REMARK    8  A    between atoms: C_26  and  O_29
REMARK    9  A    between atoms: O_29  and  C_30
REMARK                            x       y       z     vdW  Elec       q    Type
REMARK                         _______ _______ _______ _____ _____    ______ ____
ROOT
ATOM      1  C   UNL     1      -1.022  -1.990  -2.484  0.00  0.00    +0.100 C 
ATOM      2  C   UNL     1      -0.449  -2.852  -1.386  0.00  0.00    +0.048 C 
ATOM      3  C   UNL     1      -1.490  -3.214  -0.347  0.00  0.00    +0.146 C 
ATOM      4  C   UNL     1      -2.696  -3.885  -0.953  0.00  0.00    +0.165 C 
ATOM      5  C   UNL     1      -3.304  -3.168  -2.135  0.00  0.00    +0.124 C 
ATOM      6  C   UNL     1      -2.334  -2.431  -3.030  0.00  0.00    +0.115 C 
ATOM      7  N   UNL     1      -2.253  -3.224  -4.256  0.00  0.00    -0.277 N 
ATOM      8  C   UNL     1      -3.199  -4.178  -4.195  0.00  0.00    +0.138 C 
ATOM      9  S   UNL     1      -3.502  -5.278  -5.472  0.00  0.00    -0.018 S 
ATOM     10  N   UNL     1      -3.883  -4.189  -3.041  0.00  0.00    -0.319 N 
ATOM     11  H   UNL     1      -4.632  -4.769  -2.834  0.00  0.00    +0.148 HD
ENDROOT
BRANCH   7  12
ATOM     12  C   UNL     1      -1.351  -3.025  -5.308  0.00  0.00    +0.036 A 
ATOM     13  C   UNL     1      -1.518  -1.952  -6.173  0.00  0.00    +0.027 A 
ATOM     14  C   UNL     1      -0.625  -1.753  -7.207  0.00  0.00    +0.048 A 
ATOM     15  C   UNL     1       0.433  -2.632  -7.389  0.00  0.00    +0.130 A 
ATOM     16  C   UNL     1       0.598  -3.708  -6.529  0.00  0.00    +0.048 A 
ATOM     17  C   UNL     1      -0.292  -3.905  -5.491  0.00  0.00    +0.027 A 
BRANCH  15  18
ATOM     18  O   UNL     1       1.309  -2.438  -8.411  0.00  0.00    -0.406 OA
BRANCH  18  19
ATOM     19  C   UNL     1       1.079  -1.311  -9.258  0.00  0.00    +0.575 C 
ATOM     20  F   UNL     1       1.126  -0.138  -8.496  0.00  0.00    -0.133 F 
ATOM     21  F   UNL     1       2.066  -1.263 -10.248  0.00  0.00    -0.133 F 
ATOM     22  F   UNL     1      -0.179  -1.427  -9.858  0.00  0.00    -0.133 F 
ENDBRANCH  18  19
ENDBRANCH  15  18
ENDBRANCH   7  12
BRANCH   1  25
ATOM     23  C   UNL     1       1.675  -2.773  -2.080  0.00  0.00    +0.132 C 
ATOM     24  N   UNL     1       1.232  -2.388  -3.422  0.00  0.00    -0.301 N 
ATOM     25  C   UNL     1      -0.029  -1.952  -3.617  0.00  0.00    +0.221 C 
ATOM     26  O   UNL     1      -0.363  -1.530  -4.703  0.00  0.00    -0.275 OA
BRANCH  24  27
ATOM     27  C   UNL     1       2.159  -2.477  -4.553  0.00  0.00    +0.134 C 
BRANCH  27  28
ATOM     28  C   UNL     1       3.040  -1.254  -4.577  0.00  0.00    -0.016 C 
ATOM     29  C   UNL     1       4.343  -1.386  -4.587  0.00  0.00    +0.005 C 
ENDBRANCH  27  28
ENDBRANCH  24  27
ENDBRANCH   1  25
BRANCH   4  30
ATOM     30  O   UNL     1      -2.317  -5.199  -1.369  0.00  0.00    -0.387 OA
ATOM     31  H   UNL     1      -1.994  -5.761  -0.652  0.00  0.00    +0.210 HD
ENDBRANCH   4  30
BRANCH   3  32
ATOM     32  O   UNL     1      -1.910  -2.022   0.321  0.00  0.00    -0.389 OA
ATOM     33  H   UNL     1      -1.194  -1.542   0.757  0.00  0.00    +0.210 HD
ENDBRANCH   3  32
TORSDOF 8
