REMARK  Name = ZINC14540922
REMARK  7 active torsions:
REMARK  status: ('A' for Active; 'I' for Inactive)
REMARK    1  A    between atoms: C_1  and  C_2
REMARK    2  A    between atoms: C_2  and  N_3
REMARK    3  A    between atoms: C_6  and  C_8
REMARK    4  A    between atoms: C_17  and  N_54
REMARK    5  A    between atoms: C_21  and  C_22
REMARK    6  A    between atoms: C_21  and  N_54
REMARK    7  A    between atoms: C_22  and  C_23
REMARK                            x       y       z     vdW  Elec       q    Type
REMARK                         _______ _______ _______ _____ _____    ______ ____
ROOT
ATOM      1  N   UNL     1      -3.350  -1.204   0.262  0.00  0.00    -0.268 N 
ATOM      2  C   UNL     1      -2.729  -2.393   0.316  0.00  0.00    +0.043 A 
ATOM      3  C   UNL     1      -1.398  -2.155   0.222  0.00  0.00    +0.004 A 
ATOM      4  C   UNL     1      -1.261  -0.760   0.121  0.00  0.00    +0.151 A 
ATOM      5  N   UNL     1      -2.483  -0.257   0.149  0.00  0.00    -0.166 NA
ATOM      6  C   UNL     1      -0.337  -3.221   0.231  0.00  0.00    +0.023 C 
ATOM      7  C   UNL     1      -1.008  -4.571  -0.052  0.00  0.00    -0.067 C 
ATOM      8  C   UNL     1      -2.221  -4.742   0.867  0.00  0.00    -0.009 C 
ATOM      9  C   UNL     1      -3.329  -3.769   0.451  0.00  0.00    +0.054 C 
ENDROOT
BRANCH   4  10
ATOM     10  C   UNL     1       0.002  -0.004   0.002  0.00  0.00    +0.267 C 
ATOM     11  O   UNL     1       1.068  -0.580   0.103  0.00  0.00    -0.268 OA
ATOM     12  N   UNL     1      -0.027   1.325  -0.219  0.00  0.00    -0.295 N 
ATOM     13  C   UNL     1      -1.302   1.982  -0.508  0.00  0.00    +0.119 C 
ATOM     14  C   UNL     1      -1.647   2.945   0.640  0.00  0.00    +0.088 C 
ATOM     15  S   UNL     1      -0.286   4.135   0.829  0.00  0.00    -0.158 S 
ATOM     16  C   UNL     1       1.175   3.067   1.009  0.00  0.00    +0.088 C 
ATOM     17  C   UNL     1       1.219   2.093  -0.173  0.00  0.00    +0.119 C 
ENDBRANCH   4  10
BRANCH   7  18
ATOM     18  N   UNL     1      -0.041  -5.656   0.203  0.00  0.00    +0.381 N 
ATOM     19  H   UNL     1      -0.053  -5.891   1.203  0.00  0.00    -0.086 HD
ATOM     20  H   UNL     1       0.899  -5.340  -0.063  0.00  0.00    -0.086 HD
BRANCH  18  21
ATOM     21  C   UNL     1      -0.394  -6.852  -0.583  0.00  0.00    -0.077 C 
BRANCH  21  22
ATOM     22  C   UNL     1       0.624  -7.958  -0.298  0.00  0.00    +0.023 C 
BRANCH  22  23
ATOM     23  C   UNL     1       0.271  -9.185  -1.098  0.00  0.00    -0.012 A 
ATOM     24  C   UNL     1       0.664  -9.531  -2.348  0.00  0.00    +0.011 A 
ATOM     25  C   UNL     1       0.212 -10.721  -2.888  0.00  0.00    +0.008 A 
ATOM     26  C   UNL     1      -0.619 -11.501  -2.155  0.00  0.00    +0.045 A 
ATOM     27  S   UNL     1      -0.781 -10.556  -0.649  0.00  0.00    -0.102 S 
ENDBRANCH  22  23
ENDBRANCH  21  22
ENDBRANCH  18  21
ENDBRANCH   7  18
BRANCH   1  29
ATOM     28  C   UNL     1      -5.380  -1.047  -1.094  0.00  0.00    +0.029 C 
ATOM     29  C   UNL     1      -4.801  -1.010   0.322  0.00  0.00    +0.140 C 
ENDBRANCH   1  29
TORSDOF 6
