REMARK  Name = ZINC57836169
REMARK  5 active torsions:
REMARK  status: ('A' for Active; 'I' for Inactive)
REMARK    1  A    between atoms: C_1  and  C_2
REMARK    2  A    between atoms: C_2  and  C_3
REMARK    3  A    between atoms: C_4  and  C_22
REMARK    4  A    between atoms: C_6  and  C_8
REMARK    5  A    between atoms: C_17  and  N_19
REMARK                            x       y       z     vdW  Elec       q    Type
REMARK                         _______ _______ _______ _____ _____    ______ ____
ROOT
ATOM      1  C   UNL     1       1.670  -1.770  -4.992  0.00  0.00    +0.257 C 
ATOM      2  O   UNL     1       1.525  -1.494  -3.816  0.00  0.00    -0.269 OA
ATOM      3  N   UNL     1       0.612  -1.738  -5.827  0.00  0.00    -0.266 N 
ATOM      4  C   UNL     1       0.637  -2.155  -7.231  0.00  0.00    +0.119 C 
ATOM      5  C   UNL     1      -0.795  -1.932  -7.744  0.00  0.00    +0.056 C 
ATOM      6  C   UNL     1      -1.546  -1.387  -6.550  0.00  0.00    -0.022 A 
ATOM      7  C   UNL     1      -0.671  -1.308  -5.478  0.00  0.00    +0.040 A 
ATOM      8  C   UNL     1      -1.143  -0.834  -4.252  0.00  0.00    +0.026 A 
ATOM      9  C   UNL     1      -2.461  -0.455  -4.114  0.00  0.00    +0.034 A 
ATOM     10  C   UNL     1      -3.327  -0.542  -5.189  0.00  0.00    +0.127 A 
ATOM     11  C   UNL     1      -2.865  -1.002  -6.408  0.00  0.00    +0.038 A 
ENDROOT
BRANCH   1  15
ATOM     12  C   UNL     1       5.107  -2.891  -6.886  0.00  0.00    -0.007 A 
ATOM     13  C   UNL     1       5.296  -2.534  -5.591  0.00  0.00    -0.040 A 
ATOM     14  C   UNL     1       4.215  -2.135  -4.843  0.00  0.00    +0.024 A 
ATOM     15  C   UNL     1       2.994  -2.135  -5.502  0.00  0.00    +0.075 A 
ATOM     16  S   UNL     1       3.457  -2.691  -7.131  0.00  0.00    -0.088 S 
ATOM     17  C   UNL     1       6.674  -2.574  -4.981  0.00  0.00    +0.044 C 
BRANCH  12  19
ATOM     18  C   UNL     1       6.266  -4.879  -7.811  0.00  0.00    +0.009 C 
ATOM     19  C   UNL     1       6.141  -3.355  -7.879  0.00  0.00    +0.039 C 
ENDBRANCH  12  19
ENDBRANCH   1  15
BRANCH  10  20
ATOM     20  N   UNL     1      -4.742  -0.135  -5.037  0.00  0.00    +0.056 N 
ATOM     21  O   UNL     1      -5.142   0.274  -3.972  0.00  0.00    -0.126 OA
ATOM     22  O   UNL     1      -5.497  -0.212  -5.977  0.00  0.00    -0.126 OA
ENDBRANCH  10  20
TORSDOF 3
