REMARK  Name = ZINC54059617
REMARK  7 active torsions:
REMARK  status: ('A' for Active; 'I' for Inactive)
REMARK    1  A    between atoms: C_1  and  C_2
REMARK    2  A    between atoms: C_4  and  N_20
REMARK    3  A    between atoms: C_7  and  N_8
REMARK    4  A    between atoms: N_13  and  C_19
REMARK    5  A    between atoms: C_16  and  C_18
REMARK    6  A    between atoms: N_20  and  C_21
REMARK    7  A    between atoms: N_20  and  C_22
REMARK                            x       y       z     vdW  Elec       q    Type
REMARK                         _______ _______ _______ _____ _____    ______ ____
ROOT
ATOM      1  N   UNL     1       0.025  -0.011   2.417  0.00  0.00    -0.299 N 
ATOM      2  C   UNL     1      -0.648  -0.527   3.508  0.00  0.00    +0.137 A 
ATOM      3  C   UNL     1      -0.750   0.207   4.706  0.00  0.00    +0.079 A 
ATOM      4  C   UNL     1      -0.295   1.472   5.137  0.00  0.00    +0.148 A 
ATOM      5  N   UNL     1      -0.682   1.652   6.368  0.00  0.00    -0.177 NA
ATOM      6  N   UNL     1      -1.400   0.531   6.806  0.00  0.00    -0.249 N 
ATOM      7  C   UNL     1      -1.448  -0.370   5.784  0.00  0.00    +0.163 A 
ATOM      8  N   UNL     1      -1.983  -1.581   5.630  0.00  0.00    -0.213 NA
ATOM      9  C   UNL     1      -1.861  -2.227   4.491  0.00  0.00    +0.130 A 
ATOM     10  N   UNL     1      -1.220  -1.725   3.451  0.00  0.00    -0.217 NA
ATOM     11  C   UNL     1      -2.483  -3.594   4.366  0.00  0.00    +0.088 C 
ATOM     12  C   UNL     1      -1.995   0.358   8.133  0.00  0.00    +0.174 C 
ATOM     13  H   UNL     1       0.354   0.902   2.437  0.00  0.00    +0.154 HD
ENDROOT
BRANCH   1  20
ATOM     14  C   UNL     1       0.291   1.286  -0.099  0.00  0.00    +0.046 C 
ATOM     15  C   UNL     1       0.369  -0.213   0.035  0.00  0.00    -0.028 A 
ATOM     16  C   UNL     1       0.581  -0.996  -1.082  0.00  0.00    +0.028 A 
ATOM     17  C   UNL     1       0.653  -2.377  -0.959  0.00  0.00    +0.030 A 
ATOM     18  C   UNL     1       0.512  -2.971   0.289  0.00  0.00    +0.025 A 
ATOM     19  C   UNL     1       0.300  -2.188   1.406  0.00  0.00    +0.025 A 
ATOM     20  C   UNL     1       0.234  -0.806   1.283  0.00  0.00    +0.035 A 
BRANCH  17  21
ATOM     21  N   UNL     1       0.867  -3.171  -2.091  0.00  0.00    -0.336 N 
ATOM     22  C   UNL     1       1.015  -2.545  -3.407  0.00  0.00    +0.129 C 
ATOM     23  C   UNL     1       0.943  -4.628  -1.960  0.00  0.00    +0.129 C 
ENDBRANCH  17  21
ENDBRANCH   1  20
TORSDOF 2
