REMARK  Name = ZINC20154646
REMARK  6 active torsions:
REMARK  status: ('A' for Active; 'I' for Inactive)
REMARK    1  A    between atoms: C_1  and  C_2
REMARK    2  A    between atoms: C_2  and  O_3
REMARK    3  A    between atoms: O_3  and  C_4
REMARK    4  A    between atoms: C_6  and  C_14
REMARK    5  A    between atoms: C_8  and  N_11
REMARK    6  A    between atoms: C_25  and  C_28
REMARK                            x       y       z     vdW  Elec       q    Type
REMARK                         _______ _______ _______ _____ _____    ______ ____
ROOT
ATOM      1  C   UNL     1      -4.871   0.257   0.050  0.00  0.00    +0.063 C 
ATOM      2  C   UNL     1      -5.676  -0.088   1.304  0.00  0.00    +0.109 C 
ATOM      3  C   UNL     1      -6.246  -1.476   1.158  0.00  0.00    +0.218 C 
ATOM      4  O   UNL     1      -6.367  -2.186   2.133  0.00  0.00    -0.275 OA
ATOM      5  N   UNL     1      -6.620  -1.927  -0.051  0.00  0.00    -0.289 N 
ATOM      6  C   UNL     1      -6.519  -1.135  -1.167  0.00  0.00    +0.018 C 
ATOM      7  C   UNL     1      -5.689  -0.071  -1.177  0.00  0.00    +0.020 C 
ATOM      8  C   UNL     1      -5.565   0.749  -2.311  0.00  0.00    +0.162 C 
ATOM      9  O   UNL     1      -4.816   1.705  -2.278  0.00  0.00    -0.292 OA
ATOM     10  C   UNL     1      -6.346   0.462  -3.565  0.00  0.00    +0.088 C 
ATOM     11  C   UNL     1      -6.620  -1.044  -3.647  0.00  0.00    +0.033 C 
ATOM     12  C   UNL     1      -7.354  -1.476  -2.376  0.00  0.00    +0.060 C 
ATOM     13  H   UNL     1      -7.016  -2.948  -0.159  0.00  0.00    +0.155 HD
ENDROOT
BRANCH   1  16
ATOM     14  C   UNL     1      -1.201  -0.638   0.010  0.00  0.00    +0.169 A 
ATOM     15  C   UNL     1      -2.374   0.099   0.025  0.00  0.00    +0.054 A 
ATOM     16  C   UNL     1      -3.596  -0.546   0.034  0.00  0.00    -0.034 A 
ATOM     17  C   UNL     1      -3.652  -1.928   0.027  0.00  0.00    +0.041 A 
ATOM     18  C   UNL     1      -2.485  -2.669   0.012  0.00  0.00    +0.177 A 
ATOM     19  C   UNL     1      -1.257  -2.028  -0.003  0.00  0.00    +0.250 A 
ATOM     20  O   UNL     1      -0.108  -2.756  -0.023  0.00  0.00    -0.282 OA
BRANCH  18  21
ATOM     21  N   UNL     1      -2.548  -4.148   0.005  0.00  0.00    +0.060 N 
ATOM     22  O   UNL     1      -3.628  -4.712   0.013  0.00  0.00    -0.126 OA
ATOM     23  O   UNL     1      -1.520  -4.802  -0.008  0.00  0.00    -0.126 OA
ENDBRANCH  18  21
BRANCH  14  24
ATOM     24  O   UNL     1       0.002  -0.004   0.002  0.00  0.00    -0.488 OA
BRANCH  24  26
ATOM     25  C   UNL     1       1.418   1.954  -0.001  0.00  0.00    +0.048 C 
ATOM     26  C   UNL     1      -0.017   1.425   0.010  0.00  0.00    +0.226 C 
ENDBRANCH  24  26
ENDBRANCH  14  24
ENDBRANCH   1  16
BRANCH  11  27
ATOM     27  C   UNL     1      -7.476  -1.337  -4.851  0.00  0.00    -0.025 A 
ATOM     28  C   UNL     1      -8.723  -0.751  -4.973  0.00  0.00    +0.005 A 
ATOM     29  C   UNL     1      -9.509  -1.021  -6.077  0.00  0.00    +0.000 A 
ATOM     30  C   UNL     1      -9.049  -1.876  -7.061  0.00  0.00    +0.001 A 
ATOM     31  C   UNL     1      -7.803  -2.462  -6.941  0.00  0.00    +0.020 A 
ATOM     32  C   UNL     1      -7.014  -2.189  -5.838  0.00  0.00    +0.044 A 
ATOM     33 CL   UNL     1      -5.446  -2.920  -5.690  0.00  0.00    -0.083 Cl
ENDBRANCH  11  27
TORSDOF 5
