REMARK  Name = ZINC05076749
REMARK  7 active torsions:
REMARK  status: ('A' for Active; 'I' for Inactive)
REMARK    1  A    between atoms: C_1  and  C_2
REMARK    2  A    between atoms: C_2  and  C_4
REMARK    3  A    between atoms: C_2  and  O_17
REMARK    4  A    between atoms: N_6  and  C_7
REMARK    5  A    between atoms: O_17  and  C_18
REMARK    6  A    between atoms: C_18  and  C_20
REMARK    7  A    between atoms: C_24  and  O_26
REMARK                            x       y       z     vdW  Elec       q    Type
REMARK                         _______ _______ _______ _____ _____    ______ ____
ROOT
ATOM      1  C   UNL     1       3.639  -2.007   0.050  0.00  0.00    +0.258 C 
ATOM      2  O   UNL     1       2.597  -2.628   0.058  0.00  0.00    -0.271 OA
ATOM      3  N   UNL     1       3.621  -0.663  -0.044  0.00  0.00    -0.282 N 
ATOM      4  H   UNL     1       4.454  -0.172  -0.128  0.00  0.00    +0.155 HD
ENDROOT
BRANCH   3   5
ATOM      5  C   UNL     1       2.401   0.025  -0.020  0.00  0.00    +0.037 A 
ATOM      6  C   UNL     1       1.345  -0.460   0.740  0.00  0.00    +0.027 A 
ATOM      7  C   UNL     1       0.142   0.218   0.764  0.00  0.00    +0.051 A 
ATOM      8  C   UNL     1      -0.016   1.384   0.029  0.00  0.00    +0.162 A 
ATOM      9  C   UNL     1       1.040   1.873  -0.731  0.00  0.00    +0.164 A 
ATOM     10  C   UNL     1       2.248   1.192  -0.755  0.00  0.00    +0.072 A 
ATOM     11  O   UNL     1       0.907   3.021  -1.451  0.00  0.00    -0.485 OA
ATOM     12  C   UNL     1      -0.428   3.474  -1.700  0.00  0.00    +0.270 C 
ATOM     13  C   UNL     1      -1.215   3.396  -0.385  0.00  0.00    +0.270 C 
ATOM     14  O   UNL     1      -1.212   2.034   0.059  0.00  0.00    -0.485 OA
ENDBRANCH   3   5
BRANCH   1  16
ATOM     15  C   UNL     1       5.738  -2.546  -1.156  0.00  0.00    +0.062 C 
ATOM     16  C   UNL     1       4.953  -2.739   0.143  0.00  0.00    +0.259 C 
BRANCH  16  17
ATOM     17  O   UNL     1       4.705  -4.154   0.353  0.00  0.00    -0.449 OA
BRANCH  17  18
ATOM     18  C   UNL     1       5.630  -4.841   1.050  0.00  0.00    +0.340 C 
ATOM     19  O   UNL     1       6.618  -4.273   1.472  0.00  0.00    -0.245 OA
BRANCH  18  20
ATOM     20  C   UNL     1       5.445  -6.285   1.303  0.00  0.00    +0.062 A 
ATOM     21  C   UNL     1       4.311  -6.941   0.819  0.00  0.00    +0.015 A 
ATOM     22  C   UNL     1       4.140  -8.289   1.056  0.00  0.00    +0.004 A 
ATOM     23  C   UNL     1       5.090  -8.994   1.772  0.00  0.00    +0.045 A 
ATOM     24  C   UNL     1       6.221  -8.351   2.257  0.00  0.00    +0.118 A 
ATOM     25  C   UNL     1       6.405  -7.000   2.020  0.00  0.00    +0.060 A 
BRANCH  24  26
ATOM     26  O   UNL     1       7.151  -9.050   2.960  0.00  0.00    -0.507 OA
ATOM     27  H   UNL     1       7.847  -9.438   2.413  0.00  0.00    +0.292 HD
ENDBRANCH  24  26
ENDBRANCH  18  20
ENDBRANCH  17  18
ENDBRANCH  16  17
ENDBRANCH   1  16
TORSDOF 6
