REMARK  Name = ZINC57530966
REMARK  10 active torsions:
REMARK  status: ('A' for Active; 'I' for Inactive)
REMARK    1  A    between atoms: C_1  and  C_2
REMARK    2  A    between atoms: C_6  and  C_15
REMARK    3  A    between atoms: C_13  and  C_14
REMARK    4  A    between atoms: C_15  and  C_17
REMARK    5  A    between atoms: C_15  and  N_28
REMARK    6  A    between atoms: N_21  and  C_22
REMARK    7  A    between atoms: N_28  and  C_29
REMARK    8  A    between atoms: N_28  and  C_36
REMARK    9  A    between atoms: C_29  and  C_30
REMARK   10  A    between atoms: C_36  and  C_37
REMARK                            x       y       z     vdW  Elec       q    Type
REMARK                         _______ _______ _______ _____ _____    ______ ____
ROOT
ATOM      1  C   UNL     1      -0.400  -5.022  -3.097  0.00  0.00    +0.163 C 
ENDROOT
BRANCH   1   7
ATOM      2  C   UNL     1      -0.785   2.219  -1.350  0.00  0.00    +0.044 C 
ATOM      3  C   UNL     1      -0.985   0.768  -0.994  0.00  0.00    -0.047 A 
ATOM      4  C   UNL     1      -0.669  -0.202  -1.902  0.00  0.00    +0.013 A 
ATOM      5  C   UNL     1      -0.855  -1.548  -1.571  0.00  0.00    -0.001 A 
ATOM      6  C   UNL     1      -0.527  -2.614  -2.520  0.00  0.00    +0.021 A 
ATOM      7  C   UNL     1      -0.727  -3.901  -2.143  0.00  0.00    +0.042 A 
ATOM      8  C   UNL     1      -1.241  -4.195  -0.862  0.00  0.00    +0.254 A 
ATOM      9  O   UNL     1      -1.413  -5.359  -0.544  0.00  0.00    -0.268 OA
ATOM     10  N   UNL     1      -1.545  -3.224   0.016  0.00  0.00    -0.322 N 
ATOM     11  H   UNL     1      -1.895  -3.461   0.889  0.00  0.00    +0.169 HD
ATOM     12  C   UNL     1      -1.365  -1.895  -0.305  0.00  0.00    +0.049 A 
ATOM     13  C   UNL     1      -1.679  -0.890   0.603  0.00  0.00    +0.030 A 
ATOM     14  C   UNL     1      -1.483   0.430   0.257  0.00  0.00    -0.046 A 
ATOM     15  C   UNL     1      -1.818   1.517   1.245  0.00  0.00    +0.044 C 
ENDBRANCH   1   7
BRANCH   1  16
ATOM     16  C   UNL     1      -1.641  -5.834  -3.361  0.00  0.00    +0.173 A 
ATOM     17  N   UNL     1      -2.140  -6.773  -2.594  0.00  0.00    -0.111 NA
ATOM     18  N   UNL     1      -3.203  -7.228  -3.163  0.00  0.00    -0.023 NA
ATOM     19  N   UNL     1      -3.394  -6.605  -4.273  0.00  0.00    -0.044 NA
ATOM     20  N   UNL     1      -2.456  -5.733  -4.428  0.00  0.00    -0.224 N 
BRANCH  20  21
ATOM     21  C   UNL     1      -2.303  -4.811  -5.555  0.00  0.00    +0.111 C 
ATOM     22  C   UNL     1      -3.458  -3.807  -5.554  0.00  0.00    +0.027 C 
ATOM     23  C   UNL     1      -3.298  -2.844  -6.731  0.00  0.00    +0.002 C 
ATOM     24  C   UNL     1      -3.310  -3.633  -8.042  0.00  0.00    +0.000 C 
ATOM     25  C   UNL     1      -2.155  -4.636  -8.043  0.00  0.00    +0.002 C 
ATOM     26  C   UNL     1      -2.314  -5.600  -6.866  0.00  0.00    +0.027 C 
ENDBRANCH  20  21
ENDBRANCH   1  16
BRANCH   1  27
ATOM     27  N   UNL     1       0.632  -5.883  -2.504  0.00  0.00    -0.277 NA
BRANCH  27  28
ATOM     28  C   UNL     1       1.077  -6.905  -3.461  0.00  0.00    +0.122 C 
BRANCH  28  29
ATOM     29  C   UNL     1       0.065  -8.020  -3.513  0.00  0.00    -0.015 A 
ATOM     30  C   UNL     1      -0.052  -8.912  -2.458  0.00  0.00    +0.008 A 
ATOM     31  C   UNL     1      -0.998  -9.922  -2.549  0.00  0.00    +0.020 A 
ATOM     32  C   UNL     1      -1.787 -10.005  -3.680  0.00  0.00    +0.111 A 
ATOM     33  N   UNL     1      -1.649  -9.138  -4.665  0.00  0.00    -0.263 NA
ATOM     34  C   UNL     1      -0.764  -8.162  -4.609  0.00  0.00    +0.115 A 
ENDBRANCH  28  29
ENDBRANCH  27  28
BRANCH  27  35
ATOM     35  C   UNL     1       1.767  -5.087  -2.019  0.00  0.00    +0.160 C 
BRANCH  35  36
ATOM     36  C   UNL     1       1.594  -4.811  -0.547  0.00  0.00    +0.119 A 
ATOM     37  C   UNL     1       1.924  -5.646   0.454  0.00  0.00    +0.046 A 
ATOM     38  C   UNL     1       1.594  -4.989   1.661  0.00  0.00    +0.041 A 
ATOM     39  C   UNL     1       1.081  -3.791   1.326  0.00  0.00    +0.195 A 
ATOM     40  O   UNL     1       1.089  -3.686  -0.013  0.00  0.00    -0.467 OA
ENDBRANCH  35  36
ENDBRANCH  27  35
ENDBRANCH   1  27
TORSDOF 8
