REMARK  Name = ZINC48278872
REMARK  5 active torsions:
REMARK  status: ('A' for Active; 'I' for Inactive)
REMARK    1  A    between atoms: C_2  and  C_10
REMARK    2  A    between atoms: C_6  and  C_7
REMARK    3  A    between atoms: C_16  and  C_18
REMARK    4  A    between atoms: C_18  and  C_19
REMARK    5  A    between atoms: C_19  and  N_20
REMARK                            x       y       z     vdW  Elec       q    Type
REMARK                         _______ _______ _______ _____ _____    ______ ____
ROOT
ATOM      1  C   UNL     1       1.789   3.207   0.002  0.00  0.00    +0.082 A 
ATOM      2  C   UNL     1       3.118   3.524  -0.014  0.00  0.00    +0.077 A 
ATOM      3  S   UNL     1       3.035   5.307  -0.002  0.00  0.00    -0.060 S 
ATOM      4  C   UNL     1       1.360   5.467   0.022  0.00  0.00    +0.165 A 
ATOM      5  N   UNL     1       0.935   4.223   0.014  0.00  0.00    -0.225 NA
ATOM      6  N   UNL     1       0.607   6.634   0.040  0.00  0.00    -0.265 N 
ATOM      7  C   UNL     1       1.222   7.833   0.039  0.00  0.00    +0.220 C 
ATOM      8  O   UNL     1       2.433   7.894   0.022  0.00  0.00    -0.275 OA
ATOM      9  H   UNL     1      -0.362   6.586   0.053  0.00  0.00    +0.157 HD
ENDROOT
BRANCH   1  11
ATOM     10  C   UNL     1      -0.017   1.363   0.009  0.00  0.00    +0.042 A 
ATOM     11  C   UNL     1       1.322   1.797  -0.001  0.00  0.00    +0.019 A 
ATOM     12  C   UNL     1       2.114   0.685  -0.015  0.00  0.00    +0.093 A 
ATOM     13  N   UNL     1       1.317  -0.411  -0.013  0.00  0.00    -0.356 N 
ATOM     14  H   UNL     1       1.623  -1.332  -0.020  0.00  0.00    +0.165 HD
ATOM     15  C   UNL     1       0.002  -0.004   0.002  0.00  0.00    +0.102 A 
BRANCH  15  16
ATOM     16  C   UNL     1      -1.173  -0.883   0.009  0.00  0.00    +0.258 C 
ATOM     17  O   UNL     1      -2.291  -0.403   0.023  0.00  0.00    -0.269 OA
ATOM     18  N   UNL     1      -1.014  -2.221   0.001  0.00  0.00    -0.324 N 
ATOM     19  H   UNL     1      -0.122  -2.603  -0.011  0.00  0.00    +0.145 HD
ATOM     20  H   UNL     1      -1.790  -2.802   0.005  0.00  0.00    +0.145 HD
ENDBRANCH  15  16
ENDBRANCH   1  11
BRANCH   7  21
ATOM     21  C   UNL     1       0.405   9.099   0.058  0.00  0.00    +0.115 C 
BRANCH  21  22
ATOM     22  C   UNL     1       1.340  10.310   0.053  0.00  0.00    +0.118 C 
BRANCH  22  23
ATOM     23  N   UNL     1       0.545  11.541   0.071  0.00  0.00    -0.291 N 
ATOM     24  C   UNL     1       0.129  12.156  -1.176  0.00  0.00    +0.119 C 
ATOM     25  C   UNL     1      -1.077  13.107  -0.962  0.00  0.00    +0.098 C 
ATOM     26  S   UNL     1      -0.809  13.511   0.816  0.00  0.00    -0.066 S 
ATOM     27  C   UNL     1       0.196  12.099   1.247  0.00  0.00    +0.275 C 
ATOM     28  O   UNL     1       0.501  11.724   2.362  0.00  0.00    -0.263 OA
ENDBRANCH  22  23
ENDBRANCH  21  22
ENDBRANCH   7  21
TORSDOF 5
