REMARK  Name = ZINC35877118
REMARK  8 active torsions:
REMARK  status: ('A' for Active; 'I' for Inactive)
REMARK    1  A    between atoms: C_1  and  C_2
REMARK    2  A    between atoms: C_2  and  C_3
REMARK    3  A    between atoms: C_3  and  C_5
REMARK    4  A    between atoms: C_3  and  N_6
REMARK    5  A    between atoms: C_20  and  C_25
REMARK    6  A    between atoms: C_27  and  C_29
REMARK    7  A    between atoms: C_29  and  C_30
REMARK    8  A    between atoms: C_29  and  C_31
REMARK                            x       y       z     vdW  Elec       q    Type
REMARK                         _______ _______ _______ _____ _____    ______ ____
ROOT
ATOM      1  N   UNL     1      -0.055  -0.114  -2.441  0.00  0.00    -0.239 N 
ATOM      2  C   UNL     1      -1.315  -0.515  -2.643  0.00  0.00    +0.227 C 
ATOM      3  O   UNL     1      -1.954  -1.223  -1.894  0.00  0.00    -0.275 OA
ATOM      4  C   UNL     1      -1.819   0.052  -3.951  0.00  0.00    +0.107 C 
ATOM      5  C   UNL     1      -0.608   0.872  -4.476  0.00  0.00    +0.122 C 
ATOM      6  C   UNL     1       0.440   0.671  -3.405  0.00  0.00    +0.228 C 
ATOM      7  O   UNL     1       1.556   1.145  -3.419  0.00  0.00    -0.275 OA
ATOM      8  C   UNL     1      -0.194   0.166  -5.772  0.00  0.00    +0.136 C 
ATOM      9  C   UNL     1       0.973  -0.754  -5.552  0.00  0.00    +0.004 A 
ATOM     10  C   UNL     1       1.180  -1.845  -4.737  0.00  0.00    +0.008 A 
ATOM     11  C   UNL     1       2.396  -2.503  -4.758  0.00  0.00    +0.001 A 
ATOM     12  C   UNL     1       3.403  -2.063  -5.597  0.00  0.00    +0.005 A 
ATOM     13  C   UNL     1       3.201  -0.971  -6.415  0.00  0.00    -0.029 A 
ATOM     14  C   UNL     1       1.979  -0.302  -6.401  0.00  0.00    +0.042 A 
ATOM     15  N   UNL     1       1.539   0.811  -7.121  0.00  0.00    -0.283 N 
ATOM     16  C   UNL     1       0.273   1.150  -6.810  0.00  0.00    +0.243 C 
ATOM     17  O   UNL     1      -0.366   2.070  -7.276  0.00  0.00    -0.273 OA
ATOM     18  C   UNL     1       4.305  -0.499  -7.326  0.00  0.00    +0.045 C 
ATOM     19  N   UNL     1      -1.386  -0.572  -6.230  0.00  0.00    -0.295 NA
ATOM     20  C   UNL     1      -2.005  -1.099  -4.963  0.00  0.00    +0.070 C 
ATOM     21  H   UNL     1       2.082   1.284  -7.771  0.00  0.00    +0.155 HD
ATOM     22  H   UNL     1      -2.023   0.038  -6.720  0.00  0.00    +0.124 HD
ENDROOT
BRANCH  20  23
ATOM     23  C   UNL     1      -3.493  -1.385  -5.176  0.00  0.00    +0.001 C 
ATOM     24  C   UNL     1      -3.654  -2.527  -6.181  0.00  0.00    +0.009 C 
ATOM     25  C   UNL     1      -4.132  -1.784  -3.845  0.00  0.00    +0.009 C 
ENDBRANCH  20  23
BRANCH   1  26
ATOM     26  C   UNL     1       0.718  -0.497  -1.257  0.00  0.00    +0.081 C 
ATOM     27  C   UNL     1       0.849  -2.021  -1.205  0.00  0.00    +0.028 C 
BRANCH  26  29
ATOM     28  C   UNL     1      -0.019   1.526   0.010  0.00  0.00    +0.006 C 
ATOM     29  C   UNL     1       0.002  -0.004   0.002  0.00  0.00    +0.019 C 
ENDBRANCH  26  29
ENDBRANCH   1  26
TORSDOF 3
