REMARK  Name = ZINC54137375
REMARK  11 active torsions:
REMARK  status: ('A' for Active; 'I' for Inactive)
REMARK    1  A    between atoms: C_1  and  C_2
REMARK    2  A    between atoms: C_3  and  C_25
REMARK    3  A    between atoms: C_5  and  C_7
REMARK    4  A    between atoms: C_10  and  N_13
REMARK    5  A    between atoms: C_14  and  C_16
REMARK    6  A    between atoms: C_16  and  N_17
REMARK    7  A    between atoms: C_18  and  C_20
REMARK    8  A    between atoms: C_20  and  C_21
REMARK    9  A    between atoms: C_21  and  C_22
REMARK   10  A    between atoms: C_21  and  C_23
REMARK   11  A    between atoms: C_21  and  C_24
REMARK                            x       y       z     vdW  Elec       q    Type
REMARK                         _______ _______ _______ _____ _____    ______ ____
ROOT
ATOM      1  N   UNL     1       0.110  -6.587   4.041  0.00  0.00    -0.284 N 
ATOM      2  C   UNL     1       0.210  -6.435   5.377  0.00  0.00    +0.234 C 
ATOM      3  O   UNL     1       0.192  -5.325   5.864  0.00  0.00    -0.274 OA
ATOM      4  H   UNL     1       0.057  -7.476   3.657  0.00  0.00    +0.155 HD
ENDROOT
BRANCH   1   8
ATOM      5  C   UNL     1       0.028  -3.237   1.563  0.00  0.00    +0.037 A 
ATOM      6  C   UNL     1       0.661  -4.406   1.138  0.00  0.00    +0.015 A 
ATOM      7  C   UNL     1       0.686  -5.512   1.959  0.00  0.00    +0.024 A 
ATOM      8  C   UNL     1       0.082  -5.464   3.211  0.00  0.00    +0.033 A 
ATOM      9  C   UNL     1      -0.550  -4.301   3.637  0.00  0.00    +0.024 A 
ATOM     10  C   UNL     1      -0.573  -3.190   2.823  0.00  0.00    +0.015 A 
BRANCH   5  15
ATOM     11  C   UNL     1      -0.866   1.361  -0.152  0.00  0.00    +0.069 C 
ATOM     12  C   UNL     1      -0.383  -0.064  -0.066  0.00  0.00    +0.080 A 
ATOM     13  C   UNL     1       0.301  -0.727  -1.015  0.00  0.00    +0.125 A 
ATOM     14  O   UNL     1       0.538  -1.968  -0.544  0.00  0.00    -0.440 OA
ATOM     15  C   UNL     1      -0.001  -2.049   0.684  0.00  0.00    +0.228 A 
ATOM     16  N   UNL     1      -0.553  -0.894   0.975  0.00  0.00    -0.214 NA
ATOM     17  C   UNL     1       0.723  -0.185  -2.356  0.00  0.00    +0.088 C 
ENDBRANCH   5  15
ENDBRANCH   1   8
BRANCH   2  18
ATOM     18  C   UNL     1       0.344  -7.645   6.265  0.00  0.00    +0.200 C 
BRANCH  18  19
ATOM     19  N   UNL     1       0.434  -7.217   7.663  0.00  0.00    -0.307 N 
ATOM     20  C   UNL     1       0.561  -8.135   8.642  0.00  0.00    +0.214 C 
ATOM     21  O   UNL     1       0.599  -9.315   8.365  0.00  0.00    -0.276 OA
ATOM     22  H   UNL     1       0.404  -6.273   7.884  0.00  0.00    +0.149 HD
BRANCH  20  23
ATOM     23  C   UNL     1       0.654  -7.695  10.080  0.00  0.00    +0.102 C 
BRANCH  23  24
ATOM     24  C   UNL     1       0.790  -8.924  10.982  0.00  0.00    -0.029 C 
ATOM     25  C   UNL     1       2.054  -9.697  10.602  0.00  0.00    +0.011 C 
ATOM     26  C   UNL     1       0.885  -8.476  12.442  0.00  0.00    +0.011 C 
ATOM     27  C   UNL     1      -0.433  -9.825  10.803  0.00  0.00    +0.011 C 
ENDBRANCH  23  24
ENDBRANCH  20  23
ENDBRANCH  18  19
ENDBRANCH   2  18
TORSDOF 6
