REMARK  Name = ZINC67575239
REMARK  5 active torsions:
REMARK  status: ('A' for Active; 'I' for Inactive)
REMARK    1  A    between atoms: N_7  and  C_11
REMARK    2  A    between atoms: C_11  and  C_12
REMARK    3  A    between atoms: C_12  and  N_13
REMARK    4  A    between atoms: N_16  and  C_17
REMARK    5  A    between atoms: C_21  and  N_23
REMARK                            x       y       z     vdW  Elec       q    Type
REMARK                         _______ _______ _______ _____ _____    ______ ____
ROOT
ATOM      1  N   UNL     1      -0.636  -4.682  -1.458  0.00  0.00    -0.297 N 
ATOM      2  C   UNL     1      -1.082  -5.191  -2.623  0.00  0.00    +0.304 C 
ATOM      3  O   UNL     1      -0.713  -4.711  -3.677  0.00  0.00    -0.253 OA
ATOM      4  N   UNL     1      -1.937  -6.233  -2.620  0.00  0.00    -0.269 N 
ATOM      5  H   UNL     1      -0.931  -5.065  -0.617  0.00  0.00    +0.150 HD
ATOM      6  H   UNL     1      -2.179  -6.660  -1.783  0.00  0.00    +0.156 HD
ENDROOT
BRANCH   4   7
ATOM      7  C   UNL     1      -2.475  -6.700  -3.825  0.00  0.00    +0.037 A 
ATOM      8  C   UNL     1      -1.707  -6.685  -4.982  0.00  0.00    +0.023 A 
ATOM      9  C   UNL     1      -2.237  -7.146  -6.171  0.00  0.00    +0.004 A 
ATOM     10  C   UNL     1      -3.534  -7.623  -6.213  0.00  0.00    +0.026 A 
ATOM     11  C   UNL     1      -4.306  -7.641  -5.060  0.00  0.00    +0.048 A 
ATOM     12  C   UNL     1      -3.775  -7.184  -3.863  0.00  0.00    +0.049 A 
BRANCH  11  13
ATOM     13  N   UNL     1      -5.622  -8.125  -5.104  0.00  0.00    -0.323 N 
ATOM     14  C   UNL     1      -6.482  -8.190  -4.046  0.00  0.00    +0.091 A 
ATOM     15  C   UNL     1      -7.647  -8.710  -4.482  0.00  0.00    +0.019 A 
ATOM     16  C   UNL     1      -7.503  -8.977  -5.858  0.00  0.00    +0.019 A 
ATOM     17  C   UNL     1      -6.257  -8.605  -6.214  0.00  0.00    +0.091 A 
ENDBRANCH  11  13
ENDBRANCH   4   7
BRANCH   1  18
ATOM     18  C   UNL     1       0.293  -3.549  -1.461  0.00  0.00    +0.127 C 
BRANCH  18  19
ATOM     19  C   UNL     1       0.639  -3.169  -0.020  0.00  0.00    +0.147 C 
BRANCH  19  26
ATOM     20  C   UNL     1      -0.011   1.367   0.034  0.00  0.00    +0.002 A 
ATOM     21  C   UNL     1       1.175   2.080   0.023  0.00  0.00    +0.004 A 
ATOM     22  C   UNL     1       2.387   1.418  -0.001  0.00  0.00    +0.048 A 
ATOM     23  C   UNL     1       2.417   0.033  -0.016  0.00  0.00    +0.157 A 
ATOM     24  C   UNL     1       1.222  -0.685  -0.005  0.00  0.00    +0.090 A 
ATOM     25  C   UNL     1       0.009  -0.014   0.020  0.00  0.00    +0.030 A 
ATOM     26  N   UNL     1       1.568  -2.036  -0.024  0.00  0.00    -0.273 N 
ATOM     27  C   UNL     1       2.914  -2.109  -0.044  0.00  0.00    +0.421 A 
ATOM     28  O   UNL     1       3.561  -3.139  -0.064  0.00  0.00    -0.223 OA
ATOM     29  O   UNL     1       3.429  -0.870  -0.040  0.00  0.00    -0.407 OA
ENDBRANCH  19  26
ENDBRANCH  18  19
ENDBRANCH   1  18
TORSDOF 5
