REMARK  Name = ZINC58071277
REMARK  8 active torsions:
REMARK  status: ('A' for Active; 'I' for Inactive)
REMARK    1  A    between atoms: C_1  and  C_2
REMARK    2  A    between atoms: C_6  and  N_9
REMARK    3  A    between atoms: C_7  and  C_8
REMARK    4  A    between atoms: N_9  and  C_10
REMARK    5  A    between atoms: C_10  and  N_12
REMARK    6  A    between atoms: N_12  and  N_13
REMARK    7  A    between atoms: C_14  and  C_16
REMARK    8  A    between atoms: C_16  and  N_17
REMARK                            x       y       z     vdW  Elec       q    Type
REMARK                         _______ _______ _______ _____ _____    ______ ____
ROOT
ATOM      1  N   UNL     1      -3.180  -3.451   1.244  0.00  0.00    -0.234 N 
ATOM      2  C   UNL     1      -4.444  -3.917   1.253  0.00  0.00    +0.247 C 
ATOM      3  O   UNL     1      -4.680  -5.023   1.694  0.00  0.00    -0.273 OA
ATOM      4  H   UNL     1      -2.992  -2.567   0.892  0.00  0.00    +0.173 HD
ENDROOT
BRANCH   1   5
ATOM      5  N   UNL     1      -2.137  -4.243   1.742  0.00  0.00    -0.246 N 
ATOM      6  H   UNL     1      -2.326  -5.127   2.094  0.00  0.00    +0.172 HD
BRANCH   5   7
ATOM      7  C   UNL     1      -0.873  -3.776   1.733  0.00  0.00    +0.147 C 
ATOM      8  S   UNL     1       0.401  -4.744   2.342  0.00  0.00    -0.017 S 
BRANCH   7   9
ATOM      9  N   UNL     1      -0.612  -2.548   1.244  0.00  0.00    -0.322 N 
ATOM     10  H   UNL     1      -1.333  -2.000   0.898  0.00  0.00    +0.148 HD
BRANCH   9  16
ATOM     11  C   UNL     1      -0.019   1.526   0.010  0.00  0.00    +0.008 C 
ATOM     12  C   UNL     1       0.002  -0.004   0.002  0.00  0.00    -0.009 C 
ATOM     13  C   UNL     1       0.718  -0.497  -1.257  0.00  0.00    +0.003 C 
ATOM     14  C   UNL     1       0.739  -2.027  -1.265  0.00  0.00    +0.002 C 
ATOM     15  C   UNL     1       1.479  -2.534  -0.026  0.00  0.00    +0.022 C 
ATOM     16  C   UNL     1       0.763  -2.041   1.233  0.00  0.00    +0.075 C 
ATOM     17  C   UNL     1       0.742  -0.511   1.242  0.00  0.00    +0.009 C 
ATOM     18  C   UNL     1       0.026  -0.018   2.500  0.00  0.00    +0.009 C 
ENDBRANCH   9  16
ENDBRANCH   7   9
ENDBRANCH   5   7
ENDBRANCH   1   5
BRANCH   2  19
ATOM     19  C   UNL     1      -5.566  -3.065   0.717  0.00  0.00    +0.215 C 
BRANCH  19  20
ATOM     20  N   UNL     1      -6.832  -3.792   0.838  0.00  0.00    -0.215 N 
ATOM     21  C   UNL     1      -7.332  -4.610  -0.113  0.00  0.00    +0.247 C 
ATOM     22  O   UNL     1      -6.840  -4.875  -1.189  0.00  0.00    -0.273 OA
ATOM     23  C   UNL     1      -8.633  -5.125   0.449  0.00  0.00    +0.113 C 
ATOM     24  C   UNL     1      -8.614  -6.655   0.570  0.00  0.00    +0.035 C 
ATOM     25  C   UNL     1     -10.074  -7.073   0.255  0.00  0.00    +0.003 C 
ATOM     26  C   UNL     1     -10.485  -6.078  -0.860  0.00  0.00    +0.003 C 
ATOM     27  C   UNL     1      -9.814  -4.749  -0.449  0.00  0.00    +0.035 C 
ATOM     28  N   UNL     1      -8.739  -4.492   1.765  0.00  0.00    -0.285 N 
ATOM     29  C   UNL     1      -7.635  -3.732   1.909  0.00  0.00    +0.310 C 
ATOM     30  O   UNL     1      -7.397  -3.065   2.896  0.00  0.00    -0.252 OA
ATOM     31  H   UNL     1      -9.459  -4.601   2.407  0.00  0.00    +0.151 HD
ENDBRANCH  19  20
ENDBRANCH   2  19
TORSDOF 6
