REMARK  Name = ZINC22008549
REMARK  9 active torsions:
REMARK  status: ('A' for Active; 'I' for Inactive)
REMARK    1  A    between atoms: C_1  and  C_2
REMARK    2  A    between atoms: C_5  and  C_8
REMARK    3  A    between atoms: N_15  and  C_18
REMARK    4  A    between atoms: C_18  and  C_19
REMARK    5  A    between atoms: C_19  and  C_20
REMARK    6  A    between atoms: N_22  and  C_23
REMARK    7  A    between atoms: C_24  and  C_30
REMARK    8  A    between atoms: N_26  and  C_29
REMARK    9  A    between atoms: C_27  and  C_28
REMARK                            x       y       z     vdW  Elec       q    Type
REMARK                         _______ _______ _______ _____ _____    ______ ____
ROOT
ATOM      1  C   UNL     1      -1.060   4.268  -1.934  0.00  0.00    +0.004 A 
ATOM      2  C   UNL     1      -2.184   3.915  -2.603  0.00  0.00    +0.056 A 
ATOM      3  S   UNL     1      -3.389   3.712  -1.305  0.00  0.00    -0.076 S 
ATOM      4  C   UNL     1      -2.368   4.110   0.090  0.00  0.00    +0.116 A 
ATOM      5  C   UNL     1      -1.116   4.387  -0.482  0.00  0.00    +0.080 A 
ATOM      6  C   UNL     1      -0.080   4.746   0.438  0.00  0.00    +0.263 A 
ATOM      7  O   UNL     1       1.042   5.004   0.037  0.00  0.00    -0.267 OA
ATOM      8  N   UNL     1      -0.363   4.793   1.753  0.00  0.00    -0.298 N 
ATOM      9  C   UNL     1      -1.606   4.508   2.218  0.00  0.00    +0.203 A 
ATOM     10  N   UNL     1      -2.572   4.178   1.403  0.00  0.00    -0.230 NA
ENDROOT
BRANCH   1  15
ATOM     11  C   UNL     1       3.832   5.308  -4.787  0.00  0.00    +0.044 C 
ATOM     12  C   UNL     1       2.553   5.035  -4.040  0.00  0.00    -0.050 A 
ATOM     13  C   UNL     1       1.849   3.869  -4.281  0.00  0.00    +0.004 A 
ATOM     14  C   UNL     1       0.677   3.613  -3.599  0.00  0.00    +0.009 A 
ATOM     15  C   UNL     1       0.202   4.533  -2.665  0.00  0.00    -0.017 A 
ATOM     16  C   UNL     1       0.916   5.707  -2.426  0.00  0.00    +0.009 A 
ATOM     17  C   UNL     1       2.087   5.952  -3.115  0.00  0.00    +0.004 A 
ENDBRANCH   1  15
BRANCH   8  18
ATOM     18  C   UNL     1       0.692   5.160   2.702  0.00  0.00    +0.135 C 
BRANCH  18  19
ATOM     19  C   UNL     1       0.692   6.677   2.903  0.00  0.00    +0.118 C 
BRANCH  19  20
ATOM     20  C   UNL     1       1.776   7.054   3.879  0.00  0.00    +0.219 C 
ATOM     21  O   UNL     1       2.480   6.194   4.366  0.00  0.00    -0.275 OA
ATOM     22  N   UNL     1       1.964   8.347   4.211  0.00  0.00    -0.283 N 
ATOM     23  H   UNL     1       1.382   9.133   3.709  0.00  0.00    +0.155 HD
BRANCH  22  24
ATOM     24  C   UNL     1       2.906   8.689   5.200  0.00  0.00    +0.077 A 
ATOM     25  C   UNL     1       2.906   8.245   6.530  0.00  0.00    +0.081 A 
ATOM     26  N   UNL     1       3.936   8.773   7.140  0.00  0.00    -0.175 NA
ATOM     27  N   UNL     1       4.625   9.580   6.226  0.00  0.00    -0.270 N 
ATOM     28  C   UNL     1       3.972   9.514   5.037  0.00  0.00    +0.057 A 
ATOM     29  C   UNL     1       4.362  10.225   3.766  0.00  0.00    +0.067 C 
ATOM     30  C   UNL     1       5.835  10.358   6.503  0.00  0.00    +0.172 C 
ATOM     31  C   UNL     1       1.895   7.316   7.149  0.00  0.00    +0.069 C 
ENDBRANCH  22  24
ENDBRANCH  19  20
ENDBRANCH  18  19
ENDBRANCH   8  18
TORSDOF 5
