REMARK  Name = ZINC08606621
REMARK  12 active torsions:
REMARK  status: ('A' for Active; 'I' for Inactive)
REMARK    1  A    between atoms: C_1  and  C_2
REMARK    2  A    between atoms: C_5  and  O_38
REMARK    3  A    between atoms: C_6  and  C_8
REMARK    4  A    between atoms: N_16  and  C_31
REMARK    5  A    between atoms: C_17  and  C_19
REMARK    6  A    between atoms: C_21  and  O_29
REMARK    7  A    between atoms: C_22  and  O_27
REMARK    8  A    between atoms: C_23  and  O_25
REMARK    9  A    between atoms: O_25  and  C_26
REMARK   10  A    between atoms: O_27  and  C_28
REMARK   11  A    between atoms: O_29  and  C_30
REMARK   12  A    between atoms: C_31  and  C_32
REMARK                            x       y       z     vdW  Elec       q    Type
REMARK                         _______ _______ _______ _____ _____    ______ ____
ROOT
ATOM      1  C   UNL     1       1.384  -3.373   0.747  0.00  0.00    +0.102 A 
ATOM      2  C   UNL     1       1.037  -4.485   1.520  0.00  0.00    +0.035 A 
ATOM      3  C   UNL     1       0.728  -3.991   2.773  0.00  0.00    +0.126 A 
ATOM      4  N   UNL     1       0.899  -2.637   2.700  0.00  0.00    -0.272 N 
ATOM      5  H   UNL     1       0.755  -2.017   3.432  0.00  0.00    +0.189 HD
ATOM      6  N   UNL     1       1.283  -2.308   1.518  0.00  0.00    -0.173 NA
ATOM      7  C   UNL     1       0.352  -5.114   3.639  0.00  0.00    +0.266 C 
ATOM      8  O   UNL     1       0.025  -5.013   4.805  0.00  0.00    -0.268 OA
ATOM      9  N   UNL     1       0.422  -6.273   2.958  0.00  0.00    -0.281 N 
ATOM     10  C   UNL     1       0.853  -5.976   1.586  0.00  0.00    +0.142 C 
ENDROOT
BRANCH   1  16
ATOM     11  C   UNL     1       2.100  -0.968  -3.570  0.00  0.00    +0.044 C 
ATOM     12  C   UNL     1       2.143  -2.236  -2.757  0.00  0.00    -0.050 A 
ATOM     13  C   UNL     1       2.566  -3.416  -3.342  0.00  0.00    +0.007 A 
ATOM     14  C   UNL     1       2.609  -4.584  -2.604  0.00  0.00    +0.046 A 
ATOM     15  C   UNL     1       2.225  -4.579  -1.273  0.00  0.00    +0.126 A 
ATOM     16  C   UNL     1       1.797  -3.388  -0.679  0.00  0.00    +0.044 A 
ATOM     17  C   UNL     1       1.764  -2.215  -1.429  0.00  0.00    +0.017 A 
BRANCH  15  18
ATOM     18  O   UNL     1       2.266  -5.726  -0.547  0.00  0.00    -0.506 OA
ATOM     19  H   UNL     1       3.124  -5.903  -0.138  0.00  0.00    +0.292 HD
ENDBRANCH  15  18
ENDBRANCH   1  16
BRANCH  10  20
ATOM     20  C   UNL     1      -0.204  -6.413   0.605  0.00  0.00    -0.015 A 
ATOM     21  C   UNL     1      -1.490  -5.918   0.713  0.00  0.00    +0.055 A 
ATOM     22  C   UNL     1      -2.466  -6.317  -0.188  0.00  0.00    +0.165 A 
ATOM     23  C   UNL     1      -2.150  -7.216  -1.200  0.00  0.00    +0.204 A 
ATOM     24  C   UNL     1      -0.855  -7.710  -1.305  0.00  0.00    +0.165 A 
ATOM     25  C   UNL     1       0.116  -7.302  -0.404  0.00  0.00    +0.055 A 
BRANCH  24  26
ATOM     26  O   UNL     1      -0.540  -8.589  -2.294  0.00  0.00    -0.491 OA
ATOM     27  C   UNL     1       0.810  -9.056  -2.341  0.00  0.00    +0.277 C 
ENDBRANCH  24  26
BRANCH  23  28
ATOM     28  O   UNL     1      -3.105  -7.610  -2.086  0.00  0.00    -0.488 OA
ATOM     29  C   UNL     1      -3.252  -6.828  -3.273  0.00  0.00    +0.277 C 
ENDBRANCH  23  28
BRANCH  22  30
ATOM     30  O   UNL     1      -3.732  -5.831  -0.081  0.00  0.00    -0.491 OA
ATOM     31  C   UNL     1      -3.958  -4.824   0.908  0.00  0.00    +0.277 C 
ENDBRANCH  22  30
ENDBRANCH  10  20
BRANCH   9  32
ATOM     32  C   UNL     1       0.119  -7.602   3.494  0.00  0.00    +0.145 C 
BRANCH  32  33
ATOM     33  C   UNL     1      -1.367  -7.845   3.425  0.00  0.00    -0.012 A 
ATOM     34  C   UNL     1      -2.170  -7.603   4.529  0.00  0.00    +0.008 A 
ATOM     35  C   UNL     1      -3.531  -7.841   4.419  0.00  0.00    +0.020 A 
ATOM     36  C   UNL     1      -4.039  -8.309   3.221  0.00  0.00    +0.111 A 
ATOM     37  N   UNL     1      -3.245  -8.528   2.192  0.00  0.00    -0.263 NA
ATOM     38  C   UNL     1      -1.946  -8.307   2.259  0.00  0.00    +0.115 A 
ENDBRANCH  32  33
ENDBRANCH   9  32
TORSDOF 8
