REMARK  Name = ZINC32876384
REMARK  5 active torsions:
REMARK  status: ('A' for Active; 'I' for Inactive)
REMARK    1  A    between atoms: C_8  and  C_13
REMARK    2  A    between atoms: C_13  and  C_14
REMARK    3  A    between atoms: C_14  and  C_15
REMARK    4  A    between atoms: N_20  and  C_23
REMARK    5  A    between atoms: C_23  and  C_24
REMARK                            x       y       z     vdW  Elec       q    Type
REMARK                         _______ _______ _______ _____ _____    ______ ____
ROOT
ATOM      1  C   UNL     1       5.952   6.399  -1.233  0.00  0.00    +0.216 C 
ATOM      2  O   UNL     1       6.790   6.055  -0.427  0.00  0.00    -0.276 OA
ATOM      3  N   UNL     1       6.142   7.513  -1.968  0.00  0.00    -0.299 N 
ATOM      4  C   UNL     1       5.141   7.945  -2.956  0.00  0.00    +0.123 C 
ATOM      5  C   UNL     1       4.811   9.423  -2.693  0.00  0.00    +0.103 C 
ATOM      6  N   UNL     1       6.056  10.204  -2.688  0.00  0.00    -0.295 NA
ATOM      7  C   UNL     1       6.943   9.785  -1.595  0.00  0.00    +0.103 C 
ATOM      8  C   UNL     1       7.358   8.325  -1.808  0.00  0.00    +0.123 C 
ENDROOT
BRANCH   1   9
ATOM      9  C   UNL     1       4.699   5.582  -1.413  0.00  0.00    +0.097 C 
BRANCH   9  10
ATOM     10  C   UNL     1       4.733   4.381  -0.466  0.00  0.00    +0.022 C 
BRANCH  10  18
ATOM     11  C   UNL     1       0.319   0.968  -3.134  0.00  0.00    +0.000 A 
ATOM     12  C   UNL     1       0.032   0.216  -2.009  0.00  0.00    +0.002 A 
ATOM     13  C   UNL     1       0.779   0.378  -0.860  0.00  0.00    +0.023 A 
ATOM     14  C   UNL     1       1.819   1.298  -0.832  0.00  0.00    +0.037 A 
ATOM     15  C   UNL     1       2.114   2.041  -1.966  0.00  0.00    -0.025 A 
ATOM     16  C   UNL     1       1.360   1.878  -3.113  0.00  0.00    +0.005 A 
ATOM     17  C   UNL     1       3.261   3.018  -1.953  0.00  0.00    +0.049 C 
ATOM     18  C   UNL     1       3.407   3.623  -0.556  0.00  0.00    +0.080 C 
ATOM     19  C   UNL     1       3.387   2.527   0.477  0.00  0.00    +0.221 C 
ATOM     20  O   UNL     1       4.110   2.603   1.448  0.00  0.00    -0.275 OA
ATOM     21  N   UNL     1       2.574   1.466   0.332  0.00  0.00    -0.285 N 
ATOM     22  H   UNL     1       2.508   0.725   1.143  0.00  0.00    +0.155 HD
ENDBRANCH  10  18
ENDBRANCH   9  10
ENDBRANCH   1   9
BRANCH   6  23
ATOM     23  C   UNL     1       5.774  11.644  -2.615  0.00  0.00    +0.119 C 
BRANCH  23  24
ATOM     24  C   UNL     1       5.072  12.083  -3.873  0.00  0.00    -0.030 A 
ATOM     25  C   UNL     1       3.691  12.050  -3.941  0.00  0.00    +0.009 A 
ATOM     26  C   UNL     1       3.042  12.452  -5.093  0.00  0.00    +0.050 A 
ATOM     27  C   UNL     1       3.775  12.889  -6.185  0.00  0.00    +0.166 A 
ATOM     28  C   UNL     1       5.166  12.921  -6.117  0.00  0.00    +0.167 A 
ATOM     29  C   UNL     1       5.809  12.522  -4.957  0.00  0.00    +0.054 A 
ATOM     30  O   UNL     1       5.649  13.384  -7.307  0.00  0.00    -0.453 OA
ATOM     31  C   UNL     1       4.532  14.019  -7.955  0.00  0.00    +0.466 C 
ATOM     32  O   UNL     1       3.388  13.331  -7.417  0.00  0.00    -0.453 OA
ENDBRANCH  23  24
ENDBRANCH   6  23
TORSDOF 5
