REMARK  Name = ZINC14003140
REMARK  5 active torsions:
REMARK  status: ('A' for Active; 'I' for Inactive)
REMARK    1  A    between atoms: C_6  and  C_7
REMARK    2  A    between atoms: C_7  and  C_8
REMARK    3  A    between atoms: N_10  and  N_11
REMARK    4  A    between atoms: C_12  and  C_14
REMARK    5  A    between atoms: C_18  and  N_20
REMARK                            x       y       z     vdW  Elec       q    Type
REMARK                         _______ _______ _______ _____ _____    ______ ____
ROOT
ATOM      1  N   UNL     1      -0.966   1.736  -3.578  0.00  0.00    -0.230 N 
ATOM      2  C   UNL     1      -0.513   1.424  -4.808  0.00  0.00    +0.260 C 
ATOM      3  O   UNL     1       0.484   0.739  -4.933  0.00  0.00    -0.269 OA
ATOM      4  H   UNL     1      -1.761   2.283  -3.479  0.00  0.00    +0.173 HD
ENDROOT
BRANCH   2   5
ATOM      5  C   UNL     1      -1.228   1.913  -6.005  0.00  0.00    +0.040 A 
ATOM      6  C   UNL     1      -2.376   2.695  -5.865  0.00  0.00    +0.014 A 
ATOM      7  C   UNL     1      -3.036   3.153  -6.986  0.00  0.00    +0.023 A 
ATOM      8  C   UNL     1      -2.568   2.830  -8.249  0.00  0.00    +0.071 A 
ATOM      9  C   UNL     1      -1.432   2.050  -8.395  0.00  0.00    +0.145 A 
ATOM     10  C   UNL     1      -0.761   1.591  -7.281  0.00  0.00    +0.047 A 
ATOM     11 CL   UNL     1      -3.407   3.405  -9.656  0.00  0.00    -0.081 Cl
BRANCH   9  12
ATOM     12  N   UNL     1      -0.938   1.710  -9.748  0.00  0.00    +0.058 N 
ATOM     13  O   UNL     1       0.060   1.025  -9.877  0.00  0.00    -0.126 OA
ATOM     14  O   UNL     1      -1.530   2.115 -10.732  0.00  0.00    -0.126 OA
ENDBRANCH   9  12
ENDBRANCH   2   5
BRANCH   1  17
ATOM     15  C   UNL     1      -0.742   1.585  -1.213  0.00  0.00    +0.233 C 
ATOM     16  O   UNL     1      -1.736   2.268  -1.088  0.00  0.00    -0.274 OA
ATOM     17  N   UNL     1      -0.288   1.272  -2.443  0.00  0.00    -0.234 N 
ATOM     18  H   UNL     1       0.507   0.726  -2.543  0.00  0.00    +0.173 HD
BRANCH  15  19
ATOM     19  C   UNL     1      -0.013   1.086   0.008  0.00  0.00    +0.132 C 
BRANCH  19  25
ATOM     20  C   UNL     1      -0.360   2.779   1.818  0.00  0.00    +0.005 A 
ATOM     21  C   UNL     1      -1.010   3.228   2.952  0.00  0.00    +0.020 A 
ATOM     22  C   UNL     1      -2.012   2.464   3.523  0.00  0.00    +0.041 A 
ATOM     23  C   UNL     1      -2.367   1.253   2.955  0.00  0.00    +0.020 A 
ATOM     24  C   UNL     1      -1.719   0.808   1.817  0.00  0.00    +0.005 A 
ATOM     25  C   UNL     1      -0.718   1.572   1.248  0.00  0.00    -0.038 A 
ATOM     26 CL   UNL     1      -2.825   3.024   4.951  0.00  0.00    -0.084 Cl
ENDBRANCH  19  25
ENDBRANCH  15  19
ENDBRANCH   1  17
TORSDOF 5
