REMARK  Name = ZINC12333878
REMARK  9 active torsions:
REMARK  status: ('A' for Active; 'I' for Inactive)
REMARK    1  A    between atoms: C_1  and  C_2
REMARK    2  A    between atoms: C_10  and  C_11
REMARK    3  A    between atoms: N_13  and  C_14
REMARK    4  A    between atoms: N_13  and  C_17
REMARK    5  A    between atoms: C_14  and  C_15
REMARK    6  A    between atoms: C_15  and  O_16
REMARK    7  A    between atoms: C_17  and  C_18
REMARK    8  A    between atoms: C_17  and  C_19
REMARK    9  A    between atoms: N_20  and  C_21
REMARK                            x       y       z     vdW  Elec       q    Type
REMARK                         _______ _______ _______ _____ _____    ______ ____
ROOT
ATOM      1  C   UNL     1       5.153   1.264  -0.875  0.00  0.00    +0.046 C 
ATOM      2  C   UNL     1       4.137   1.276   0.238  0.00  0.00    -0.019 A 
ATOM      3  C   UNL     1       4.394   1.992   1.415  0.00  0.00    +0.051 A 
ATOM      4  C   UNL     1       5.537   2.771   1.767  0.00  0.00    +0.131 A 
ATOM      5  N   UNL     1       5.573   3.364   2.949  0.00  0.00    -0.220 NA
ATOM      6  C   UNL     1       4.586   3.263   3.820  0.00  0.00    +0.224 A 
ATOM      7  N   UNL     1       3.503   2.558   3.555  0.00  0.00    -0.228 NA
ATOM      8  C   UNL     1       3.380   1.932   2.402  0.00  0.00    +0.114 A 
ATOM      9  S   UNL     1       2.140   0.908   1.652  0.00  0.00    -0.064 S 
ATOM     10  C   UNL     1       2.967   0.595   0.101  0.00  0.00    +0.080 A 
ATOM     11  N   UNL     1       6.591   2.902   0.886  0.00  0.00    -0.317 N 
ATOM     12  H   UNL     1       6.521   2.543  -0.012  0.00  0.00    +0.148 HD
ENDROOT
BRANCH  11  13
ATOM     13  C   UNL     1       7.817   3.586   1.308  0.00  0.00    +0.158 C 
ATOM     14  C   UNL     1       8.969   3.193   0.380  0.00  0.00    +0.032 C 
ATOM     15  C   UNL     1       8.472   2.993  -1.040  0.00  0.00    +0.004 C 
ATOM     16  C   UNL     1       7.982   4.267  -1.703  0.00  0.00    +0.019 C 
ATOM     17  C   UNL     1       6.714   4.784  -1.021  0.00  0.00    +0.104 C 
ATOM     18  N   UNL     1       7.103   5.630   0.119  0.00  0.00    -0.314 N 
ATOM     19  C   UNL     1       7.618   5.084   1.225  0.00  0.00    +0.233 C 
ATOM     20  O   UNL     1       7.931   5.788   2.162  0.00  0.00    -0.274 OA
ATOM     21  H   UNL     1       6.983   6.592   0.068  0.00  0.00    +0.149 HD
ENDBRANCH  11  13
BRANCH  10  22
ATOM     22  C   UNL     1       2.502  -0.206  -1.038  0.00  0.00    +0.254 C 
ATOM     23  O   UNL     1       3.242  -0.406  -1.983  0.00  0.00    -0.269 OA
ATOM     24  N   UNL     1       1.256  -0.720  -1.037  0.00  0.00    -0.292 N 
BRANCH  24  25
ATOM     25  C   UNL     1       0.832  -1.615  -2.116  0.00  0.00    +0.070 C 
ATOM     26  C   UNL     1       1.673  -2.893  -2.079  0.00  0.00    +0.028 C 
ATOM     27  C   UNL     1       1.025  -0.917  -3.464  0.00  0.00    +0.028 C 
ENDBRANCH  24  25
BRANCH  24  28
ATOM     28  C   UNL     1       0.326  -0.383   0.043  0.00  0.00    +0.136 C 
BRANCH  28  29
ATOM     29  C   UNL     1       0.362  -1.481   1.109  0.00  0.00    +0.174 C 
BRANCH  29  30
ATOM     30  O   UNL     1       1.654  -1.510   1.718  0.00  0.00    -0.393 OA
ATOM     31  H   UNL     1       1.750  -2.184   2.405  0.00  0.00    +0.209 HD
ENDBRANCH  29  30
ENDBRANCH  28  29
ENDBRANCH  24  28
ENDBRANCH  10  22
TORSDOF 6
