REMARK  Name = ZINC52773401
REMARK  8 active torsions:
REMARK  status: ('A' for Active; 'I' for Inactive)
REMARK    1  A    between atoms: C_1  and  C_2
REMARK    2  A    between atoms: C_2  and  C_3
REMARK    3  A    between atoms: C_2  and  C_4
REMARK    4  A    between atoms: C_4  and  C_5
REMARK    5  A    between atoms: C_5  and  C_7
REMARK    6  A    between atoms: C_5  and  N_13
REMARK    7  A    between atoms: C_14  and  C_16
REMARK    8  A    between atoms: C_19  and  N_22
REMARK                            x       y       z     vdW  Elec       q    Type
REMARK                         _______ _______ _______ _____ _____    ______ ____
ROOT
ATOM      1  N   UNL     1      -0.733  -2.558   1.015  0.00  0.00    -0.305 N 
ATOM      2  C   UNL     1       0.600  -2.643   1.197  0.00  0.00    +0.245 C 
ATOM      3  O   UNL     1       1.358  -2.150   0.384  0.00  0.00    -0.270 OA
ATOM      4  H   UNL     1      -1.337  -2.894   1.694  0.00  0.00    +0.150 HD
ENDROOT
BRANCH   2   5
ATOM      5  C   UNL     1       1.140  -3.333   2.384  0.00  0.00    +0.037 A 
ATOM      6  C   UNL     1       0.270  -3.905   3.317  0.00  0.00    +0.015 A 
ATOM      7  C   UNL     1       0.777  -4.548   4.423  0.00  0.00    +0.025 A 
ATOM      8  C   UNL     1       2.154  -4.630   4.613  0.00  0.00    +0.051 A 
ATOM      9  C   UNL     1       3.022  -4.061   3.686  0.00  0.00    +0.025 A 
ATOM     10  C   UNL     1       2.522  -3.421   2.575  0.00  0.00    +0.015 A 
BRANCH   8  11
ATOM     11  N   UNL     1       2.662  -5.280   5.732  0.00  0.00    -0.207 N 
ATOM     12  C   UNL     1       1.983  -5.489   7.024  0.00  0.00    +0.133 C 
ATOM     13  C   UNL     1       2.483  -6.777   7.704  0.00  0.00    +0.045 C 
ATOM     14  C   UNL     1       4.035  -6.731   7.566  0.00  0.00    +0.190 C 
ATOM     15  S   UNL     1       4.171  -5.994   5.886  0.00  0.00    +0.046 S 
ATOM     16  O   UNL     1       4.214  -7.009   4.892  0.00  0.00    -0.155 OA
ATOM     17  O   UNL     1       5.101  -4.920   5.884  0.00  0.00    -0.155 OA
ENDBRANCH   8  11
ENDBRANCH   2   5
BRANCH   1  18
ATOM     18  C   UNL     1      -1.268  -1.959  -0.211  0.00  0.00    +0.104 C 
BRANCH  18  19
ATOM     19  C   UNL     1      -2.614  -2.563  -0.519  0.00  0.00    -0.027 A 
ATOM     20  C   UNL     1      -3.509  -2.814   0.504  0.00  0.00    +0.005 A 
ATOM     21  C   UNL     1      -4.744  -3.368   0.221  0.00  0.00    +0.000 A 
ATOM     22  C   UNL     1      -5.083  -3.670  -1.084  0.00  0.00    +0.000 A 
ATOM     23  C   UNL     1      -4.188  -3.419  -2.107  0.00  0.00    +0.000 A 
ATOM     24  C   UNL     1      -2.955  -2.861  -1.825  0.00  0.00    +0.005 A 
ENDBRANCH  18  19
BRANCH  18  25
ATOM     25  C   UNL     1      -1.419  -0.449  -0.016  0.00  0.00    +0.030 C 
BRANCH  25  27
ATOM     26  C   UNL     1      -2.144   1.679  -1.106  0.00  0.00    +0.007 C 
ATOM     27  C   UNL     1      -1.859   0.193  -1.333  0.00  0.00    -0.015 C 
ATOM     28  C   UNL     1      -0.746   0.040  -2.372  0.00  0.00    +0.007 C 
ENDBRANCH  25  27
ENDBRANCH  18  25
ENDBRANCH   1  18
TORSDOF 6
