REMARK  Name = ZINC46811194
REMARK  6 active torsions:
REMARK  status: ('A' for Active; 'I' for Inactive)
REMARK    1  A    between atoms: C_1  and  C_2
REMARK    2  A    between atoms: C_2  and  C_4
REMARK    3  A    between atoms: C_2  and  O_21
REMARK    4  A    between atoms: N_6  and  N_7
REMARK    5  A    between atoms: C_8  and  C_10
REMARK    6  A    between atoms: O_21  and  C_22
REMARK                            x       y       z     vdW  Elec       q    Type
REMARK                         _______ _______ _______ _____ _____    ______ ____
ROOT
ATOM      1  N   UNL     1      -3.590  -0.809   0.818  0.00  0.00    -0.230 N 
ATOM      2  C   UNL     1      -4.418  -0.600   1.861  0.00  0.00    +0.267 C 
ATOM      3  O   UNL     1      -4.049   0.074   2.804  0.00  0.00    -0.268 OA
ATOM      4  H   UNL     1      -3.910  -1.279   0.031  0.00  0.00    +0.173 HD
ENDROOT
BRANCH   2   5
ATOM      5  C   UNL     1      -5.763  -1.185   1.858  0.00  0.00    +0.121 A 
ATOM      6  C   UNL     1      -6.679  -0.879   2.874  0.00  0.00    +0.131 A 
ATOM      7  N   UNL     1      -7.882  -1.415   2.854  0.00  0.00    -0.237 NA
ATOM      8  C   UNL     1      -8.262  -2.250   1.883  0.00  0.00    +0.140 A 
ATOM      9  C   UNL     1      -9.559  -2.791   1.912  0.00  0.00    +0.047 A 
ATOM     10  C   UNL     1      -9.953  -3.645   0.924  0.00  0.00    +0.005 A 
ATOM     11  C   UNL     1      -9.060  -3.970  -0.105  0.00  0.00    +0.018 A 
ATOM     12  C   UNL     1      -7.815  -3.438  -0.115  0.00  0.00    +0.096 A 
ATOM     13  N   UNL     1      -7.414  -2.585   0.867  0.00  0.00    -0.268 N 
ATOM     14  C   UNL     1      -6.168  -2.066   0.827  0.00  0.00    +0.271 A 
ATOM     15  O   UNL     1      -5.404  -2.354  -0.078  0.00  0.00    -0.266 OA
ENDBRANCH   2   5
BRANCH   1  18
ATOM     16  C   UNL     1      -1.440  -0.559  -0.174  0.00  0.00    +0.270 C 
ATOM     17  O   UNL     1      -1.840  -1.146  -1.157  0.00  0.00    -0.270 OA
ATOM     18  N   UNL     1      -2.268  -0.349   0.869  0.00  0.00    -0.231 N 
ATOM     19  H   UNL     1      -1.948   0.120   1.656  0.00  0.00    +0.173 HD
BRANCH  16  21
ATOM     20  C   UNL     1      -0.011   1.465  -0.067  0.00  0.00    +0.062 C 
ATOM     21  C   UNL     1      -0.018  -0.064  -0.118  0.00  0.00    +0.257 C 
BRANCH  21  22
ATOM     22  O   UNL     1       0.686  -0.505  -1.281  0.00  0.00    -0.480 OA
BRANCH  22  23
ATOM     23  C   UNL     1       2.037  -0.620  -1.179  0.00  0.00    +0.122 A 
ATOM     24  C   UNL     1       2.682  -0.216  -0.019  0.00  0.00    +0.048 A 
ATOM     25  C   UNL     1       4.054  -0.333   0.083  0.00  0.00    +0.042 A 
ATOM     26  C   UNL     1       4.786  -0.853  -0.971  0.00  0.00    +0.124 A 
ATOM     27  C   UNL     1       4.144  -1.255  -2.130  0.00  0.00    +0.042 A 
ATOM     28  C   UNL     1       2.770  -1.146  -2.232  0.00  0.00    +0.048 A 
ATOM     29  F   UNL     1       6.129  -0.966  -0.870  0.00  0.00    -0.205 F 
ENDBRANCH  22  23
ENDBRANCH  21  22
ENDBRANCH  16  21
ENDBRANCH   1  18
TORSDOF 5
