REMARK  Name = ZINC59303652
REMARK  10 active torsions:
REMARK  status: ('A' for Active; 'I' for Inactive)
REMARK    1  A    between atoms: C_1  and  O_2
REMARK    2  A    between atoms: O_2  and  C_3
REMARK    3  A    between atoms: C_3  and  C_5
REMARK    4  A    between atoms: C_5  and  O_6
REMARK    5  A    between atoms: O_6  and  C_7
REMARK    6  A    between atoms: C_10  and  C_16
REMARK    7  A    between atoms: C_12  and  C_13
REMARK    8  A    between atoms: C_13  and  C_14
REMARK    9  A    between atoms: N_17  and  N_18
REMARK   10  A    between atoms: C_19  and  C_21
REMARK                            x       y       z     vdW  Elec       q    Type
REMARK                         _______ _______ _______ _____ _____    ______ ____
ROOT
ATOM      1  C   UNL     1       1.915  -7.990  -3.237  0.00  0.00    +0.138 C 
ATOM      2  N   UNL     1       1.437  -8.845  -2.385  0.00  0.00    -0.187 NA
ENDROOT
BRANCH   1   6
ATOM      3  C   UNL     1       1.477  -3.826  -2.538  0.00  0.00    +0.125 A 
ATOM      4  C   UNL     1       0.964  -4.739  -1.626  0.00  0.00    +0.046 A 
ATOM      5  C   UNL     1       1.104  -6.091  -1.848  0.00  0.00    +0.013 A 
ATOM      6  C   UNL     1       1.762  -6.544  -2.995  0.00  0.00    -0.005 A 
ATOM      7  C   UNL     1       2.276  -5.622  -3.910  0.00  0.00    +0.017 A 
ATOM      8  C   UNL     1       2.127  -4.271  -3.682  0.00  0.00    -0.001 A 
BRANCH   3   9
ATOM      9  O   UNL     1       1.337  -2.493  -2.315  0.00  0.00    -0.481 OA
BRANCH   9  10
ATOM     10  C   UNL     1       0.657  -2.104  -1.120  0.00  0.00    +0.349 C 
BRANCH  10  11
ATOM     11  C   UNL     1       0.598  -0.600  -1.043  0.00  0.00    +0.345 C 
ATOM     12  O   UNL     1       1.088   0.070  -1.921  0.00  0.00    -0.247 OA
BRANCH  11  14
ATOM     13  C   UNL     1      -0.017   1.425   0.010  0.00  0.00    +0.280 C 
ATOM     14  O   UNL     1       0.002  -0.004   0.002  0.00  0.00    -0.466 OA
ENDBRANCH  11  14
ENDBRANCH  10  11
ENDBRANCH   9  10
ENDBRANCH   3   9
BRANCH   8  15
ATOM     15  C   UNL     1       2.676  -3.276  -4.671  0.00  0.00    +0.065 C 
BRANCH  15  16
ATOM     16  C   UNL     1       4.051  -2.839  -4.234  0.00  0.00    -0.030 C 
ATOM     17  C   UNL     1       5.066  -2.954  -5.053  0.00  0.00    +0.004 C 
ENDBRANCH  15  16
ENDBRANCH   8  15
ENDBRANCH   1   6
BRANCH   2  18
ATOM     18  N   UNL     1       1.582 -10.219  -2.615  0.00  0.00    -0.200 N 
ATOM     19  C   UNL     1       1.086 -11.107  -1.730  0.00  0.00    +0.299 C 
ATOM     20  O   UNL     1       0.513 -10.714  -0.731  0.00  0.00    -0.265 OA
ATOM     21  H   UNL     1       2.039 -10.532  -3.411  0.00  0.00    +0.178 HD
BRANCH  19  22
ATOM     22  C   UNL     1       1.238 -12.548  -1.971  0.00  0.00    +0.192 A 
ATOM     23  C   UNL     1       0.776 -13.530  -1.155  0.00  0.00    +0.063 A 
ATOM     24  C   UNL     1       1.153 -14.794  -1.788  0.00  0.00    +0.022 A 
ATOM     25  C   UNL     1       0.975 -16.140  -1.458  0.00  0.00    +0.027 A 
ATOM     26  C   UNL     1       1.462 -17.111  -2.287  0.00  0.00    +0.019 A 
ATOM     27  C   UNL     1       2.133 -16.768  -3.454  0.00  0.00    +0.019 A 
ATOM     28  C   UNL     1       2.319 -15.446  -3.797  0.00  0.00    +0.048 A 
ATOM     29  C   UNL     1       1.831 -14.441  -2.970  0.00  0.00    +0.136 A 
ATOM     30  O   UNL     1       1.853 -13.096  -3.041  0.00  0.00    -0.450 OA
ATOM     31 BR   UNL     1       1.223 -18.933  -1.842  0.00  0.00    -0.050 Br
ENDBRANCH  19  22
ENDBRANCH   2  18
TORSDOF 9
