REMARK  Name = ZINC05119842
REMARK  6 active torsions:
REMARK  status: ('A' for Active; 'I' for Inactive)
REMARK    1  A    between atoms: C_6  and  C_7
REMARK    2  A    between atoms: N_9  and  N_10
REMARK    3  A    between atoms: N_10  and  C_11
REMARK    4  A    between atoms: N_18  and  C_21
REMARK    5  A    between atoms: C_21  and  C_22
REMARK    6  A    between atoms: C_22  and  C_23
REMARK                            x       y       z     vdW  Elec       q    Type
REMARK                         _______ _______ _______ _____ _____    ______ ____
ROOT
ATOM      1  C   UNL     1       2.473   1.362  -0.014  0.00  0.00    +0.106 C 
ATOM      2  C   UNL     1       1.262   1.986   0.220  0.00  0.00    +0.114 C 
ATOM      3  C   UNL     1       1.185   3.424   0.531  0.00  0.00    +0.256 C 
ATOM      4  O   UNL     1       2.191   4.106   0.590  0.00  0.00    -0.270 OA
ATOM      5  N   UNL     1      -0.032   3.965   0.748  0.00  0.00    -0.263 N 
ATOM      6  C   UNL     1      -1.149   3.226   0.686  0.00  0.00    +0.146 C 
ATOM      7  S   UNL     1      -2.649   3.999   0.976  0.00  0.00    -0.018 S 
ATOM      8  N   UNL     1      -1.153   1.916   0.404  0.00  0.00    -0.249 N 
ATOM      9  C   UNL     1      -0.009   1.241   0.170  0.00  0.00    +0.258 C 
ATOM     10  O   UNL     1      -0.026   0.050  -0.080  0.00  0.00    -0.269 OA
ATOM     11  H   UNL     1      -0.100   4.911   0.953  0.00  0.00    +0.157 HD
ENDROOT
BRANCH   1  12
ATOM     12  N   UNL     1       3.599   2.096  -0.123  0.00  0.00    -0.271 N 
ATOM     13  H   UNL     1       3.549   3.064  -0.117  0.00  0.00    +0.169 HD
BRANCH  12  16
ATOM     14  C   UNL     1       5.966   2.192  -0.352  0.00  0.00    +0.260 C 
ATOM     15  O   UNL     1       5.904   3.406  -0.345  0.00  0.00    -0.269 OA
ATOM     16  N   UNL     1       4.841   1.459  -0.244  0.00  0.00    -0.233 N 
ATOM     17  H   UNL     1       4.891   0.490  -0.249  0.00  0.00    +0.173 HD
BRANCH  14  23
ATOM     18  C   UNL     1       7.375   0.124  -0.484  0.00  0.00    +0.033 A 
ATOM     19  C   UNL     1       8.619  -0.462  -0.611  0.00  0.00    +0.111 A 
ATOM     20  N   UNL     1       9.707   0.275  -0.716  0.00  0.00    -0.263 NA
ATOM     21  C   UNL     1       9.663   1.592  -0.711  0.00  0.00    +0.111 A 
ATOM     22  C   UNL     1       8.460   2.261  -0.594  0.00  0.00    +0.033 A 
ATOM     23  C   UNL     1       7.280   1.519  -0.480  0.00  0.00    +0.041 A 
ENDBRANCH  14  23
ENDBRANCH  12  16
ENDBRANCH   1  12
BRANCH   8  24
ATOM     24  C   UNL     1      -2.430   1.199   0.355  0.00  0.00    +0.120 C 
BRANCH  24  25
ATOM     25  C   UNL     1      -2.762   0.653   1.744  0.00  0.00    +0.050 C 
BRANCH  25  26
ATOM     26  C   UNL     1      -4.076  -0.085   1.694  0.00  0.00    -0.072 C 
ATOM     27  C   UNL     1      -4.046  -1.367   1.522  0.00  0.00    -0.028 C 
ATOM     28  C   UNL     1      -5.268  -2.234   1.441  0.00  0.00    +0.027 C 
ATOM     29  C   UNL     1      -6.481  -1.488   2.001  0.00  0.00    +0.004 C 
ATOM     30  C   UNL     1      -6.537  -0.098   1.353  0.00  0.00    +0.005 C 
ATOM     31  C   UNL     1      -5.337   0.713   1.851  0.00  0.00    +0.030 C 
ENDBRANCH  25  26
ENDBRANCH  24  25
ENDBRANCH   8  24
TORSDOF 6
