REMARK  Name = ZINC02240096
REMARK  7 active torsions:
REMARK  status: ('A' for Active; 'I' for Inactive)
REMARK    1  A    between atoms: C_1  and  O_2
REMARK    2  A    between atoms: O_2  and  C_3
REMARK    3  A    between atoms: C_3  and  C_5
REMARK    4  A    between atoms: C_11  and  C_12
REMARK    5  A    between atoms: C_20  and  N_33
REMARK    6  A    between atoms: C_21  and  C_31
REMARK    7  A    between atoms: C_22  and  C_24
REMARK                            x       y       z     vdW  Elec       q    Type
REMARK                         _______ _______ _______ _____ _____    ______ ____
ROOT
ATOM      1  C   UNL     1      -1.913   3.797  -1.125  0.00  0.00    +0.080 C 
ATOM      2  C   UNL     1      -0.952   2.955  -0.630  0.00  0.00    +0.100 A 
ATOM      3  N   UNL     1      -1.138   1.605  -0.419  0.00  0.00    -0.257 N 
ATOM      4  C   UNL     1      -0.102   0.901   0.078  0.00  0.00    +0.271 A 
ATOM      5  O   UNL     1      -0.204  -0.293   0.290  0.00  0.00    -0.266 OA
ATOM      6  C   UNL     1       1.155   1.607   0.353  0.00  0.00    +0.079 A 
ATOM      7  C   UNL     1       2.325   1.125   0.844  0.00  0.00    +0.028 C 
ATOM      8  S   UNL     1       0.729   3.271  -0.133  0.00  0.00    -0.065 S 
ATOM      9  C   UNL     1      -2.383   1.035  -0.712  0.00  0.00    +0.118 C 
ATOM     10  C   UNL     1      -3.431   1.729  -1.206  0.00  0.00    +0.079 C 
ATOM     11  C   UNL     1      -3.272   3.214  -1.459  0.00  0.00    +0.102 C 
ENDROOT
BRANCH   7  12
ATOM     12  C   UNL     1       3.513   1.988   0.889  0.00  0.00    -0.024 A 
ATOM     13  C   UNL     1       3.499   3.238   0.258  0.00  0.00    +0.011 A 
ATOM     14  C   UNL     1       4.616   4.043   0.309  0.00  0.00    +0.039 A 
ATOM     15  C   UNL     1       5.755   3.615   0.974  0.00  0.00    +0.123 A 
ATOM     16  C   UNL     1       5.778   2.375   1.596  0.00  0.00    +0.039 A 
ATOM     17  C   UNL     1       4.667   1.561   1.558  0.00  0.00    +0.011 A 
ATOM     18  F   UNL     1       6.848   4.408   1.015  0.00  0.00    -0.205 F 
ENDBRANCH   7  12
BRANCH  11  19
ATOM     19  C   UNL     1      -3.552   3.476  -2.917  0.00  0.00    -0.034 A 
ATOM     20  C   UNL     1      -2.701   2.976  -3.884  0.00  0.00    +0.007 A 
ATOM     21  C   UNL     1      -2.960   3.211  -5.221  0.00  0.00    +0.038 A 
ATOM     22  C   UNL     1      -4.066   3.958  -5.591  0.00  0.00    +0.123 A 
ATOM     23  C   UNL     1      -4.915   4.463  -4.621  0.00  0.00    +0.038 A 
ATOM     24  C   UNL     1      -4.657   4.222  -3.285  0.00  0.00    +0.007 A 
ATOM     25  F   UNL     1      -4.316   4.194  -6.897  0.00  0.00    -0.205 F 
ENDBRANCH  11  19
BRANCH   9  26
ATOM     26  N   UNL     1      -2.546  -0.311  -0.490  0.00  0.00    -0.343 N 
ATOM     27  H   UNL     1      -3.511  -0.792  -0.709  0.00  0.00    +0.144 HD
ATOM     28  H   UNL     1      -1.712  -0.908  -0.092  0.00  0.00    +0.144 HD
ENDBRANCH   9  26
BRANCH   1  29
ATOM     29  C   UNL     1      -1.647   5.160  -1.317  0.00  0.00    +0.338 C 
ATOM     30  O   UNL     1      -0.549   5.611  -1.042  0.00  0.00    -0.245 OA
BRANCH  29  32
ATOM     31  C   UNL     1      -2.269   7.350  -1.976  0.00  0.00    +0.280 C 
ATOM     32  O   UNL     1      -2.609   5.973  -1.806  0.00  0.00    -0.465 OA
ENDBRANCH  29  32
ENDBRANCH   1  29
BRANCH  10  33
ATOM     33  C   UNL     1      -4.672   1.071  -1.486  0.00  0.00    +0.099 C 
ATOM     34  N   UNL     1      -5.656   0.550  -1.708  0.00  0.00    -0.191 NA
ENDBRANCH  10  33
TORSDOF 6
