REMARK  Name = ZINC18246813
REMARK  4 active torsions:
REMARK  status: ('A' for Active; 'I' for Inactive)
REMARK    1  A    between atoms: C_3  and  C_6
REMARK    2  A    between atoms: N_8  and  C_9
REMARK    3  A    between atoms: C_9  and  C_10
REMARK    4  A    between atoms: N_12  and  N_13
REMARK                            x       y       z     vdW  Elec       q    Type
REMARK                         _______ _______ _______ _____ _____    ______ ____
ROOT
ATOM      1  C   UNL     1       6.993  -0.059  -0.065  0.00  0.00    +0.249 C 
ATOM      2  O   UNL     1       6.500  -1.167  -0.066  0.00  0.00    -0.272 OA
ATOM      3  N   UNL     1       8.333   0.082  -0.077  0.00  0.00    -0.205 N 
ATOM      4  H   UNL     1       8.728   0.968  -0.076  0.00  0.00    +0.177 HD
ENDROOT
BRANCH   3   5
ATOM      5  N   UNL     1       9.157  -1.052  -0.091  0.00  0.00    -0.174 NA
ATOM      6  C   UNL     1      10.460  -0.915  -0.103  0.00  0.00    +0.153 C 
ATOM      7  C   UNL     1      11.480  -1.989  -0.124  0.00  0.00    +0.029 A 
ATOM      8  C   UNL     1      11.401  -3.377  -0.138  0.00  0.00    +0.027 A 
ATOM      9  C   UNL     1      12.559  -4.129  -0.158  0.00  0.00    +0.019 A 
ATOM     10  C   UNL     1      13.794  -3.501  -0.163  0.00  0.00    +0.017 A 
ATOM     11  C   UNL     1      13.883  -2.124  -0.149  0.00  0.00    +0.025 A 
ATOM     12  C   UNL     1      12.727  -1.350  -0.130  0.00  0.00    +0.043 A 
ATOM     13  N   UNL     1      12.538   0.028  -0.114  0.00  0.00    -0.280 N 
ATOM     14  C   UNL     1      11.232   0.345  -0.104  0.00  0.00    +0.269 C 
ATOM     15  O   UNL     1      10.768   1.469  -0.094  0.00  0.00    -0.268 OA
ATOM     16 BR   UNL     1      12.459  -6.018  -0.176  0.00  0.00    -0.050 Br
ATOM     17  H   UNL     1      13.258   0.678  -0.114  0.00  0.00    +0.155 HD
ENDBRANCH   3   5
BRANCH   1  18
ATOM     18  C   UNL     1       6.107   1.160  -0.050  0.00  0.00    +0.202 C 
BRANCH  18  21
ATOM     19  C   UNL     1       3.725   1.670  -0.025  0.00  0.00    +0.251 C 
ATOM     20  O   UNL     1       4.008   2.853  -0.021  0.00  0.00    -0.270 OA
ATOM     21  N   UNL     1       4.703   0.743  -0.039  0.00  0.00    -0.302 N 
ATOM     22  H   UNL     1       4.477  -0.201  -0.042  0.00  0.00    +0.150 HD
BRANCH  19  25
ATOM     23  C   UNL     1      -0.016   1.352   0.009  0.00  0.00    +0.008 A 
ATOM     24  C   UNL     1       1.175   2.036   0.002  0.00  0.00    +0.021 A 
ATOM     25  C   UNL     1       2.320   1.253  -0.013  0.00  0.00    +0.074 A 
ATOM     26  S   UNL     1       1.636  -0.394  -0.016  0.00  0.00    -0.092 S 
ATOM     27  C   UNL     1       0.002  -0.004   0.002  0.00  0.00    +0.046 A 
ENDBRANCH  19  25
ENDBRANCH  18  21
ENDBRANCH   1  18
TORSDOF 4
