REMARK  Name = ZINC14535199
REMARK  5 active torsions:
REMARK  status: ('A' for Active; 'I' for Inactive)
REMARK    1  A    between atoms: C_8  and  C_10
REMARK    2  A    between atoms: N_14  and  C_17
REMARK    3  A    between atoms: C_17  and  C_18
REMARK    4  A    between atoms: C_25  and  C_27
REMARK    5  A    between atoms: C_27  and  N_28
REMARK                            x       y       z     vdW  Elec       q    Type
REMARK                         _______ _______ _______ _____ _____    ______ ____
ROOT
ATOM      1  C   UNL     1       4.226   1.653  -2.287  0.00  0.00    +0.048 A 
ATOM      2  C   UNL     1       3.403   2.160  -1.298  0.00  0.00    +0.020 A 
ATOM      3  C   UNL     1       2.276   1.428  -0.886  0.00  0.00    -0.010 A 
ATOM      4  C   UNL     1       1.994   0.241  -1.464  0.00  0.00    +0.028 A 
ATOM      5  N   UNL     1       2.814  -0.264  -2.435  0.00  0.00    -0.311 N 
ATOM      6  C   UNL     1       3.904   0.397  -2.858  0.00  0.00    +0.259 A 
ATOM      7  O   UNL     1       4.612  -0.081  -3.729  0.00  0.00    -0.267 OA
ATOM      8  C   UNL     1       0.790  -0.587  -1.093  0.00  0.00    +0.073 C 
ATOM      9  C   UNL     1       0.268  -0.201   0.290  0.00  0.00    +0.114 C 
ATOM     10  N   UNL     1       0.179   1.268   0.342  0.00  0.00    -0.295 N 
ATOM     11  C   UNL     1       1.433   2.018   0.217  0.00  0.00    +0.144 C 
ATOM     12  C   UNL     1      -1.004   1.896   0.492  0.00  0.00    +0.233 C 
ATOM     13  O   UNL     1      -2.025   1.250   0.588  0.00  0.00    -0.274 OA
ENDROOT
BRANCH   1  21
ATOM     14  C   UNL     1       7.794   2.725  -2.787  0.00  0.00    +0.001 A 
ATOM     15  C   UNL     1       7.659   3.825  -3.594  0.00  0.00    +0.009 A 
ATOM     16  C   UNL     1       6.380   4.266  -4.013  0.00  0.00    -0.010 A 
ATOM     17  C   UNL     1       6.042   5.400  -4.861  0.00  0.00    +0.016 A 
ATOM     18  C   UNL     1       4.755   5.649  -5.142  0.00  0.00    +0.046 A 
ATOM     19  S   UNL     1       3.882   4.359  -4.275  0.00  0.00    -0.096 S 
ATOM     20  C   UNL     1       5.273   3.517  -3.563  0.00  0.00    +0.027 A 
ATOM     21  C   UNL     1       5.417   2.407  -2.740  0.00  0.00    +0.002 A 
ATOM     22  C   UNL     1       6.693   2.006  -2.350  0.00  0.00    +0.010 A 
ENDBRANCH   1  21
BRANCH   5  23
ATOM     23  C   UNL     1       2.495  -1.564  -3.031  0.00  0.00    +0.128 C 
BRANCH  23  24
ATOM     24  C   UNL     1       3.138  -2.677  -2.201  0.00  0.00    +0.009 C 
ATOM     25  C   UNL     1       4.210  -3.533  -2.878  0.00  0.00    +0.005 C 
ATOM     26  C   UNL     1       2.826  -4.122  -2.595  0.00  0.00    +0.005 C 
ENDBRANCH  23  24
ENDBRANCH   5  23
BRANCH  12  27
ATOM     27  C   UNL     1      -1.056   3.402   0.541  0.00  0.00    +0.201 C 
BRANCH  27  28
ATOM     28  N   UNL     1      -2.445   3.837   0.709  0.00  0.00    -0.291 N 
ATOM     29  C   UNL     1      -2.736   5.151   0.780  0.00  0.00    +0.297 C 
ATOM     30  O   UNL     1      -1.846   5.975   0.704  0.00  0.00    -0.253 OA
ATOM     31  N   UNL     1      -4.014   5.551   0.934  0.00  0.00    -0.313 N 
ATOM     32  H   UNL     1      -3.155   3.179   0.770  0.00  0.00    +0.151 HD
ATOM     33  H   UNL     1      -4.724   4.893   0.995  0.00  0.00    +0.146 HD
ATOM     34  H   UNL     1      -4.223   6.497   0.985  0.00  0.00    +0.146 HD
ENDBRANCH  27  28
ENDBRANCH  12  27
TORSDOF 5
