REMARK  Name = ZINC49628625
REMARK  6 active torsions:
REMARK  status: ('A' for Active; 'I' for Inactive)
REMARK    1  A    between atoms: C_1  and  N_2
REMARK    2  A    between atoms: N_2  and  C_3
REMARK    3  A    between atoms: C_11  and  C_13
REMARK    4  A    between atoms: C_15  and  C_19
REMARK    5  A    between atoms: C_20  and  C_21
REMARK    6  A    between atoms: C_21  and  O_22
REMARK                            x       y       z     vdW  Elec       q    Type
REMARK                         _______ _______ _______ _____ _____    ______ ____
ROOT
ATOM      1  C   UNL     1      -0.028   1.460   0.012  0.00  0.00    +0.132 C 
ATOM      2  N   UNL     1       0.006  -0.004   0.002  0.00  0.00    -0.296 N 
ATOM      3  C   UNL     1      -0.102  -0.673  -1.163  0.00  0.00    +0.248 C 
ATOM      4  O   UNL     1      -0.180  -1.886  -1.163  0.00  0.00    -0.270 OA
ENDROOT
BRANCH   2   5
ATOM      5  C   UNL     1       0.158  -0.742   1.258  0.00  0.00    +0.098 C 
ATOM      6  C   UNL     1      -0.993  -0.383   2.213  0.00  0.00    +0.046 C 
ATOM      7  C   UNL     1      -0.675  -0.896   3.639  0.00  0.00    +0.168 C 
ATOM      8  S   UNL     1       1.163  -0.881   3.673  0.00  0.00    -0.029 S 
ATOM      9  O   UNL     1       1.633  -2.211   3.844  0.00  0.00    -0.174 OA
ATOM     10  O   UNL     1       1.600   0.135   4.565  0.00  0.00    -0.174 OA
ATOM     11  C   UNL     1       1.497  -0.345   1.943  0.00  0.00    +0.188 C 
ENDBRANCH   2   5
BRANCH   3  12
ATOM     12  C   UNL     1      -0.124   0.069  -2.442  0.00  0.00    +0.056 A 
ATOM     13  C   UNL     1       0.637   1.230  -2.602  0.00  0.00    +0.033 A 
ATOM     14  C   UNL     1       0.580   1.893  -3.830  0.00  0.00    +0.044 A 
ATOM     15  C   UNL     1      -0.230   1.373  -4.843  0.00  0.00    +0.127 A 
ATOM     16  N   UNL     1      -0.932   0.275  -4.651  0.00  0.00    -0.261 NA
ATOM     17  C   UNL     1      -0.901  -0.383  -3.510  0.00  0.00    +0.123 A 
BRANCH  14  18
ATOM     18  C   UNL     1       1.339   3.087  -4.048  0.00  0.00    -0.062 C 
ATOM     19  C   UNL     1       1.961   4.066  -4.226  0.00  0.00    -0.069 C 
BRANCH  19  20
ATOM     20  C   UNL     1       2.742   5.294  -4.450  0.00  0.00    +0.244 C 
BRANCH  20  21
ATOM     21  O   UNL     1       2.509   5.771  -5.777  0.00  0.00    -0.383 OA
ATOM     22  H   UNL     1       2.993   6.580  -5.995  0.00  0.00    +0.211 HD
ENDBRANCH  20  21
ENDBRANCH  19  20
ENDBRANCH  14  18
ENDBRANCH   3  12
TORSDOF 5
