REMARK  Name = ZINC05538396
REMARK  9 active torsions:
REMARK  status: ('A' for Active; 'I' for Inactive)
REMARK    1  A    between atoms: C_1  and  C_2
REMARK    2  A    between atoms: C_4  and  C_26
REMARK    3  A    between atoms: C_5  and  C_8
REMARK    4  A    between atoms: N_9  and  N_10
REMARK    5  A    between atoms: C_11  and  C_13
REMARK    6  A    between atoms: N_15  and  N_16
REMARK    7  A    between atoms: C_17  and  C_18
REMARK    8  A    between atoms: C_19  and  C_25
REMARK    9  A    between atoms: C_21  and  C_24
REMARK                            x       y       z     vdW  Elec       q    Type
REMARK                         _______ _______ _______ _____ _____    ______ ____
ROOT
ATOM      1  N   UNL     1       0.030  -7.479  -0.583  0.00  0.00    -0.199 N 
ATOM      2  C   UNL     1       0.325  -8.081  -1.752  0.00  0.00    +0.320 C 
ATOM      3  O   UNL     1       0.320  -7.440  -2.783  0.00  0.00    -0.263 OA
ATOM      4  H   UNL     1       0.034  -7.991   0.241  0.00  0.00    +0.178 HD
ENDROOT
BRANCH   2   5
ATOM      5  C   UNL     1       0.658  -9.533  -1.778  0.00  0.00    +0.320 C 
ATOM      6  O   UNL     1       0.663 -10.174  -0.747  0.00  0.00    -0.263 OA
ATOM      7  N   UNL     1       0.953 -10.135  -2.947  0.00  0.00    -0.199 N 
ATOM      8  H   UNL     1       0.949  -9.623  -3.771  0.00  0.00    +0.178 HD
BRANCH   7   9
ATOM      9  N   UNL     1       1.266 -11.500  -2.972  0.00  0.00    -0.187 NA
ATOM     10  C   UNL     1       1.551 -12.081  -4.099  0.00  0.00    +0.138 C 
BRANCH  10  11
ATOM     11  C   UNL     1       1.881 -13.517  -4.125  0.00  0.00    -0.003 A 
ATOM     12  C   UNL     1       2.005 -14.231  -2.930  0.00  0.00    -0.042 A 
ATOM     13  C   UNL     1       2.313 -15.575  -2.963  0.00  0.00    +0.007 A 
ATOM     14  C   UNL     1       2.499 -16.217  -4.175  0.00  0.00    -0.050 A 
ATOM     15  C   UNL     1       2.377 -15.516  -5.362  0.00  0.00    +0.004 A 
ATOM     16  C   UNL     1       2.064 -14.173  -5.345  0.00  0.00    +0.010 A 
ATOM     17  C   UNL     1       2.835 -17.685  -4.202  0.00  0.00    +0.044 C 
ATOM     18  C   UNL     1       1.804 -13.534  -1.610  0.00  0.00    +0.044 C 
ENDBRANCH  10  11
ENDBRANCH   7   9
ENDBRANCH   2   5
BRANCH   1  20
ATOM     19  C   UNL     1      -0.568  -5.533   0.569  0.00  0.00    +0.138 C 
ATOM     20  N   UNL     1      -0.283  -6.113  -0.557  0.00  0.00    -0.187 NA
BRANCH  19  25
ATOM     21  C   UNL     1      -1.855   0.071   0.672  0.00  0.00    +0.044 C 
ATOM     22  C   UNL     1      -1.517  -1.397   0.645  0.00  0.00    -0.050 A 
ATOM     23  C   UNL     1      -1.319  -2.036  -0.566  0.00  0.00    +0.007 A 
ATOM     24  C   UNL     1      -1.011  -3.380  -0.599  0.00  0.00    -0.042 A 
ATOM     25  C   UNL     1      -0.898  -4.096   0.596  0.00  0.00    -0.003 A 
ATOM     26  C   UNL     1      -1.099  -3.445   1.815  0.00  0.00    +0.010 A 
ATOM     27  C   UNL     1      -1.402  -2.099   1.832  0.00  0.00    +0.004 A 
ATOM     28  C   UNL     1      -0.796  -4.074  -1.919  0.00  0.00    +0.044 C 
ENDBRANCH  19  25
ENDBRANCH   1  20
TORSDOF 5
