REMARK  Name = ZINC63807104
REMARK  4 active torsions:
REMARK  status: ('A' for Active; 'I' for Inactive)
REMARK    1  A    between atoms: C_1  and  C_2
REMARK    2  A    between atoms: C_3  and  C_7
REMARK    3  A    between atoms: C_11  and  C_16
REMARK    4  A    between atoms: C_16  and  C_17
REMARK                            x       y       z     vdW  Elec       q    Type
REMARK                         _______ _______ _______ _____ _____    ______ ____
ROOT
ATOM      1  C   UNL     1      -2.530  -0.346   0.013  0.00  0.00    +0.182 C 
ATOM      2  N   UNL     1      -3.274  -0.952   1.149  0.00  0.00    -0.264 N 
ATOM      3  N   UNL     1      -4.563  -1.300   0.874  0.00  0.00    -0.224 N 
ATOM      4  C   UNL     1      -5.723  -1.548   1.586  0.00  0.00    +0.156 A 
ATOM      5  N   UNL     1      -6.648  -1.892   0.740  0.00  0.00    -0.132 NA
ATOM      6  N   UNL     1      -6.181  -1.869  -0.458  0.00  0.00    -0.121 NA
ATOM      7  C   UNL     1      -4.938  -1.501  -0.430  0.00  0.00    +0.211 A 
ATOM      8  S   UNL     1      -3.477  -1.114  -1.373  0.00  0.00    -0.056 S 
ATOM      9  H   UNL     1      -2.765  -1.730   1.541  0.00  0.00    +0.168 HD
ENDROOT
BRANCH   1  12
ATOM     10  C   UNL     1      -0.018   1.503   0.010  0.00  0.00    +0.067 C 
ATOM     11  C   UNL     1       0.002  -0.004   0.002  0.00  0.00    +0.064 C 
ATOM     12  C   UNL     1      -1.086  -0.777   0.003  0.00  0.00    +0.008 C 
ATOM     13  C   UNL     1      -0.531  -2.190  -0.007  0.00  0.00    +0.201 C 
ATOM     14  N   UNL     1       0.926  -1.973  -0.013  0.00  0.00    -0.183 NA
ATOM     15  N   UNL     1       1.125  -0.756  -0.013  0.00  0.00    -0.159 NA
ENDBRANCH   1  12
BRANCH   4  16
ATOM     16  C   UNL     1      -5.886  -1.439   3.081  0.00  0.00    +0.113 C 
BRANCH  16  17
ATOM     17  C   UNL     1      -6.317  -0.040   3.439  0.00  0.00    -0.040 A 
ATOM     18  C   UNL     1      -5.368   0.931   3.698  0.00  0.00    +0.004 A 
ATOM     19  C   UNL     1      -5.764   2.214   4.026  0.00  0.00    +0.000 A 
ATOM     20  C   UNL     1      -7.109   2.526   4.095  0.00  0.00    +0.000 A 
ATOM     21  C   UNL     1      -8.058   1.555   3.835  0.00  0.00    +0.000 A 
ATOM     22  C   UNL     1      -7.662   0.273   3.502  0.00  0.00    +0.004 A 
ENDBRANCH  16  17
ENDBRANCH   4  16
TORSDOF 3
