REMARK  Name = ZINC13635800
REMARK  5 active torsions:
REMARK  status: ('A' for Active; 'I' for Inactive)
REMARK    1  A    between atoms: C_1  and  C_2
REMARK    2  A    between atoms: N_11  and  C_13
REMARK    3  A    between atoms: C_13  and  C_14
REMARK    4  A    between atoms: C_13  and  C_15
REMARK    5  A    between atoms: C_13  and  C_16
REMARK                            x       y       z     vdW  Elec       q    Type
REMARK                         _______ _______ _______ _____ _____    ______ ____
ROOT
ATOM      1  C   UNL     1      -0.019   1.526   0.010  0.00  0.00    +0.007 C 
ATOM      2  C   UNL     1       0.002  -0.004   0.002  0.00  0.00    -0.014 C 
ATOM      3  C   UNL     1       0.717  -0.497  -1.258  0.00  0.00    +0.007 C 
ATOM      4  C   UNL     1       0.729  -2.028  -1.270  0.00  0.00    +0.043 C 
ATOM      5  C   UNL     1       1.445  -2.543  -0.026  0.00  0.00    +0.100 C 
ATOM      6  C   UNL     1       0.753  -2.041   1.238  0.00  0.00    +0.043 C 
ATOM      7  C   UNL     1       0.742  -0.511   1.242  0.00  0.00    +0.007 C 
ATOM      8  N   UNL     1       2.853  -2.129  -0.038  0.00  0.00    -0.306 N 
ATOM      9  C   UNL     1       3.588  -3.257  -0.051  0.00  0.00    +0.149 C 
ATOM     10  S   UNL     1       5.300  -3.289  -0.068  0.00  0.00    -0.017 S 
ATOM     11  N   UNL     1       2.815  -4.351  -0.049  0.00  0.00    -0.241 N 
ATOM     12  N   UNL     1       1.490  -4.015  -0.034  0.00  0.00    -0.215 NA
ATOM     13  H   UNL     1       3.189  -1.218  -0.036  0.00  0.00    +0.150 HD
ATOM     14  H   UNL     1       1.030  -4.396   0.779  0.00  0.00    +0.147 HD
ENDROOT
BRANCH  11  15
ATOM     15  C   UNL     1       3.322  -5.725  -0.062  0.00  0.00    +0.044 C 
ATOM     16  C   UNL     1       4.188  -5.961   1.177  0.00  0.00    +0.033 C 
ATOM     17  C   UNL     1       2.146  -6.704  -0.056  0.00  0.00    +0.033 C 
ATOM     18  C   UNL     1       4.163  -5.947  -1.321  0.00  0.00    +0.033 C 
ENDBRANCH  11  15
TORSDOF 1
