REMARK  Name = ZINC21726650
REMARK  6 active torsions:
REMARK  status: ('A' for Active; 'I' for Inactive)
REMARK    1  A    between atoms: C_1  and  C_2
REMARK    2  A    between atoms: C_13  and  C_16
REMARK    3  A    between atoms: C_21  and  C_23
REMARK    4  A    between atoms: C_27  and  O_29
REMARK    5  A    between atoms: O_29  and  C_30
REMARK    6  A    between atoms: C_30  and  C_31
REMARK                            x       y       z     vdW  Elec       q    Type
REMARK                         _______ _______ _______ _____ _____    ______ ____
ROOT
ATOM      1  C   UNL     1      -1.823   3.204   0.034  0.00  0.00    +0.068 C 
ATOM      2  C   UNL     1      -1.342   1.776   0.019  0.00  0.00    +0.066 A 
ATOM      3  C   UNL     1      -0.017   1.365   0.009  0.00  0.00    +0.023 A 
ATOM      4  C   UNL     1       0.002  -0.004   0.002  0.00  0.00    +0.134 A 
ATOM      5  N   UNL     1      -1.279  -0.429  -0.001  0.00  0.00    -0.198 N 
ATOM      6  N   UNL     1      -2.104   0.708   0.015  0.00  0.00    -0.168 NA
ATOM      7  C   UNL     1      -1.708  -1.760  -0.017  0.00  0.00    +0.176 A 
ATOM      8  C   UNL     1      -2.975  -2.088   0.499  0.00  0.00    +0.054 A 
ATOM      9  C   UNL     1      -3.403  -3.379   0.489  0.00  0.00    +0.054 A 
ATOM     10  C   UNL     1      -2.562  -4.375  -0.042  0.00  0.00    +0.178 A 
ATOM     11  N   UNL     1      -2.676  -5.684  -0.195  0.00  0.00    -0.128 NA
ATOM     12  N   UNL     1      -1.606  -6.142  -0.745  0.00  0.00    -0.132 NA
ATOM     13  C   UNL     1      -0.761  -5.167  -0.971  0.00  0.00    +0.152 A 
ATOM     14  N   UNL     1      -1.331  -4.022  -0.538  0.00  0.00    -0.195 N 
ATOM     15  N   UNL     1      -0.925  -2.686  -0.517  0.00  0.00    -0.144 NA
ATOM     16  C   UNL     1       0.602  -5.299  -1.601  0.00  0.00    +0.090 C 
ATOM     17  N   UNL     1       1.195  -0.726   0.003  0.00  0.00    -0.270 N 
ATOM     18  C   UNL     1       2.344  -0.052   0.221  0.00  0.00    +0.219 C 
ATOM     19  O   UNL     1       3.401  -0.619   0.040  0.00  0.00    -0.275 OA
ATOM     20  C   UNL     1       2.355   1.379   0.681  0.00  0.00    +0.109 C 
ATOM     21  C   UNL     1       1.246   2.189   0.002  0.00  0.00    +0.063 C 
ATOM     22  H   UNL     1       1.181  -1.812  -0.171  0.00  0.00    +0.156 HD
ENDROOT
BRANCH  21  23
ATOM     23  C   UNL     1       1.642   2.499  -1.419  0.00  0.00    -0.036 A 
ATOM     24  C   UNL     1       1.913   1.469  -2.301  0.00  0.00    +0.004 A 
ATOM     25  C   UNL     1       2.276   1.750  -3.605  0.00  0.00    +0.004 A 
ATOM     26  C   UNL     1       2.368   3.062  -4.030  0.00  0.00    +0.045 A 
ATOM     27  C   UNL     1       2.097   4.096  -3.147  0.00  0.00    +0.121 A 
ATOM     28  C   UNL     1       1.727   3.812  -1.841  0.00  0.00    +0.050 A 
BRANCH  27  29
ATOM     29  O   UNL     1       2.187   5.387  -3.563  0.00  0.00    -0.487 OA
BRANCH  29  30
ATOM     30  C   UNL     1       2.567   5.606  -4.923  0.00  0.00    +0.264 C 
BRANCH  30  31
ATOM     31  C   UNL     1       2.613   7.086  -5.200  0.00  0.00    -0.010 A 
ATOM     32  C   UNL     1       1.485   7.739  -5.658  0.00  0.00    +0.007 A 
ATOM     33  C   UNL     1       1.526   9.098  -5.908  0.00  0.00    +0.000 A 
ATOM     34  C   UNL     1       2.699   9.802  -5.709  0.00  0.00    +0.000 A 
ATOM     35  C   UNL     1       3.829   9.148  -5.255  0.00  0.00    +0.000 A 
ATOM     36  C   UNL     1       3.787   7.790  -5.001  0.00  0.00    +0.007 A 
ENDBRANCH  30  31
ENDBRANCH  29  30
ENDBRANCH  27  29
ENDBRANCH  21  23
TORSDOF 4
