REMARK  Name = ZINC65498001
REMARK  6 active torsions:
REMARK  status: ('A' for Active; 'I' for Inactive)
REMARK    1  A    between atoms: C_2  and  C_3
REMARK    2  A    between atoms: C_7  and  N_9
REMARK    3  A    between atoms: C_10  and  C_12
REMARK    4  A    between atoms: C_12  and  N_13
REMARK    5  A    between atoms: C_14  and  C_16
REMARK    6  A    between atoms: C_18  and  N_24
REMARK                            x       y       z     vdW  Elec       q    Type
REMARK                         _______ _______ _______ _____ _____    ______ ____
ROOT
ATOM      1  N   UNL     1       3.320   7.800  -0.317  0.00  0.00    -0.303 N 
ATOM      2  C   UNL     1       4.327   8.688  -0.437  0.00  0.00    +0.245 C 
ATOM      3  O   UNL     1       5.478   8.301  -0.475  0.00  0.00    -0.270 OA
ATOM      4  H   UNL     1       2.401   8.109  -0.287  0.00  0.00    +0.150 HD
ENDROOT
BRANCH   2   5
ATOM      5  C   UNL     1       4.030  10.134  -0.523  0.00  0.00    +0.040 A 
ATOM      6  C   UNL     1       5.070  11.056  -0.654  0.00  0.00    +0.047 A 
ATOM      7  C   UNL     1       4.788  12.403  -0.734  0.00  0.00    +0.147 A 
ATOM      8  C   UNL     1       3.475  12.843  -0.686  0.00  0.00    +0.089 A 
ATOM      9  C   UNL     1       2.438  11.933  -0.556  0.00  0.00    +0.062 A 
ATOM     10  C   UNL     1       2.708  10.581  -0.480  0.00  0.00    +0.034 A 
ATOM     11 CL   UNL     1       0.796  12.493  -0.495  0.00  0.00    -0.082 Cl
ATOM     12 CL   UNL     1       3.128  14.541  -0.788  0.00  0.00    -0.080 Cl
BRANCH   7  13
ATOM     13  N   UNL     1       5.890  13.382  -0.872  0.00  0.00    +0.058 N 
ATOM     14  O   UNL     1       7.036  12.999  -0.914  0.00  0.00    -0.126 OA
ATOM     15  O   UNL     1       5.644  14.563  -0.943  0.00  0.00    -0.126 OA
ENDBRANCH   7  13
ENDBRANCH   2   5
BRANCH   1  16
ATOM     16  C   UNL     1       3.614   6.367  -0.232  0.00  0.00    +0.200 C 
BRANCH  16  18
ATOM     17  N   UNL     1       2.350   4.253  -0.009  0.00  0.00    -0.284 N 
ATOM     18  C   UNL     1       2.325   5.597  -0.104  0.00  0.00    +0.234 C 
ATOM     19  O   UNL     1       1.266   6.186  -0.085  0.00  0.00    -0.274 OA
ATOM     20  H   UNL     1       3.199   3.787   0.053  0.00  0.00    +0.155 HD
BRANCH  17  25
ATOM     21  C   UNL     1      -1.127   3.258  -0.721  0.00  0.00    +0.026 A 
ATOM     22  C   UNL     1      -1.216   2.082   0.025  0.00  0.00    +0.017 A 
ATOM     23  C   UNL     1      -0.128   1.639   0.749  0.00  0.00    +0.003 A 
ATOM     24  C   UNL     1       1.054   2.357   0.738  0.00  0.00    +0.023 A 
ATOM     25  C   UNL     1       1.153   3.529  -0.002  0.00  0.00    +0.035 A 
ATOM     26  C   UNL     1       0.066   3.979  -0.736  0.00  0.00    +0.040 A 
BRANCH  21  28
ATOM     27  C   UNL     1      -3.180   4.098  -2.089  0.00  0.00    +0.009 C 
ATOM     28  C   UNL     1      -2.255   3.720  -1.472  0.00  0.00    -0.070 C 
ENDBRANCH  21  28
ENDBRANCH  17  25
ENDBRANCH  16  18
ENDBRANCH   1  16
TORSDOF 6
