REMARK  Name = ZINC08961769
REMARK  7 active torsions:
REMARK  status: ('A' for Active; 'I' for Inactive)
REMARK    1  A    between atoms: C_1  and  O_2
REMARK    2  A    between atoms: O_2  and  C_3
REMARK    3  A    between atoms: C_6  and  S_11
REMARK    4  A    between atoms: C_8  and  O_9
REMARK    5  A    between atoms: O_9  and  C_10
REMARK    6  A    between atoms: S_11  and  N_14
REMARK    7  A    between atoms: N_14  and  C_15
REMARK                            x       y       z     vdW  Elec       q    Type
REMARK                         _______ _______ _______ _____ _____    ______ ____
ROOT
ATOM      1  N   UNL     1      -2.019  -1.027  -1.561  0.00  0.00    -0.216 N 
ATOM      2  H   UNL     1      -2.746  -0.469  -1.877  0.00  0.00    +0.174 HD
ENDROOT
BRANCH   1   3
ATOM      3  C   UNL     1      -1.320  -1.842  -2.459  0.00  0.00    +0.049 A 
ATOM      4  C   UNL     1      -0.420  -1.274  -3.355  0.00  0.00    +0.028 A 
ATOM      5  C   UNL     1       0.281  -2.069  -4.241  0.00  0.00    +0.048 A 
ATOM      6  C   UNL     1       0.081  -3.439  -4.250  0.00  0.00    +0.133 A 
ATOM      7  C   UNL     1      -0.832  -4.017  -3.354  0.00  0.00    +0.080 A 
ATOM      8  C   UNL     1      -1.531  -3.211  -2.458  0.00  0.00    +0.041 A 
ATOM      9  C   UNL     1      -1.038  -5.477  -3.386  0.00  0.00    +0.248 C 
ATOM     10  O   UNL     1      -2.160  -5.944  -3.401  0.00  0.00    -0.270 OA
ATOM     11  N   UNL     1       0.047  -6.289  -3.399  0.00  0.00    -0.308 N 
ATOM     12  C   UNL     1       1.385  -5.709  -3.273  0.00  0.00    +0.145 C 
ATOM     13  C   UNL     1       1.807  -5.035  -4.572  0.00  0.00    +0.247 C 
ATOM     14  O   UNL     1       0.761  -4.237  -5.112  0.00  0.00    -0.490 OA
ATOM     15  H   UNL     1      -0.063  -7.248  -3.492  0.00  0.00    +0.149 HD
ENDBRANCH   1   3
BRANCH   1  16
ATOM     16  S   UNL     1      -1.603  -1.015   0.042  0.00  0.00    +0.072 S 
ATOM     17  O   UNL     1      -1.553  -2.373   0.459  0.00  0.00    -0.150 OA
ATOM     18  O   UNL     1      -2.440  -0.055   0.672  0.00  0.00    -0.150 OA
BRANCH  16  22
ATOM     19  C   UNL     1       2.632   0.575   0.316  0.00  0.00    +0.162 A 
ATOM     20  C   UNL     1       2.402  -0.791   0.282  0.00  0.00    +0.051 A 
ATOM     21  C   UNL     1       1.109  -1.273   0.198  0.00  0.00    +0.032 A 
ATOM     22  C   UNL     1       0.043  -0.395   0.148  0.00  0.00    +0.112 A 
ATOM     23  C   UNL     1       0.265   0.970   0.182  0.00  0.00    +0.078 A 
ATOM     24  C   UNL     1       1.559   1.459   0.265  0.00  0.00    +0.163 A 
BRANCH  19  26
ATOM     25  C   UNL     1       4.955   0.084   0.445  0.00  0.00    +0.277 C 
ATOM     26  O   UNL     1       3.904   1.050   0.398  0.00  0.00    -0.491 OA
ENDBRANCH  19  26
BRANCH  24  27
ATOM     27  O   UNL     1       1.779   2.800   0.298  0.00  0.00    -0.491 OA
ATOM     28  C   UNL     1       0.630   3.648   0.244  0.00  0.00    +0.277 C 
ENDBRANCH  24  27
ENDBRANCH  16  22
ENDBRANCH   1  16
TORSDOF 5
