REMARK  Name = ZINC13033851
REMARK  8 active torsions:
REMARK  status: ('A' for Active; 'I' for Inactive)
REMARK    1  A    between atoms: C_1  and  C_2
REMARK    2  A    between atoms: C_5  and  C_8
REMARK    3  A    between atoms: C_8  and  N_69
REMARK    4  A    between atoms: C_9  and  C_10
REMARK    5  A    between atoms: C_9  and  N_69
REMARK    6  A    between atoms: C_26  and  C_27
REMARK    7  A    between atoms: C_26  and  N_69
REMARK    8  A    between atoms: N_31  and  C_32
REMARK                            x       y       z     vdW  Elec       q    Type
REMARK                         _______ _______ _______ _____ _____    ______ ____
ROOT
ATOM      1  N   UNL     1      -1.736   4.631   0.277  0.00  0.00    +0.390 N 
ATOM      2  H   UNL     1      -0.730   4.750   0.443  0.00  0.00    -0.080 HD
ENDROOT
BRANCH   1   3
ATOM      3  C   UNL     1      -2.215   5.735  -0.582  0.00  0.00    -0.042 C 
BRANCH   3   8
ATOM      4  C   UNL     1      -0.072  10.711   1.427  0.00  0.00    +0.044 C 
ATOM      5  C   UNL     1      -0.631   9.414   0.903  0.00  0.00    -0.050 A 
ATOM      6  C   UNL     1       0.129   8.624   0.060  0.00  0.00    +0.003 A 
ATOM      7  C   UNL     1      -0.384   7.434  -0.421  0.00  0.00    +0.002 A 
ATOM      8  C   UNL     1      -1.656   7.033  -0.058  0.00  0.00    -0.064 A 
ATOM      9  C   UNL     1      -2.417   7.824   0.781  0.00  0.00    +0.002 A 
ATOM     10  C   UNL     1      -1.903   9.013   1.266  0.00  0.00    +0.003 A 
ENDBRANCH   3   8
ENDBRANCH   1   3
BRANCH   1  11
ATOM     11  C   UNL     1      -2.444   4.656   1.574  0.00  0.00    -0.036 C 
BRANCH  11  12
ATOM     12  C   UNL     1      -1.646   3.861   2.575  0.00  0.00    +0.001 A 
ATOM     13  C   UNL     1      -0.742   4.487   3.370  0.00  0.00    +0.017 A 
ATOM     14  C   UNL     1       0.013   3.689   4.335  0.00  0.00    +0.002 A 
ATOM     15  C   UNL     1       0.955   4.281   5.184  0.00  0.00    +0.059 A 
ATOM     16  C   UNL     1       1.655   3.502   6.080  0.00  0.00    +0.163 A 
ATOM     17  C   UNL     1       1.427   2.124   6.144  0.00  0.00    +0.164 A 
ATOM     18  C   UNL     1       0.497   1.530   5.308  0.00  0.00    +0.075 A 
ATOM     19  C   UNL     1      -0.216   2.300   4.399  0.00  0.00    +0.053 A 
ATOM     20  N   UNL     1      -1.146   1.724   3.558  0.00  0.00    -0.322 N 
ATOM     21  H   UNL     1      -1.302   0.767   3.602  0.00  0.00    +0.169 HD
ATOM     22  C   UNL     1      -1.838   2.468   2.678  0.00  0.00    +0.251 A 
ATOM     23  O   UNL     1      -2.651   1.925   1.950  0.00  0.00    -0.268 OA
ATOM     24  O   UNL     1       2.110   1.349   7.029  0.00  0.00    -0.485 OA
ATOM     25  C   UNL     1       3.300   1.910   7.592  0.00  0.00    +0.270 C 
ATOM     26  C   UNL     1       2.990   3.344   8.043  0.00  0.00    +0.270 C 
ATOM     27  O   UNL     1       2.571   4.093   6.897  0.00  0.00    -0.485 OA
ENDBRANCH  11  12
ENDBRANCH   1  11
BRANCH   1  28
ATOM     28  C   UNL     1      -1.961   3.334  -0.396  0.00  0.00    +0.001 C 
BRANCH  28  29
ATOM     29  C   UNL     1      -1.059   3.248  -1.600  0.00  0.00    +0.135 A 
ATOM     30  N   UNL     1      -1.346   3.628  -2.822  0.00  0.00    -0.115 NA
ATOM     31  N   UNL     1      -0.319   3.393  -3.563  0.00  0.00    -0.023 NA
ATOM     32  N   UNL     1       0.618   2.879  -2.845  0.00  0.00    -0.044 NA
ATOM     33  N   UNL     1       0.198   2.769  -1.630  0.00  0.00    -0.228 N 
BRANCH  33  34
ATOM     34  C   UNL     1       0.951   2.228  -0.495  0.00  0.00    +0.111 C 
ATOM     35  C   UNL     1       2.218   3.058  -0.282  0.00  0.00    +0.027 C 
ATOM     36  C   UNL     1       3.004   2.494   0.904  0.00  0.00    +0.002 C 
ATOM     37  C   UNL     1       3.388   1.042   0.616  0.00  0.00    +0.000 C 
ATOM     38  C   UNL     1       2.121   0.211   0.403  0.00  0.00    +0.002 C 
ATOM     39  C   UNL     1       1.335   0.776  -0.783  0.00  0.00    +0.027 C 
ENDBRANCH  33  34
ENDBRANCH  28  29
ENDBRANCH   1  28
TORSDOF 7
