REMARK  Name = ZINC45739678
REMARK  7 active torsions:
REMARK  status: ('A' for Active; 'I' for Inactive)
REMARK    1  A    between atoms: C_1  and  C_2
REMARK    2  A    between atoms: C_9  and  C_12
REMARK    3  A    between atoms: C_12  and  O_14
REMARK    4  A    between atoms: O_14  and  C_15
REMARK    5  A    between atoms: C_15  and  C_16
REMARK    6  A    between atoms: N_22  and  C_23
REMARK    7  A    between atoms: N_22  and  C_24
REMARK                            x       y       z     vdW  Elec       q    Type
REMARK                         _______ _______ _______ _____ _____    ______ ____
ROOT
ATOM      1  O   UNL     1       0.337  -6.797   2.894  0.00  0.00    -0.456 OA
ENDROOT
BRANCH   1   2
ATOM      2  C   UNL     1      -0.214  -5.997   1.968  0.00  0.00    +0.321 C 
ATOM      3  O   UNL     1      -1.307  -6.255   1.521  0.00  0.00    -0.250 OA
BRANCH   2  12
ATOM      4  C   UNL     1      -0.018   1.503   0.010  0.00  0.00    +0.044 C 
ATOM      5  C   UNL     1       0.002  -0.004   0.002  0.00  0.00    -0.049 A 
ATOM      6  C   UNL     1       0.006  -0.699  -1.194  0.00  0.00    +0.004 A 
ATOM      7  C   UNL     1       0.017  -2.075  -1.211  0.00  0.00    +0.005 A 
ATOM      8  C   UNL     1       0.027  -2.812  -0.023  0.00  0.00    -0.032 A 
ATOM      9  C   UNL     1       0.038  -2.093   1.169  0.00  0.00    +0.012 A 
ATOM     10  C   UNL     1       0.023  -0.711   1.189  0.00  0.00    +0.018 A 
ATOM     11  S   UNL     1       0.100  -3.292   2.483  0.00  0.00    -0.110 S 
ATOM     12  C   UNL     1       0.529  -4.778   1.485  0.00  0.00    +0.164 C 
ATOM     13  C   UNL     1       0.017  -4.316   0.102  0.00  0.00    +0.062 C 
ENDBRANCH   2  12
ENDBRANCH   1   2
BRANCH   1  14
ATOM     14  C   UNL     1      -0.423  -7.934   3.305  0.00  0.00    +0.308 C 
BRANCH  14  15
ATOM     15  C   UNL     1       0.350  -8.708   4.342  0.00  0.00    +0.173 A 
ATOM     16  N   UNL     1       1.178  -9.667   3.966  0.00  0.00    -0.196 NA
ATOM     17  C   UNL     1       1.864 -10.352   4.879  0.00  0.00    +0.217 A 
ATOM     18  N   UNL     1       1.714 -10.070   6.169  0.00  0.00    -0.181 NA
ATOM     19  C   UNL     1       0.881  -9.106   6.542  0.00  0.00    +0.222 A 
ATOM     20  N   UNL     1       0.203  -8.422   5.623  0.00  0.00    -0.196 NA
ATOM     21  N   UNL     1       0.722  -8.810   7.881  0.00  0.00    -0.306 N 
ATOM     22  C   UNL     1       1.472  -9.560   8.891  0.00  0.00    +0.132 C 
ATOM     23  C   UNL     1      -0.198  -7.746   8.292  0.00  0.00    +0.132 C 
ATOM     24  N   UNL     1       2.728 -11.353   4.486  0.00  0.00    -0.327 N 
ATOM     25  H   UNL     1       2.836 -11.558   3.544  0.00  0.00    +0.145 HD
ATOM     26  H   UNL     1       3.227 -11.852   5.152  0.00  0.00    +0.145 HD
ENDBRANCH  14  15
ENDBRANCH   1  14
TORSDOF 4
