REMARK  Name = ZINC09096686
REMARK  7 active torsions:
REMARK  status: ('A' for Active; 'I' for Inactive)
REMARK    1  A    between atoms: C_1  and  O_2
REMARK    2  A    between atoms: O_2  and  C_3
REMARK    3  A    between atoms: C_6  and  N_9
REMARK    4  A    between atoms: C_15  and  C_17
REMARK    5  A    between atoms: C_17  and  C_18
REMARK    6  A    between atoms: N_25  and  S_26
REMARK    7  A    between atoms: S_26  and  C_29
REMARK                            x       y       z     vdW  Elec       q    Type
REMARK                         _______ _______ _______ _____ _____    ______ ____
ROOT
ATOM      1  C   UNL     1       1.452   9.072  -3.087  0.00  0.00    +0.174 C 
ATOM      2  C   UNL     1       1.687  10.284  -2.226  0.00  0.00    +0.232 C 
ATOM      3  O   UNL     1       2.053  10.119  -1.082  0.00  0.00    -0.274 OA
ATOM      4  N   UNL     1       1.510  11.531  -2.664  0.00  0.00    -0.313 N 
ATOM      5  C   UNL     1       0.990  11.880  -3.979  0.00  0.00    +0.121 C 
ATOM      6  C   UNL     1       1.179  10.723  -4.962  0.00  0.00    +0.129 C 
ATOM      7  N   UNL     1       0.735   9.483  -4.303  0.00  0.00    -0.163 NA
ATOM      8  H   UNL     1       1.745  12.257  -2.065  0.00  0.00    +0.149 HD
ENDROOT
BRANCH   7   9
ATOM      9  S   UNL     1      -0.521   8.589  -4.906  0.00  0.00    +0.062 S 
ATOM     10  O   UNL     1      -0.757   9.059  -6.226  0.00  0.00    -0.153 OA
ATOM     11  O   UNL     1      -0.223   7.228  -4.624  0.00  0.00    -0.153 OA
BRANCH   9  12
ATOM     12  C   UNL     1      -1.952   8.997  -3.962  0.00  0.00    +0.106 A 
ATOM     13  C   UNL     1      -2.259   8.274  -2.825  0.00  0.00    +0.030 A 
ATOM     14  C   UNL     1      -3.379   8.597  -2.081  0.00  0.00    +0.022 A 
ATOM     15  C   UNL     1      -4.198   9.638  -2.481  0.00  0.00    +0.041 A 
ATOM     16  C   UNL     1      -3.893  10.358  -3.623  0.00  0.00    +0.022 A 
ATOM     17  C   UNL     1      -2.770  10.037  -4.362  0.00  0.00    +0.030 A 
ATOM     18 CL   UNL     1      -5.607  10.041  -1.551  0.00  0.00    -0.084 Cl
ENDBRANCH   9  12
ENDBRANCH   7   9
BRANCH   1  19
ATOM     19  C   UNL     1       0.612   8.052  -2.316  0.00  0.00    +0.126 C 
BRANCH  19  26
ATOM     20  N   UNL     1      -0.162   4.536   1.129  0.00  0.00    -0.327 N 
ATOM     21  C   UNL     1      -0.809   4.959  -0.121  0.00  0.00    +0.124 C 
ATOM     22  C   UNL     1      -0.640   6.472  -0.292  0.00  0.00    +0.126 C 
ATOM     23  N   UNL     1       0.790   6.798  -0.192  0.00  0.00    -0.298 N 
ATOM     24  C   UNL     1       1.540   6.290   0.968  0.00  0.00    +0.126 C 
ATOM     25  C   UNL     1       1.285   4.784   1.090  0.00  0.00    +0.124 C 
ATOM     26  C   UNL     1       1.399   7.542  -1.136  0.00  0.00    +0.218 C 
ATOM     27  O   UNL     1       2.580   7.800  -1.037  0.00  0.00    -0.276 OA
BRANCH  20  31
ATOM     28  C   UNL     1      -0.972   0.530   1.948  0.00  0.00    +0.120 A 
ATOM     29  C   UNL     1      -2.016   1.423   1.755  0.00  0.00    +0.047 A 
ATOM     30  C   UNL     1      -1.748   2.750   1.484  0.00  0.00    +0.027 A 
ATOM     31  C   UNL     1      -0.434   3.191   1.404  0.00  0.00    +0.030 A 
ATOM     32  C   UNL     1       0.611   2.297   1.598  0.00  0.00    +0.027 A 
ATOM     33  C   UNL     1       0.341   0.970   1.869  0.00  0.00    +0.047 A 
BRANCH  28  35
ATOM     34  C   UNL     1      -0.113  -1.641   2.403  0.00  0.00    +0.277 C 
ATOM     35  O   UNL     1      -1.236  -0.777   2.215  0.00  0.00    -0.495 OA
ENDBRANCH  28  35
ENDBRANCH  20  31
ENDBRANCH  19  26
ENDBRANCH   1  19
TORSDOF 6
