REMARK  Name = ZINC00266467
REMARK  6 active torsions:
REMARK  status: ('A' for Active; 'I' for Inactive)
REMARK    1  A    between atoms: C_7  and  O_23
REMARK    2  A    between atoms: C_8  and  C_10
REMARK    3  A    between atoms: N_11  and  N_12
REMARK    4  A    between atoms: C_13  and  C_15
REMARK    5  A    between atoms: C_18  and  O_22
REMARK    6  A    between atoms: C_20  and  O_21
REMARK                            x       y       z     vdW  Elec       q    Type
REMARK                         _______ _______ _______ _____ _____    ______ ____
ROOT
ATOM      1  N   UNL     1       3.332   8.961   0.018  0.00  0.00    -0.203 N 
ATOM      2  C   UNL     1       4.635   9.304   0.007  0.00  0.00    +0.267 C 
ATOM      3  O   UNL     1       5.492   8.440  -0.006  0.00  0.00    -0.268 OA
ATOM      4  H   UNL     1       2.649   9.650   0.029  0.00  0.00    +0.178 HD
ENDROOT
BRANCH   2   5
ATOM      5  C   UNL     1       5.022  10.725   0.012  0.00  0.00    +0.080 A 
ATOM      6  C   UNL     1       4.040  11.720   0.027  0.00  0.00    +0.020 A 
ATOM      7  C   UNL     1       4.406  13.047   0.032  0.00  0.00    +0.046 A 
ATOM      8  C   UNL     1       5.751  13.403   0.022  0.00  0.00    +0.120 A 
ATOM      9  C   UNL     1       6.733  12.424   0.007  0.00  0.00    +0.091 A 
ATOM     10  C   UNL     1       6.378  11.086   0.007  0.00  0.00    +0.132 A 
BRANCH  10  11
ATOM     11  O   UNL     1       7.338  10.127  -0.003  0.00  0.00    -0.506 OA
ATOM     12  H   UNL     1       7.612   9.853  -0.889  0.00  0.00    +0.292 HD
ENDBRANCH  10  11
BRANCH   8  13
ATOM     13  O   UNL     1       6.103  14.713   0.027  0.00  0.00    -0.507 OA
ATOM     14  H   UNL     1       6.213  15.087   0.912  0.00  0.00    +0.292 HD
ENDBRANCH   8  13
ENDBRANCH   2   5
BRANCH   1  16
ATOM     15  C   UNL     1       1.705   7.277   0.024  0.00  0.00    +0.149 C 
ATOM     16  N   UNL     1       2.963   7.609   0.014  0.00  0.00    -0.187 NA
BRANCH  15  24
ATOM     17  C   UNL     1      -1.222   1.759   0.017  0.00  0.00    +0.001 A 
ATOM     18  C   UNL     1      -0.013   1.076   0.008  0.00  0.00    +0.001 A 
ATOM     19  C   UNL     1       1.171   1.787   0.001  0.00  0.00    +0.016 A 
ATOM     20  C   UNL     1       1.136   3.166   0.008  0.00  0.00    +0.024 A 
ATOM     21  C   UNL     1      -0.080   3.884   0.023  0.00  0.00    +0.031 A 
ATOM     22  C   UNL     1      -1.271   3.117   0.030  0.00  0.00    +0.012 A 
ATOM     23  C   UNL     1       0.066   5.331   0.029  0.00  0.00    +0.140 A 
ATOM     24  C   UNL     1       1.320   5.864   0.020  0.00  0.00    +0.074 A 
ATOM     25  S   UNL     1       2.379   4.431   0.003  0.00  0.00    -0.084 S 
BRANCH  23  26
ATOM     26  O   UNL     1      -1.029   6.137   0.043  0.00  0.00    -0.505 OA
ATOM     27  H   UNL     1      -1.338   6.366   0.930  0.00  0.00    +0.292 HD
ENDBRANCH  23  26
ENDBRANCH  15  24
ENDBRANCH   1  16
TORSDOF 6
