REMARK  Name = ZINC06554856
REMARK  9 active torsions:
REMARK  status: ('A' for Active; 'I' for Inactive)
REMARK    1  A    between atoms: C_1  and  C_2
REMARK    2  A    between atoms: C_2  and  C_3
REMARK    3  A    between atoms: C_3  and  C_5
REMARK    4  A    between atoms: C_3  and  N_6
REMARK    5  A    between atoms: C_9  and  C_10
REMARK    6  A    between atoms: N_11  and  C_12
REMARK    7  A    between atoms: C_13  and  C_25
REMARK    8  A    between atoms: N_14  and  C_24
REMARK    9  A    between atoms: N_15  and  C_18
REMARK                            x       y       z     vdW  Elec       q    Type
REMARK                         _______ _______ _______ _____ _____    ______ ____
ROOT
ATOM      1  C   UNL     1      -5.537   1.392   2.492  0.00  0.00    +0.130 C 
ATOM      2  N   UNL     1      -5.837   2.107   3.542  0.00  0.00    -0.247 NA
ENDROOT
BRANCH   1   6
ATOM      3  N   UNL     1      -3.103  -1.311   1.515  0.00  0.00    -0.285 N 
ATOM      4  C   UNL     1      -4.104  -0.414   1.397  0.00  0.00    +0.267 A 
ATOM      5  O   UNL     1      -4.701  -0.285   0.344  0.00  0.00    -0.267 OA
ATOM      6  C   UNL     1      -4.458   0.402   2.563  0.00  0.00    +0.122 A 
ATOM      7  C   UNL     1      -3.737   0.208   3.742  0.00  0.00    +0.264 A 
ATOM      8  O   UNL     1      -4.022   0.930   4.844  0.00  0.00    -0.267 OA
ATOM      9  N   UNL     1      -2.740  -0.726   3.764  0.00  0.00    -0.302 N 
ATOM     10  C   UNL     1      -2.447  -1.458   2.678  0.00  0.00    +0.164 A 
ATOM     11  S   UNL     1      -1.189  -2.616   2.777  0.00  0.00    -0.013 S 
ATOM     12  H   UNL     1      -2.237  -0.864   4.581  0.00  0.00    +0.171 HD
BRANCH   3  13
ATOM     13  C   UNL     1      -2.731  -2.137   0.364  0.00  0.00    +0.089 C 
ATOM     14  C   UNL     1      -2.285  -1.235  -0.789  0.00  0.00    +0.031 C 
BRANCH  13  16
ATOM     15  C   UNL     1      -4.369  -3.887   1.069  0.00  0.00    +0.006 C 
ATOM     16  C   UNL     1      -3.936  -2.970  -0.077  0.00  0.00    +0.021 C 
ENDBRANCH  13  16
ENDBRANCH   3  13
ENDBRANCH   1   6
BRANCH   2  17
ATOM     17  C   UNL     1      -6.846   3.033   3.476  0.00  0.00    +0.150 A 
ATOM     18  C   UNL     1      -7.264   3.851   4.482  0.00  0.00    +0.064 A 
ATOM     19  N   UNL     1      -8.289   4.624   4.016  0.00  0.00    -0.282 N 
ATOM     20  N   UNL     1      -8.543   4.302   2.679  0.00  0.00    -0.215 N 
ATOM     21  C   UNL     1      -7.679   3.336   2.304  0.00  0.00    +0.298 A 
ATOM     22  O   UNL     1      -7.605   2.815   1.206  0.00  0.00    -0.264 OA
ATOM     23  C   UNL     1      -9.010   5.633   4.796  0.00  0.00    +0.171 C 
ATOM     24  C   UNL     1      -6.691   3.895   5.875  0.00  0.00    +0.067 C 
BRANCH  20  25
ATOM     25  C   UNL     1      -9.522   4.885   1.868  0.00  0.00    +0.067 A 
ATOM     26  C   UNL     1     -10.374   4.083   1.119  0.00  0.00    +0.028 A 
ATOM     27  C   UNL     1     -11.339   4.663   0.319  0.00  0.00    +0.002 A 
ATOM     28  C   UNL     1     -11.458   6.039   0.263  0.00  0.00    +0.000 A 
ATOM     29  C   UNL     1     -10.612   6.840   1.007  0.00  0.00    +0.002 A 
ATOM     30  C   UNL     1      -9.648   6.267   1.814  0.00  0.00    +0.028 A 
ENDBRANCH  20  25
ENDBRANCH   2  17
TORSDOF 5
