REMARK  Name = ZINC09135747
REMARK  14 active torsions:
REMARK  status: ('A' for Active; 'I' for Inactive)
REMARK    1  A    between atoms: C_1  and  C_2
REMARK    2  A    between atoms: C_2  and  C_3
REMARK    3  A    between atoms: C_3  and  O_4
REMARK    4  A    between atoms: O_4  and  C_5
REMARK    5  A    between atoms: C_8  and  C_11
REMARK    6  A    between atoms: C_14  and  C_15
REMARK    7  A    between atoms: C_14  and  O_22
REMARK    8  A    between atoms: N_27  and  C_28
REMARK    9  A    between atoms: C_28  and  C_29
REMARK   10  A    between atoms: C_29  and  N_64
REMARK   11  A    between atoms: C_30  and  C_31
REMARK   12  A    between atoms: C_30  and  N_64
REMARK   13  A    between atoms: C_32  and  C_33
REMARK   14  A    between atoms: C_32  and  N_64
REMARK                            x       y       z     vdW  Elec       q    Type
REMARK                         _______ _______ _______ _____ _____    ______ ____
ROOT
ATOM      1  C   UNL     1       1.728   0.596  -0.539  0.00  0.00    +0.144 C 
ATOM      2  C   UNL     1       0.882  -0.635  -0.309  0.00  0.00    +0.071 C 
ATOM      3  C   UNL     1       1.327  -1.935  -0.182  0.00  0.00    +0.133 C 
ATOM      4  C   UNL     1      -0.448  -0.190  -0.251  0.00  0.00    +0.249 C 
ATOM      5  O   UNL     1      -1.429  -0.890  -0.077  0.00  0.00    -0.282 OA
ATOM      6  C   UNL     1      -0.452   1.286  -0.439  0.00  0.00    +0.288 C 
ATOM      7  O   UNL     1      -1.445   1.984  -0.446  0.00  0.00    -0.266 OA
ATOM      8  N   UNL     1       0.805   1.733  -0.604  0.00  0.00    -0.285 N 
ENDROOT
BRANCH   3   9
ATOM      9  C   UNL     1       0.378  -3.009   0.154  0.00  0.00    +0.017 A 
ATOM     10  C   UNL     1      -0.511  -2.852   1.223  0.00  0.00    +0.014 A 
ATOM     11  C   UNL     1      -1.401  -3.858   1.529  0.00  0.00    +0.039 A 
ATOM     12  C   UNL     1      -1.409  -5.030   0.787  0.00  0.00    +0.123 A 
ATOM     13  C   UNL     1      -0.526  -5.195  -0.271  0.00  0.00    +0.039 A 
ATOM     14  C   UNL     1       0.365  -4.194  -0.590  0.00  0.00    +0.014 A 
ATOM     15  F   UNL     1      -2.280  -6.016   1.096  0.00  0.00    -0.205 F 
ENDBRANCH   3   9
BRANCH   1  19
ATOM     16  C   UNL     1       3.866   0.234  -4.221  0.00  0.00    +0.121 A 
ATOM     17  C   UNL     1       4.512  -0.001  -3.016  0.00  0.00    +0.046 A 
ATOM     18  C   UNL     1       3.819   0.117  -1.827  0.00  0.00    +0.009 A 
ATOM     19  C   UNL     1       2.482   0.469  -1.838  0.00  0.00    -0.022 A 
ATOM     20  C   UNL     1       1.834   0.699  -3.037  0.00  0.00    +0.009 A 
ATOM     21  C   UNL     1       2.525   0.588  -4.229  0.00  0.00    +0.046 A 
BRANCH  16  22
ATOM     22  O   UNL     1       4.546   0.119  -5.392  0.00  0.00    -0.492 OA
BRANCH  22  23
ATOM     23  C   UNL     1       3.817   0.376  -6.594  0.00  0.00    +0.229 C 
BRANCH  23  25
ATOM     24  C   UNL     1       3.961   0.473  -9.086  0.00  0.00    +0.007 C 
ATOM     25  C   UNL     1       4.742   0.198  -7.800  0.00  0.00    +0.038 C 
ENDBRANCH  23  25
ENDBRANCH  22  23
ENDBRANCH  16  22
ENDBRANCH   1  19
BRANCH   3  26
ATOM     26  O   UNL     1       2.634  -2.223  -0.366  0.00  0.00    -0.506 OA
ATOM     27  H   UNL     1       2.781  -3.203  -0.237  0.00  0.00    +0.292 HD
ENDBRANCH   3  26
BRANCH   8  28
ATOM     28  C   UNL     1       1.190   3.131  -0.816  0.00  0.00    +0.090 C 
BRANCH  28  29
ATOM     29  C   UNL     1       1.448   3.799   0.536  0.00  0.00    -0.060 C 
BRANCH  29  30
ATOM     30  N   UNL     1       1.856   5.201   0.304  0.00  0.00    +0.380 N 
ATOM     31  H   UNL     1       2.627   5.216  -0.373  0.00  0.00    -0.082 HD
BRANCH  30  32
ATOM     32  C   UNL     1       0.720   5.973  -0.242  0.00  0.00    -0.082 C 
ATOM     33  C   UNL     1      -0.468   5.934   0.721  0.00  0.00    -0.017 C 
ENDBRANCH  30  32
BRANCH  30  34
ATOM     34  C   UNL     1       2.317   5.808   1.571  0.00  0.00    -0.082 C 
ATOM     35  C   UNL     1       2.936   7.174   1.266  0.00  0.00    -0.017 C 
ENDBRANCH  30  34
ENDBRANCH  29  30
ENDBRANCH  28  29
ENDBRANCH   8  28
TORSDOF 11
