REMARK  Name = ZINC54045414
REMARK  7 active torsions:
REMARK  status: ('A' for Active; 'I' for Inactive)
REMARK    1  A    between atoms: C_1  and  C_2
REMARK    2  A    between atoms: C_2  and  C_4
REMARK    3  A    between atoms: C_2  and  C_22
REMARK    4  A    between atoms: C_4  and  N_5
REMARK    5  A    between atoms: N_8  and  N_9
REMARK    6  A    between atoms: C_10  and  C_12
REMARK    7  A    between atoms: N_14  and  C_21
REMARK                            x       y       z     vdW  Elec       q    Type
REMARK                         _______ _______ _______ _____ _____    ______ ____
ROOT
ATOM      1  N   UNL     1      -0.008  -0.140   2.444  0.00  0.00    -0.298 N 
ATOM      2  C   UNL     1       0.457  -0.484   3.661  0.00  0.00    +0.316 C 
ATOM      3  O   UNL     1       1.499  -1.102   3.762  0.00  0.00    -0.251 OA
ATOM      4  N   UNL     1      -0.234  -0.143   4.767  0.00  0.00    -0.218 N 
ATOM      5  H   UNL     1      -0.840   0.353   2.364  0.00  0.00    +0.150 HD
ATOM      6  H   UNL     1       0.101  -0.391   5.644  0.00  0.00    +0.174 HD
ENDROOT
BRANCH   4   7
ATOM      7  N   UNL     1      -1.435   0.569   4.652  0.00  0.00    -0.229 N 
ATOM      8  C   UNL     1      -2.125   0.910   5.758  0.00  0.00    +0.262 C 
ATOM      9  O   UNL     1      -1.705   0.600   6.857  0.00  0.00    -0.269 OA
ATOM     10  H   UNL     1      -1.769   0.817   3.776  0.00  0.00    +0.173 HD
BRANCH   8  11
ATOM     11  C   UNL     1      -3.384   1.657   5.637  0.00  0.00    +0.063 A 
ATOM     12  C   UNL     1      -3.982   2.068   4.482  0.00  0.00    +0.099 A 
ATOM     13  N   UNL     1      -5.129   2.728   4.769  0.00  0.00    -0.349 N 
ATOM     14  C   UNL     1      -5.329   2.775   6.133  0.00  0.00    +0.050 A 
ATOM     15  C   UNL     1      -4.255   2.104   6.739  0.00  0.00    +0.012 A 
ATOM     16  C   UNL     1      -4.196   1.990   8.126  0.00  0.00    +0.011 A 
ATOM     17  C   UNL     1      -5.198   2.535   8.899  0.00  0.00    +0.001 A 
ATOM     18  C   UNL     1      -6.262   3.195   8.301  0.00  0.00    +0.002 A 
ATOM     19  C   UNL     1      -6.329   3.322   6.931  0.00  0.00    +0.026 A 
ATOM     20  C   UNL     1      -6.030   3.311   3.772  0.00  0.00    +0.149 C 
ENDBRANCH   8  11
ENDBRANCH   4   7
BRANCH   1  21
ATOM     21  C   UNL     1       0.742  -0.511   1.242  0.00  0.00    +0.113 C 
BRANCH  21  23
ATOM     22  C   UNL     1      -0.019   1.526   0.010  0.00  0.00    +0.014 C 
ATOM     23  C   UNL     1       0.002  -0.004   0.002  0.00  0.00    +0.033 C 
BRANCH  23  24
ATOM     24  C   UNL     1       0.707  -0.490  -1.238  0.00  0.00    -0.043 A 
ATOM     25  C   UNL     1       2.026  -0.142  -1.464  0.00  0.00    +0.004 A 
ATOM     26  C   UNL     1       2.673  -0.587  -2.602  0.00  0.00    +0.000 A 
ATOM     27  C   UNL     1       2.002  -1.382  -3.512  0.00  0.00    +0.000 A 
ATOM     28  C   UNL     1       0.684  -1.731  -3.285  0.00  0.00    +0.000 A 
ATOM     29  C   UNL     1       0.038  -1.289  -2.146  0.00  0.00    +0.004 A 
ENDBRANCH  23  24
ENDBRANCH  21  23
ENDBRANCH   1  21
TORSDOF 5
