REMARK  Name = ZINC05085842
REMARK  4 active torsions:
REMARK  status: ('A' for Active; 'I' for Inactive)
REMARK    1  A    between atoms: C_4  and  S_7
REMARK    2  A    between atoms: S_7  and  N_10
REMARK    3  A    between atoms: N_13  and  C_14
REMARK    4  A    between atoms: C_17  and  N_21
REMARK                            x       y       z     vdW  Elec       q    Type
REMARK                         _______ _______ _______ _____ _____    ______ ____
ROOT
ATOM      1  N   UNL     1       4.062  -0.718   1.667  0.00  0.00    -0.193 N 
ATOM      2  C   UNL     1       3.450  -1.694   2.415  0.00  0.00    +0.185 C 
ATOM      3  S   UNL     1       3.886  -1.910   4.108  0.00  0.00    -0.013 SA
ATOM      4  N   UNL     1       2.539  -2.467   1.867  0.00  0.00    -0.223 NA
ATOM      5  H   UNL     1       4.734  -0.147   2.071  0.00  0.00    +0.176 HD
ENDROOT
BRANCH   4   6
ATOM      6  C   UNL     1       1.839  -3.354   2.641  0.00  0.00    +0.085 A 
ATOM      7  C   UNL     1       1.202  -2.919   3.805  0.00  0.00    +0.031 A 
ATOM      8  C   UNL     1       0.498  -3.817   4.579  0.00  0.00    +0.035 A 
ATOM      9  C   UNL     1       0.422  -5.147   4.206  0.00  0.00    +0.128 A 
ATOM     10  C   UNL     1       1.050  -5.586   3.054  0.00  0.00    +0.054 A 
ATOM     11  C   UNL     1       1.753  -4.697   2.266  0.00  0.00    +0.069 A 
ATOM     12 CL   UNL     1       2.535  -5.247   0.818  0.00  0.00    -0.081 Cl
BRANCH   9  13
ATOM     13  N   UNL     1      -0.335  -6.106   5.043  0.00  0.00    +0.056 N 
ATOM     14  O   UNL     1      -0.885  -5.726   6.050  0.00  0.00    -0.126 OA
ATOM     15  O   UNL     1      -0.404  -7.269   4.719  0.00  0.00    -0.126 OA
ENDBRANCH   9  13
ENDBRANCH   4   6
BRANCH   1  16
ATOM     16  S   UNL     1       3.651  -0.515   0.075  0.00  0.00    +0.074 S 
ATOM     17  O   UNL     1       3.692  -1.803  -0.522  0.00  0.00    -0.150 OA
ATOM     18  O   UNL     1       4.427   0.574  -0.408  0.00  0.00    -0.150 OA
BRANCH  16  22
ATOM     19  C   UNL     1      -0.670   0.827  -0.035  0.00  0.00    +0.000 A 
ATOM     20  C   UNL     1       0.343   1.764   0.038  0.00  0.00    +0.002 A 
ATOM     21  C   UNL     1       1.662   1.355   0.072  0.00  0.00    +0.029 A 
ATOM     22  C   UNL     1       1.969   0.007   0.034  0.00  0.00    +0.109 A 
ATOM     23  C   UNL     1       0.956  -0.930  -0.038  0.00  0.00    +0.029 A 
ATOM     24  C   UNL     1      -0.364  -0.521  -0.073  0.00  0.00    +0.002 A 
ENDBRANCH  16  22
ENDBRANCH   1  16
TORSDOF 4
