REMARK  Name = ZINC12573577
REMARK  9 active torsions:
REMARK  status: ('A' for Active; 'I' for Inactive)
REMARK    1  A    between atoms: C_1  and  C_2
REMARK    2  A    between atoms: C_2  and  C_3
REMARK    3  A    between atoms: C_2  and  C_4
REMARK    4  A    between atoms: C_7  and  C_10
REMARK    5  A    between atoms: C_10  and  N_11
REMARK    6  A    between atoms: C_21  and  C_22
REMARK    7  A    between atoms: C_21  and  N_61
REMARK    8  A    between atoms: C_25  and  C_27
REMARK    9  A    between atoms: C_27  and  O_28
REMARK                            x       y       z     vdW  Elec       q    Type
REMARK                         _______ _______ _______ _____ _____    ______ ____
ROOT
ATOM      1  N   UNL     1      -2.992   4.114  -1.331  0.00  0.00    -0.297 N 
ATOM      2  C   UNL     1      -2.574   5.353  -1.973  0.00  0.00    +0.108 C 
ATOM      3  C   UNL     1      -2.679   5.233  -3.495  0.00  0.00    +0.020 C 
ATOM      4  C   UNL     1      -4.083   4.728  -3.850  0.00  0.00    +0.016 C 
ATOM      5  C   UNL     1      -4.225   3.297  -3.338  0.00  0.00    +0.031 C 
ATOM      6  C   UNL     1      -3.755   3.190  -1.920  0.00  0.00    +0.220 C 
ATOM      7  O   UNL     1      -4.083   2.216  -1.276  0.00  0.00    -0.275 OA
ATOM      8  C   UNL     1      -5.691   2.841  -3.451  0.00  0.00    -0.004 C 
ATOM      9  C   UNL     1      -5.659   1.636  -4.417  0.00  0.00    -0.077 C 
ATOM     10  C   UNL     1      -3.426   2.336  -4.238  0.00  0.00    -0.062 C 
ATOM     11  N   UNL     1      -4.285   1.148  -4.313  0.00  0.00    +0.385 N 
ATOM     12  H   UNL     1      -4.177   0.582  -3.463  0.00  0.00    -0.081 HD
ENDROOT
BRANCH   1  13
ATOM     13  C   UNL     1      -2.553   3.869   0.045  0.00  0.00    +0.142 C 
BRANCH  13  17
ATOM     14  C   UNL     1       1.175   1.783   0.000  0.00  0.00    -0.045 A 
ATOM     15  C   UNL     1      -0.013   1.076   0.008  0.00  0.00    +0.004 A 
ATOM     16  C   UNL     1      -1.219   1.751   0.017  0.00  0.00    +0.005 A 
ATOM     17  C   UNL     1      -1.238   3.133   0.030  0.00  0.00    -0.030 A 
ATOM     18  C   UNL     1      -0.050   3.840   0.022  0.00  0.00    +0.005 A 
ATOM     19  C   UNL     1       1.156   3.165   0.008  0.00  0.00    +0.004 A 
BRANCH  14  21
ATOM     20  C   UNL     1       3.275   1.435  -1.271  0.00  0.00    +0.012 C 
ATOM     21  C   UNL     1       2.490   1.048  -0.016  0.00  0.00    +0.013 C 
ATOM     22  C   UNL     1       3.299   1.421   1.228  0.00  0.00    +0.012 C 
ENDBRANCH  14  21
ENDBRANCH  13  17
ENDBRANCH   1  13
BRANCH  11  23
ATOM     23  C   UNL     1      -3.925   0.317  -5.505  0.00  0.00    -0.003 C 
BRANCH  23  24
ATOM     24  C   UNL     1      -4.705  -0.973  -5.486  0.00  0.00    +0.089 A 
ATOM     25  C   UNL     1      -5.917  -1.166  -6.035  0.00  0.00    +0.043 A 
ATOM     26  C   UNL     1      -6.271  -2.512  -5.783  0.00  0.00    +0.047 A 
ATOM     27  C   UNL     1      -5.253  -3.060  -5.095  0.00  0.00    +0.130 A 
ATOM     28  O   UNL     1      -4.304  -2.124  -4.923  0.00  0.00    -0.464 OA
BRANCH  27  29
ATOM     29  C   UNL     1      -5.184  -4.484  -4.607  0.00  0.00    +0.230 C 
BRANCH  29  30
ATOM     30  O   UNL     1      -4.580  -5.303  -5.610  0.00  0.00    -0.387 OA
ATOM     31  H   UNL     1      -4.503  -6.235  -5.363  0.00  0.00    +0.210 HD
ENDBRANCH  29  30
ENDBRANCH  27  29
ENDBRANCH  23  24
ENDBRANCH  11  23
TORSDOF 7
