REMARK  Name = ZINC21533881
REMARK  13 active torsions:
REMARK  status: ('A' for Active; 'I' for Inactive)
REMARK    1  A    between atoms: C_1  and  C_2
REMARK    2  A    between atoms: C_5  and  S_9
REMARK    3  A    between atoms: C_6  and  C_8
REMARK    4  A    between atoms: S_9  and  N_12
REMARK    5  A    between atoms: N_12  and  C_13
REMARK    6  A    between atoms: C_15  and  C_30
REMARK    7  A    between atoms: C_18  and  N_19
REMARK    8  A    between atoms: N_19  and  C_20
REMARK    9  A    between atoms: N_19  and  C_21
REMARK   10  A    between atoms: C_21  and  C_22
REMARK   11  A    between atoms: C_22  and  C_23
REMARK   12  A    between atoms: C_24  and  C_29
REMARK   13  A    between atoms: C_27  and  C_28
REMARK                            x       y       z     vdW  Elec       q    Type
REMARK                         _______ _______ _______ _____ _____    ______ ____
ROOT
ATOM      1  C   UNL     1       2.147  -5.093   1.753  0.00  0.00    +0.070 A 
ATOM      2  C   UNL     1       1.244  -5.187   2.794  0.00  0.00    +0.041 A 
ATOM      3  C   UNL     1       1.691  -5.080   4.116  0.00  0.00    +0.065 A 
ATOM      4  C   UNL     1       3.050  -4.878   4.378  0.00  0.00    +0.017 A 
ATOM      5  C   UNL     1       3.946  -4.785   3.337  0.00  0.00    +0.026 A 
ATOM      6  C   UNL     1       3.505  -4.897   2.023  0.00  0.00    +0.052 A 
ENDROOT
BRANCH   3   7
ATOM      7  C   UNL     1       0.733  -5.179   5.229  0.00  0.00    +0.387 C 
ATOM      8  O   UNL     1      -0.456  -5.356   4.998  0.00  0.00    -0.241 OA
ATOM      9  O   UNL     1       1.125  -5.085   6.384  0.00  0.00    -0.241 OA
ENDBRANCH   3   7
BRANCH   1  10
ATOM     10  N   UNL     1       1.704  -5.200   0.429  0.00  0.00    -0.214 N 
ATOM     11  H   UNL     1       2.261  -5.636  -0.235  0.00  0.00    +0.174 HD
BRANCH  10  12
ATOM     12  S   UNL     1       0.229  -4.584  -0.003  0.00  0.00    +0.073 S 
ATOM     13  O   UNL     1      -0.725  -5.153   0.884  0.00  0.00    -0.150 OA
ATOM     14  O   UNL     1       0.131  -4.716  -1.414  0.00  0.00    -0.150 OA
BRANCH  12  19
ATOM     15  C   UNL     1       0.358   1.333   1.171  0.00  0.00    +0.044 C 
ATOM     16  C   UNL     1       0.326  -0.145   0.878  0.00  0.00    -0.050 A 
ATOM     17  C   UNL     1      -0.525  -0.972   1.587  0.00  0.00    +0.005 A 
ATOM     18  C   UNL     1      -0.555  -2.327   1.318  0.00  0.00    +0.029 A 
ATOM     19  C   UNL     1       0.266  -2.856   0.339  0.00  0.00    +0.111 A 
ATOM     20  C   UNL     1       1.116  -2.029  -0.371  0.00  0.00    -0.024 A 
ATOM     21  C   UNL     1       1.143  -0.672  -0.105  0.00  0.00    +0.008 A 
ATOM     22  C   UNL     1       2.011  -2.605  -1.437  0.00  0.00    +0.046 C 
ENDBRANCH  12  19
ENDBRANCH  10  12
ENDBRANCH   1  10
BRANCH   6  23
ATOM     23  N   UNL     1       4.415  -4.808   0.974  0.00  0.00    -0.331 N 
ATOM     24  C   UNL     1       5.068  -6.017   0.466  0.00  0.00    +0.129 C 
BRANCH  23  25
ATOM     25  C   UNL     1       4.721  -3.505   0.378  0.00  0.00    +0.109 C 
BRANCH  25  26
ATOM     26  C   UNL     1       5.901  -2.870   1.118  0.00  0.00    +0.059 C 
BRANCH  26  27
ATOM     27  C   UNL     1       6.216  -1.530   0.505  0.00  0.00    +0.019 A 
ATOM     28  C   UNL     1       7.107  -1.297  -0.558  0.00  0.00    +0.084 A 
ATOM     29  N   UNL     1       7.113  -0.018  -0.807  0.00  0.00    -0.083 NA
ATOM     30  O   UNL     1       6.220   0.607   0.097  0.00  0.00    -0.359 OA
ATOM     31  C   UNL     1       5.689  -0.347   0.877  0.00  0.00    +0.138 A 
ATOM     32  C   UNL     1       4.682  -0.133   1.977  0.00  0.00    +0.089 C 
ATOM     33  C   UNL     1       7.913  -2.344  -1.282  0.00  0.00    +0.069 C 
ENDBRANCH  26  27
ENDBRANCH  25  26
ENDBRANCH  23  25
ENDBRANCH   6  23
TORSDOF 8
