REMARK  Name = ZINC21856565
REMARK  10 active torsions:
REMARK  status: ('A' for Active; 'I' for Inactive)
REMARK    1  A    between atoms: C_1  and  C_2
REMARK    2  A    between atoms: C_5  and  N_8
REMARK    3  A    between atoms: C_9  and  C_11
REMARK    4  A    between atoms: C_11  and  C_35
REMARK    5  A    between atoms: C_18  and  O_24
REMARK    6  A    between atoms: C_21  and  O_22
REMARK    7  A    between atoms: O_22  and  C_23
REMARK    8  A    between atoms: O_24  and  C_25
REMARK    9  A    between atoms: N_28  and  C_29
REMARK   10  A    between atoms: C_29  and  C_30
REMARK                            x       y       z     vdW  Elec       q    Type
REMARK                         _______ _______ _______ _____ _____    ______ ____
ROOT
ATOM      1  C   UNL     1      -3.152  -1.761   0.639  0.00  0.00    +0.129 C 
ATOM      2  C   UNL     1      -1.744  -1.804   0.047  0.00  0.00    +0.157 C 
ATOM      3  N   UNL     1      -1.189  -0.447   0.025  0.00  0.00    -0.331 N 
ATOM      4  C   UNL     1      -2.006   0.676  -0.105  0.00  0.00    +0.106 A 
ATOM      5  C   UNL     1      -1.241   1.784  -0.119  0.00  0.00    +0.044 A 
ATOM      6  C   UNL     1       0.110   1.373   0.009  0.00  0.00    +0.046 A 
ATOM      7  C   UNL     1       0.112  -0.034   0.106  0.00  0.00    +0.095 A 
ATOM      8  C   UNL     1       1.327  -0.707   0.253  0.00  0.00    +0.144 A 
ATOM      9  C   UNL     1       2.510   0.002   0.299  0.00  0.00    +0.051 A 
ATOM     10  C   UNL     1       2.512   1.387   0.200  0.00  0.00    +0.050 A 
ATOM     11  C   UNL     1       1.326   2.077   0.056  0.00  0.00    +0.129 A 
ATOM     12  C   UNL     1      -3.470   0.533  -0.188  0.00  0.00    +0.264 C 
ATOM     13  O   UNL     1      -4.191   1.471  -0.471  0.00  0.00    -0.268 OA
ATOM     14  N   UNL     1      -3.970  -0.699   0.067  0.00  0.00    -0.276 N 
ATOM     15  C   UNL     1      -3.046  -1.543   2.150  0.00  0.00    +0.043 C 
ENDROOT
BRANCH   1  17
ATOM     16  N   UNL     1      -4.265  -3.391  -0.852  0.00  0.00    -0.311 N 
ATOM     17  C   UNL     1      -3.828  -3.084   0.385  0.00  0.00    +0.238 C 
ATOM     18  O   UNL     1      -3.978  -3.873   1.294  0.00  0.00    -0.273 OA
ATOM     19  H   UNL     1      -4.053  -2.715  -1.693  0.00  0.00    +0.149 HD
BRANCH  16  24
ATOM     20  C   UNL     1      -3.178  -5.051  -4.967  0.00  0.00    +0.007 C 
ATOM     21  C   UNL     1      -4.057  -5.338  -3.748  0.00  0.00    -0.014 C 
ATOM     22  C   UNL     1      -5.027  -4.175  -3.534  0.00  0.00    +0.005 C 
ATOM     23  C   UNL     1      -5.907  -4.462  -2.315  0.00  0.00    +0.022 C 
ATOM     24  C   UNL     1      -5.023  -4.624  -1.076  0.00  0.00    +0.073 C 
ATOM     25  C   UNL     1      -4.053  -5.787  -1.290  0.00  0.00    +0.022 C 
ATOM     26  C   UNL     1      -3.174  -5.500  -2.509  0.00  0.00    +0.005 C 
ENDBRANCH  16  24
ENDBRANCH   1  17
BRANCH  11  27
ATOM     27  O   UNL     1       1.334   3.432  -0.042  0.00  0.00    -0.494 OA
ATOM     28  C   UNL     1       2.607   4.079   0.013  0.00  0.00    +0.277 C 
ENDBRANCH  11  27
BRANCH   8  29
ATOM     29  O   UNL     1       1.343  -2.064   0.351  0.00  0.00    -0.493 OA
ATOM     30  C   UNL     1       2.620  -2.688   0.500  0.00  0.00    +0.277 C 
ENDBRANCH   8  29
BRANCH  14  31
ATOM     31  C   UNL     1      -5.376  -0.973  -0.242  0.00  0.00    +0.151 C 
BRANCH  31  32
ATOM     32  C   UNL     1      -6.240  -0.523   0.908  0.00  0.00    +0.007 A 
ATOM     33  C   UNL     1      -6.818   0.685   1.119  0.00  0.00    +0.013 A 
ATOM     34  C   UNL     1      -7.579   0.874   2.258  0.00  0.00    +0.008 A 
ATOM     35  C   UNL     1      -7.723  -0.154   3.130  0.00  0.00    +0.045 A 
ATOM     36  S   UNL     1      -6.773  -1.444   2.341  0.00  0.00    -0.100 S 
ENDBRANCH  31  32
ENDBRANCH  14  31
TORSDOF 6
