REMARK  Name = ZINC60463222
REMARK  13 active torsions:
REMARK  status: ('A' for Active; 'I' for Inactive)
REMARK    1  A    between atoms: C_1  and  C_2
REMARK    2  A    between atoms: C_3  and  N_15
REMARK    3  A    between atoms: N_6  and  C_9
REMARK    4  A    between atoms: N_7  and  C_8
REMARK    5  A    between atoms: N_15  and  C_16
REMARK    6  A    between atoms: C_16  and  C_17
REMARK    7  A    between atoms: C_16  and  C_20
REMARK    8  A    between atoms: C_17  and  C_18
REMARK    9  A    between atoms: C_17  and  C_19
REMARK   10  A    between atoms: N_22  and  C_23
REMARK   11  A    between atoms: C_23  and  C_24
REMARK   12  A    between atoms: C_23  and  C_25
REMARK   13  A    between atoms: C_23  and  C_26
REMARK                            x       y       z     vdW  Elec       q    Type
REMARK                         _______ _______ _______ _____ _____    ______ ____
ROOT
ATOM      1  C   UNL     1      -0.756   1.405  -1.132  0.00  0.00    +0.067 C 
ATOM      2  C   UNL     1      -0.722  -0.101  -1.088  0.00  0.00    +0.059 A 
ATOM      3  C   UNL     1      -1.663  -0.898  -0.539  0.00  0.00    +0.116 A 
ATOM      4  C   UNL     1      -1.252  -2.245  -0.709  0.00  0.00    +0.293 A 
ATOM      5  O   UNL     1      -1.859  -3.233  -0.336  0.00  0.00    -0.264 OA
ATOM      6  N   UNL     1      -0.069  -2.235  -1.356  0.00  0.00    -0.216 N 
ATOM      7  N   UNL     1       0.271  -0.898  -1.604  0.00  0.00    -0.282 N 
ATOM      8  C   UNL     1       1.478  -0.432  -2.292  0.00  0.00    +0.171 C 
ENDROOT
BRANCH   6   9
ATOM      9  C   UNL     1       0.681  -3.357  -1.719  0.00  0.00    +0.067 A 
ATOM     10  C   UNL     1       2.050  -3.386  -1.484  0.00  0.00    +0.028 A 
ATOM     11  C   UNL     1       2.788  -4.496  -1.844  0.00  0.00    +0.002 A 
ATOM     12  C   UNL     1       2.166  -5.579  -2.438  0.00  0.00    +0.000 A 
ATOM     13  C   UNL     1       0.803  -5.553  -2.675  0.00  0.00    +0.002 A 
ATOM     14  C   UNL     1       0.059  -4.449  -2.312  0.00  0.00    +0.028 A 
ENDBRANCH   6   9
BRANCH   3  15
ATOM     15  N   UNL     1      -2.849  -0.466   0.092  0.00  0.00    -0.327 N 
ATOM     16  H   UNL     1      -3.050   0.481   0.150  0.00  0.00    +0.147 HD
BRANCH  15  17
ATOM     17  C   UNL     1      -3.776  -1.448   0.659  0.00  0.00    +0.159 C 
BRANCH  17  18
ATOM     18  C   UNL     1      -5.194  -1.005   0.407  0.00  0.00    +0.234 C 
ATOM     19  O   UNL     1      -5.423   0.144   0.094  0.00  0.00    -0.274 OA
ATOM     20  N   UNL     1      -6.208  -1.885   0.531  0.00  0.00    -0.309 N 
ATOM     21  H   UNL     1      -6.032  -2.785   0.846  0.00  0.00    +0.149 HD
BRANCH  20  22
ATOM     22  C   UNL     1      -7.574  -1.481   0.190  0.00  0.00    +0.026 C 
ATOM     23  C   UNL     1      -7.629  -1.057  -1.279  0.00  0.00    +0.031 C 
ATOM     24  C   UNL     1      -8.525  -2.657   0.417  0.00  0.00    +0.031 C 
ATOM     25  C   UNL     1      -7.995  -0.306   1.075  0.00  0.00    +0.031 C 
ENDBRANCH  20  22
ENDBRANCH  17  18
BRANCH  17  26
ATOM     26  C   UNL     1      -3.538  -1.564   2.166  0.00  0.00    +0.012 C 
ATOM     27  C   UNL     1      -2.131  -2.110   2.420  0.00  0.00    +0.009 C 
ATOM     28  C   UNL     1      -3.672  -0.183   2.811  0.00  0.00    +0.009 C 
ENDBRANCH  17  26
ENDBRANCH  15  17
ENDBRANCH   3  15
TORSDOF 6
