REMARK  Name = ZINC09338543
REMARK  9 active torsions:
REMARK  status: ('A' for Active; 'I' for Inactive)
REMARK    1  A    between atoms: C_1  and  C_2
REMARK    2  A    between atoms: C_6  and  C_9
REMARK    3  A    between atoms: C_7  and  O_8
REMARK    4  A    between atoms: C_9  and  O_11
REMARK    5  A    between atoms: O_11  and  C_12
REMARK    6  A    between atoms: C_12  and  C_13
REMARK    7  A    between atoms: C_13  and  C_15
REMARK    8  A    between atoms: C_15  and  C_26
REMARK    9  A    between atoms: N_24  and  C_25
REMARK                            x       y       z     vdW  Elec       q    Type
REMARK                         _______ _______ _______ _____ _____    ______ ____
ROOT
ATOM      1  C   UNL     1       3.663   6.607   0.002  0.00  0.00    +0.214 C 
ATOM      2  O   UNL     1       4.287   5.564  -0.010  0.00  0.00    -0.288 OA
ENDROOT
BRANCH   1   3
ATOM      3  C   UNL     1       2.258   6.584   0.015  0.00  0.00    +0.133 C 
ATOM      4  C   UNL     1       1.574   5.355   0.015  0.00  0.00    +0.116 C 
ATOM      5  N   UNL     1       2.160   4.130   0.003  0.00  0.00    -0.300 N 
ATOM      6  C   UNL     1       1.157   3.167   0.008  0.00  0.00    +0.054 A 
ATOM      7  C   UNL     1       1.175   1.779   0.000  0.00  0.00    +0.025 A 
ATOM      8  C   UNL     1      -0.013   1.076   0.008  0.00  0.00    +0.002 A 
ATOM      9  C   UNL     1      -1.223   1.749   0.017  0.00  0.00    +0.002 A 
ATOM     10  C   UNL     1      -1.252   3.129   0.030  0.00  0.00    +0.025 A 
ATOM     11  C   UNL     1      -0.064   3.846   0.022  0.00  0.00    +0.056 A 
ATOM     12  N   UNL     1       0.224   5.206   0.027  0.00  0.00    -0.289 N 
ATOM     13  C   UNL     1      -0.759   6.291   0.041  0.00  0.00    +0.137 C 
ATOM     14  H   UNL     1       3.114   3.956  -0.007  0.00  0.00    +0.153 HD
BRANCH   3  15
ATOM     15  C   UNL     1       1.522   7.813   0.029  0.00  0.00    +0.106 C 
ATOM     16  N   UNL     1       0.938   8.787   0.040  0.00  0.00    -0.191 NA
ENDBRANCH   3  15
ENDBRANCH   1   3
BRANCH   1  17
ATOM     17  C   UNL     1       4.395   7.924   0.003  0.00  0.00    +0.312 C 
BRANCH  17  18
ATOM     18  O   UNL     1       5.827   7.682  -0.012  0.00  0.00    -0.453 OA
BRANCH  18  19
ATOM     19  C   UNL     1       6.630   8.764  -0.014  0.00  0.00    +0.343 C 
ATOM     20  O   UNL     1       6.147   9.879  -0.003  0.00  0.00    -0.245 OA
BRANCH  19  26
ATOM     21  C   UNL     1      11.218  10.748  -0.046  0.00  0.00    +0.047 C 
ATOM     22  C   UNL     1      10.310   9.546  -0.043  0.00  0.00    -0.008 A 
ATOM     23  C   UNL     1      10.849   8.274  -0.055  0.00  0.00    +0.007 A 
ATOM     24  C   UNL     1      10.023   7.162  -0.054  0.00  0.00    +0.001 A 
ATOM     25  C   UNL     1       8.653   7.314  -0.035  0.00  0.00    +0.018 A 
ATOM     26  C   UNL     1       8.094   8.594  -0.028  0.00  0.00    +0.101 A 
ATOM     27  C   UNL     1       8.934   9.717  -0.030  0.00  0.00    +0.134 A 
BRANCH  27  28
ATOM     28  O   UNL     1       8.403  10.965  -0.018  0.00  0.00    -0.506 OA
ATOM     29  H   UNL     1       8.258  11.322   0.869  0.00  0.00    +0.292 HD
ENDBRANCH  27  28
ENDBRANCH  19  26
ENDBRANCH  18  19
ENDBRANCH  17  18
ENDBRANCH   1  17
TORSDOF 7
