REMARK  Name = ZINC35746964
REMARK  13 active torsions:
REMARK  status: ('A' for Active; 'I' for Inactive)
REMARK    1  A    between atoms: C_1  and  C_2
REMARK    2  A    between atoms: C_5  and  C_36
REMARK    3  A    between atoms: C_6  and  C_8
REMARK    4  A    between atoms: C_17  and  C_19
REMARK    5  A    between atoms: C_19  and  N_20
REMARK    6  A    between atoms: N_20  and  C_21
REMARK    7  A    between atoms: N_20  and  C_28
REMARK    8  A    between atoms: C_21  and  C_22
REMARK    9  A    between atoms: C_28  and  C_29
REMARK   10  A    between atoms: C_29  and  C_31
REMARK   11  A    between atoms: C_29  and  O_35
REMARK   12  A    between atoms: C_31  and  C_32
REMARK   13  A    between atoms: C_32  and  C_33
REMARK                            x       y       z     vdW  Elec       q    Type
REMARK                         _______ _______ _______ _____ _____    ______ ____
ROOT
ATOM      1  C   UNL     1       0.261  -2.264   3.325  0.00  0.00    +0.004 A 
ATOM      2  C   UNL     1      -0.786  -2.307   4.184  0.00  0.00    +0.056 A 
ATOM      3  S   UNL     1      -0.316  -3.574   5.346  0.00  0.00    -0.076 S 
ATOM      4  C   UNL     1       1.260  -4.012   4.659  0.00  0.00    +0.116 A 
ATOM      5  C   UNL     1       1.383  -3.170   3.542  0.00  0.00    +0.080 A 
ATOM      6  C   UNL     1       2.587  -3.318   2.782  0.00  0.00    +0.260 A 
ATOM      7  O   UNL     1       2.786  -2.628   1.797  0.00  0.00    -0.267 OA
ATOM      8  N   UNL     1       3.496  -4.231   3.173  0.00  0.00    -0.312 N 
ATOM      9  H   UNL     1       4.314  -4.335   2.662  0.00  0.00    +0.170 HD
ATOM     10  C   UNL     1       3.291  -5.007   4.267  0.00  0.00    +0.094 A 
ATOM     11  N   UNL     1       2.207  -4.888   4.986  0.00  0.00    -0.229 NA
ENDROOT
BRANCH   1  17
ATOM     12  C   UNL     1       0.330   2.418   1.595  0.00  0.00    +0.044 C 
ATOM     13  C   UNL     1       0.297   0.932   1.348  0.00  0.00    -0.050 A 
ATOM     14  C   UNL     1       0.267   0.449   0.052  0.00  0.00    +0.003 A 
ATOM     15  C   UNL     1       0.236  -0.914  -0.183  0.00  0.00    +0.004 A 
ATOM     16  C   UNL     1       0.234  -1.800   0.876  0.00  0.00    -0.043 A 
ATOM     17  C   UNL     1       0.264  -1.318   2.184  0.00  0.00    -0.013 A 
ATOM     18  C   UNL     1       0.301   0.057   2.414  0.00  0.00    +0.012 A 
ATOM     19  C   UNL     1       0.198  -3.284   0.619  0.00  0.00    +0.044 C 
ENDBRANCH   1  17
BRANCH  10  20
ATOM     20  C   UNL     1       4.337  -6.016   4.667  0.00  0.00    -0.003 C 
BRANCH  20  21
ATOM     21  N   UNL     1       3.894  -6.730   5.871  0.00  0.00    +0.389 N 
ATOM     22  H   UNL     1       3.680  -6.064   6.598  0.00  0.00    -0.081 HD
BRANCH  21  23
ATOM     23  C   UNL     1       2.694  -7.518   5.560  0.00  0.00    -0.042 C 
BRANCH  23  24
ATOM     24  C   UNL     1       3.012  -8.508   4.470  0.00  0.00    -0.064 A 
ATOM     25  C   UNL     1       2.861  -8.148   3.144  0.00  0.00    +0.002 A 
ATOM     26  C   UNL     1       3.153  -9.057   2.144  0.00  0.00    +0.000 A 
ATOM     27  C   UNL     1       3.595 -10.326   2.470  0.00  0.00    +0.000 A 
ATOM     28  C   UNL     1       3.746 -10.685   3.796  0.00  0.00    +0.000 A 
ATOM     29  C   UNL     1       3.459  -9.775   4.796  0.00  0.00    +0.002 A 
ENDBRANCH  23  24
ENDBRANCH  21  23
BRANCH  21  30
ATOM     30  C   UNL     1       4.963  -7.627   6.330  0.00  0.00    -0.046 C 
BRANCH  30  31
ATOM     31  C   UNL     1       4.557  -8.267   7.659  0.00  0.00    +0.098 C 
BRANCH  31  32
ATOM     32  O   UNL     1       4.378  -7.247   8.643  0.00  0.00    -0.394 OA
ATOM     33  H   UNL     1       5.171  -6.719   8.811  0.00  0.00    +0.210 HD
ENDBRANCH  31  32
BRANCH  31  34
ATOM     34  C   UNL     1       5.653  -9.231   8.117  0.00  0.00    +0.033 C 
BRANCH  34  35
ATOM     35  C   UNL     1       5.194  -9.964   9.379  0.00  0.00    +0.029 C 
BRANCH  35  36
ATOM     36  C   UNL     1       6.274 -10.913   9.830  0.00  0.00    -0.034 C 
ATOM     37  C   UNL     1       6.742 -10.840  11.051  0.00  0.00    +0.004 C 
ENDBRANCH  35  36
ENDBRANCH  34  35
ENDBRANCH  31  34
ENDBRANCH  30  31
ENDBRANCH  21  30
ENDBRANCH  20  21
ENDBRANCH  10  20
TORSDOF 11
