REMARK  Name = ZINC02272188
REMARK  5 active torsions:
REMARK  status: ('A' for Active; 'I' for Inactive)
REMARK    1  A    between atoms: C_3  and  C_10
REMARK    2  A    between atoms: C_5  and  N_7
REMARK    3  A    between atoms: CA_11  and  C_12
REMARK    4  A    between atoms: CA_11  and  N_14
REMARK    5  A    between atoms: C_15  and  C_17
REMARK                            x       y       z     vdW  Elec       q    Type
REMARK                         _______ _______ _______ _____ _____    ______ ____
ROOT
ATOM      1  C   UNL     1       2.443   1.056   0.088  0.00  0.00    +0.038 C 
ATOM      2  CA  UNL     1       1.287   1.742  -0.074  0.00  0.00    +0.124 C 
ENDROOT
BRANCH   1   5
ATOM      3  C   UNL     1       1.276  -2.454   0.705  0.00  0.00    +0.003 A 
ATOM      4  C   UNL     1       1.287  -1.077   0.637  0.00  0.00    +0.008 A 
ATOM      5  C   UNL     1       2.423  -0.412   0.164  0.00  0.00    -0.021 A 
ATOM      6  C   UNL     1       3.538  -1.153  -0.242  0.00  0.00    +0.040 A 
ATOM      7  C   UNL     1       3.514  -2.529  -0.163  0.00  0.00    +0.127 A 
ATOM      8  C   UNL     1       2.385  -3.179   0.306  0.00  0.00    +0.033 A 
BRANCH   7   9
ATOM      9  N   UNL     1       4.694  -3.314  -0.588  0.00  0.00    +0.056 N 
ATOM     10  O   UNL     1       4.673  -4.530  -0.524  0.00  0.00    -0.126 OA
ATOM     11  O   UNL     1       5.688  -2.744  -1.002  0.00  0.00    -0.126 OA
ENDBRANCH   7   9
ENDBRANCH   1   5
BRANCH   2  12
ATOM     12  N   UNL     1       0.095   1.053  -0.319  0.00  0.00    -0.273 N 
ATOM     13  C   UNL     1      -0.975   1.255   0.476  0.00  0.00    +0.284 C 
ATOM     14  O   UNL     1      -0.926   2.087   1.363  0.00  0.00    -0.266 OA
ATOM     15  H   UNL     1       0.036   0.433  -1.062  0.00  0.00    +0.155 HD
BRANCH  13  16
ATOM     16  C   UNL     1      -2.198   0.474   0.271  0.00  0.00    +0.191 A 
ATOM     17  C   UNL     1      -3.348   0.578   1.000  0.00  0.00    +0.056 A 
ATOM     18  C   UNL     1      -4.252  -0.350   0.463  0.00  0.00    +0.058 A 
ATOM     19  C   UNL     1      -3.622  -0.974  -0.560  0.00  0.00    +0.171 A 
ATOM     20  O   UNL     1      -2.386  -0.470  -0.675  0.00  0.00    -0.444 OA
ATOM     21 BR   UNL     1      -4.366  -2.328  -1.650  0.00  0.00    -0.008 Br
ENDBRANCH  13  16
ENDBRANCH   2  12
BRANCH   2  22
ATOM     22  C   UNL     1       1.284   3.208   0.006  0.00  0.00    +0.400 C 
ATOM     23  O   UNL     1       0.271   3.829  -0.249  0.00  0.00    -0.239 OA
ATOM     24  OXT UNL     1       2.406   3.866   0.363  0.00  0.00    -0.239 OA
ENDBRANCH   2  22
TORSDOF 5
