REMARK  Name = ZINC56718292
REMARK  10 active torsions:
REMARK  status: ('A' for Active; 'I' for Inactive)
REMARK    1  A    between atoms: C_1  and  C_2
REMARK    2  A    between atoms: C_2  and  N_3
REMARK    3  A    between atoms: C_4  and  C_6
REMARK    4  A    between atoms: C_9  and  N_13
REMARK    5  A    between atoms: C_10  and  C_12
REMARK    6  A    between atoms: N_16  and  C_17
REMARK    7  A    between atoms: N_16  and  C_19
REMARK    8  A    between atoms: C_17  and  C_18
REMARK    9  A    between atoms: C_19  and  C_21
REMARK   10  A    between atoms: C_19  and  C_22
REMARK                            x       y       z     vdW  Elec       q    Type
REMARK                         _______ _______ _______ _____ _____    ______ ____
ROOT
ATOM      1  N   UNL     1       3.233  -3.578  -6.167  0.00  0.00    -0.269 N 
ATOM      2  C   UNL     1       3.668  -2.721  -7.112  0.00  0.00    +0.307 C 
ATOM      3  O   UNL     1       3.385  -1.541  -7.040  0.00  0.00    -0.252 OA
ATOM      4  N   UNL     1       4.417  -3.173  -8.138  0.00  0.00    -0.276 N 
ATOM      5  H   UNL     1       3.515  -4.506  -6.186  0.00  0.00    +0.156 HD
ENDROOT
BRANCH   1   9
ATOM      6  C   UNL     1       0.679  -2.240  -3.161  0.00  0.00    +0.037 A 
ATOM      7  C   UNL     1       1.666  -1.391  -3.671  0.00  0.00    +0.015 A 
ATOM      8  C   UNL     1       2.508  -1.837  -4.664  0.00  0.00    +0.024 A 
ATOM      9  C   UNL     1       2.378  -3.130  -5.161  0.00  0.00    +0.038 A 
ATOM     10  C   UNL     1       1.397  -3.977  -4.656  0.00  0.00    -0.028 A 
ATOM     11  C   UNL     1       0.554  -3.540  -3.659  0.00  0.00    +0.018 A 
ATOM     12  C   UNL     1       1.259  -5.377  -5.198  0.00  0.00    +0.045 C 
BRANCH   6  14
ATOM     13  N   UNL     1      -0.105  -0.512  -1.617  0.00  0.00    -0.312 N 
ATOM     14  C   UNL     1      -0.226  -1.766  -2.096  0.00  0.00    +0.244 C 
ATOM     15  O   UNL     1      -1.081  -2.507  -1.650  0.00  0.00    -0.270 OA
ATOM     16  H   UNL     1       0.577   0.079  -1.973  0.00  0.00    +0.149 HD
BRANCH  13  18
ATOM     17  C   UNL     1      -0.655   1.404  -0.201  0.00  0.00    +0.024 C 
ATOM     18  C   UNL     1      -1.003  -0.042  -0.559  0.00  0.00    +0.101 C 
ENDBRANCH  13  18
ENDBRANCH   6  14
ENDBRANCH   1   9
BRANCH   4  19
ATOM     19  C   UNL     1       4.758  -4.595  -8.225  0.00  0.00    +0.107 C 
ATOM     20  C   UNL     1       3.734  -5.312  -9.106  0.00  0.00    +0.024 C 
ENDBRANCH   4  19
BRANCH   4  21
ATOM     21  C   UNL     1       4.890  -2.242  -9.165  0.00  0.00    +0.140 C 
ATOM     22  C   UNL     1       3.698  -1.486  -9.756  0.00  0.00    +0.036 C 
BRANCH  21  23
ATOM     23  C   UNL     1       5.853  -1.260  -8.549  0.00  0.00    +0.126 A 
ATOM     24  C   UNL     1       6.922  -0.742  -9.168  0.00  0.00    +0.055 A 
ATOM     25  C   UNL     1       7.561   0.157  -8.199  0.00  0.00    +0.020 A 
ATOM     26  C   UNL     1       8.687   0.977  -8.226  0.00  0.00    +0.011 A 
ATOM     27  C   UNL     1       9.020   1.709  -7.120  0.00  0.00    +0.001 A 
ATOM     28  C   UNL     1       8.243   1.639  -5.972  0.00  0.00    +0.004 A 
ATOM     29  C   UNL     1       7.125   0.833  -5.927  0.00  0.00    +0.047 A 
ATOM     30  C   UNL     1       6.770   0.082  -7.040  0.00  0.00    +0.135 A 
ATOM     31  O   UNL     1       5.759  -0.772  -7.299  0.00  0.00    -0.458 OA
ENDBRANCH  21  23
ENDBRANCH   4  21
TORSDOF 6
