REMARK  Name = ZINC43609487
REMARK  4 active torsions:
REMARK  status: ('A' for Active; 'I' for Inactive)
REMARK    1  A    between atoms: C_1  and  C_2
REMARK    2  A    between atoms: C_4  and  C_27
REMARK    3  A    between atoms: C_6  and  C_8
REMARK    4  A    between atoms: N_14  and  C_22
REMARK                            x       y       z     vdW  Elec       q    Type
REMARK                         _______ _______ _______ _____ _____    ______ ____
ROOT
ATOM      1  C   UNL     1       0.054  -2.844   2.489  0.00  0.00    -0.036 C 
ATOM      2  C   UNL     1      -1.360  -2.855   3.124  0.00  0.00    -0.007 C 
ATOM      3  C   UNL     1      -1.028  -3.081   4.620  0.00  0.00    +0.003 C 
ATOM      4  C   UNL     1      -2.040  -2.317   5.494  0.00  0.00    +0.110 C 
ATOM      5  N   UNL     1      -1.490  -0.969   5.674  0.00  0.00    -0.299 N 
ATOM      6  C   UNL     1      -0.190  -0.920   5.335  0.00  0.00    +0.206 C 
ATOM      7  O   UNL     1       0.516   0.060   5.440  0.00  0.00    -0.277 OA
ATOM      8  C   UNL     1       0.278  -2.270   4.803  0.00  0.00    +0.018 C 
ATOM      9  N   UNL     1       0.914  -2.156   3.476  0.00  0.00    +0.394 N 
ATOM     10  C   UNL     1       2.224  -2.842   3.540  0.00  0.00    -0.077 C 
ATOM     11  C   UNL     1       2.625  -2.792   5.036  0.00  0.00    -0.019 C 
ATOM     12  C   UNL     1       1.251  -2.989   5.740  0.00  0.00    -0.004 C 
ATOM     13  H   UNL     1       1.030  -1.186   3.225  0.00  0.00    -0.079 HD
ENDROOT
BRANCH   1  19
ATOM     14  C   UNL     1      -0.018   1.503   0.010  0.00  0.00    +0.044 C 
ATOM     15  C   UNL     1       0.002  -0.004   0.002  0.00  0.00    -0.050 A 
ATOM     16  C   UNL     1       0.006  -0.689  -1.199  0.00  0.00    +0.006 A 
ATOM     17  C   UNL     1       0.025  -2.071  -1.206  0.00  0.00    -0.050 A 
ATOM     18  C   UNL     1       0.040  -2.768  -0.013  0.00  0.00    +0.005 A 
ATOM     19  C   UNL     1       0.037  -2.084   1.188  0.00  0.00    -0.060 A 
ATOM     20  C   UNL     1       0.023  -0.702   1.195  0.00  0.00    +0.005 A 
ATOM     21  C   UNL     1       0.027  -2.817  -2.516  0.00  0.00    +0.044 C 
ENDBRANCH   1  19
BRANCH   5  22
ATOM     22  C   UNL     1      -2.260   0.178   6.161  0.00  0.00    +0.076 C 
ATOM     23  C   UNL     1      -2.208   1.325   5.131  0.00  0.00    +0.022 C 
ATOM     24  C   UNL     1      -2.137   2.609   5.995  0.00  0.00    +0.002 C 
ATOM     25  C   UNL     1      -1.221   2.181   7.168  0.00  0.00    +0.002 C 
ATOM     26  C   UNL     1      -1.632   0.722   7.456  0.00  0.00    +0.022 C 
ENDBRANCH   5  22
TORSDOF 2
