REMARK  Name = ZINC13598884
REMARK  10 active torsions:
REMARK  status: ('A' for Active; 'I' for Inactive)
REMARK    1  A    between atoms: C_1  and  C_2
REMARK    2  A    between atoms: C_2  and  C_3
REMARK    3  A    between atoms: C_3  and  O_4
REMARK    4  A    between atoms: O_4  and  C_5
REMARK    5  A    between atoms: C_8  and  C_11
REMARK    6  A    between atoms: N_12  and  N_13
REMARK    7  A    between atoms: C_14  and  C_16
REMARK    8  A    between atoms: C_16  and  N_17
REMARK    9  A    between atoms: N_20  and  S_23
REMARK   10  A    between atoms: S_23  and  C_26
REMARK                            x       y       z     vdW  Elec       q    Type
REMARK                         _______ _______ _______ _____ _____    ______ ____
ROOT
ATOM      1  C   UNL     1      -9.047  -8.573   0.052  0.00  0.00    +0.182 C 
ENDROOT
BRANCH   1   2
ATOM      2  N   UNL     1      -8.835 -10.027   0.048  0.00  0.00    -0.291 NA
ATOM      3  C   UNL     1      -8.210 -10.464  -1.207  0.00  0.00    +0.102 C 
ATOM      4  C   UNL     1      -7.841 -11.948  -1.100  0.00  0.00    +0.125 C 
ATOM      5  N   UNL     1      -9.042 -12.701  -0.708  0.00  0.00    -0.174 NA
ATOM      6  C   UNL     1      -9.802 -12.238   0.463  0.00  0.00    +0.125 C 
ATOM      7  C   UNL     1     -10.094 -10.743   0.294  0.00  0.00    +0.102 C 
BRANCH   5   8
ATOM      8  S   UNL     1      -9.526 -14.034  -1.563  0.00  0.00    +0.061 S 
ATOM      9  O   UNL     1     -10.919 -14.184  -1.327  0.00  0.00    -0.153 OA
ATOM     10  O   UNL     1      -8.984 -13.898  -2.869  0.00  0.00    -0.153 OA
BRANCH   8  11
ATOM     11  C   UNL     1      -8.739 -15.433  -0.835  0.00  0.00    +0.106 A 
ATOM     12  C   UNL     1      -7.497 -15.840  -1.287  0.00  0.00    +0.029 A 
ATOM     13  C   UNL     1      -6.880 -16.937  -0.716  0.00  0.00    +0.017 A 
ATOM     14  C   UNL     1      -7.503 -17.627   0.308  0.00  0.00    +0.018 A 
ATOM     15  C   UNL     1      -8.746 -17.219   0.760  0.00  0.00    +0.017 A 
ATOM     16  C   UNL     1      -9.360 -16.119   0.192  0.00  0.00    +0.029 A 
ATOM     17 BR   UNL     1      -6.659 -19.128   1.089  0.00  0.00    -0.050 Br
ENDBRANCH   8  11
ENDBRANCH   5   8
ENDBRANCH   1   2
BRANCH   1  19
ATOM     18  N   UNL     1      -7.662  -6.524   0.044  0.00  0.00    -0.206 N 
ATOM     19  C   UNL     1      -7.714  -7.871   0.043  0.00  0.00    +0.246 C 
ATOM     20  O   UNL     1      -6.688  -8.518   0.034  0.00  0.00    -0.273 OA
ATOM     21  H   UNL     1      -8.482  -6.007   0.051  0.00  0.00    +0.177 HD
BRANCH  18  23
ATOM     22  C   UNL     1      -6.372  -4.574   0.037  0.00  0.00    +0.138 C 
ATOM     23  N   UNL     1      -6.422  -5.871   0.036  0.00  0.00    -0.188 NA
BRANCH  22  27
ATOM     24  C   UNL     1      -2.616  -2.596   0.013  0.00  0.00    +0.121 A 
ATOM     25  C   UNL     1      -3.789  -1.853   0.022  0.00  0.00    +0.046 A 
ATOM     26  C   UNL     1      -5.011  -2.491   0.030  0.00  0.00    +0.013 A 
ATOM     27  C   UNL     1      -5.067  -3.887   0.029  0.00  0.00    -0.005 A 
ATOM     28  C   UNL     1      -3.884  -4.630   0.019  0.00  0.00    +0.013 A 
ATOM     29  C   UNL     1      -2.667  -3.984   0.006  0.00  0.00    +0.046 A 
BRANCH  24  30
ATOM     30  O   UNL     1      -1.414  -1.962   0.005  0.00  0.00    -0.492 OA
BRANCH  30  31
ATOM     31  C   UNL     1      -1.433  -0.534   0.013  0.00  0.00    +0.229 C 
BRANCH  31  33
ATOM     32  C   UNL     1      -0.019   1.526   0.010  0.00  0.00    +0.007 C 
ATOM     33  C   UNL     1       0.002  -0.004   0.002  0.00  0.00    +0.038 C 
ENDBRANCH  31  33
ENDBRANCH  30  31
ENDBRANCH  24  30
ENDBRANCH  22  27
ENDBRANCH  18  23
ENDBRANCH   1  19
TORSDOF 9
