REMARK  Name = ZINC04884837
REMARK  7 active torsions:
REMARK  status: ('A' for Active; 'I' for Inactive)
REMARK    1  A    between atoms: C_1  and  N_2
REMARK    2  A    between atoms: C_3  and  C_5
REMARK    3  A    between atoms: C_12  and  S_17
REMARK    4  A    between atoms: S_17  and  N_20
REMARK    5  A    between atoms: N_20  and  C_21
REMARK    6  A    between atoms: C_25  and  S_27
REMARK    7  A    between atoms: S_27  and  C_28
REMARK                            x       y       z     vdW  Elec       q    Type
REMARK                         _______ _______ _______ _____ _____    ______ ____
ROOT
ATOM      1  C   UNL     1      -1.444  -2.224  -0.778  0.00  0.00    +0.100 A 
ATOM      2  C   UNL     1      -2.586  -2.994  -0.857  0.00  0.00    +0.100 A 
ATOM      3  N   UNL     1      -2.546  -4.333  -0.842  0.00  0.00    -0.360 N 
ATOM      4  H   UNL     1      -3.382  -4.823  -0.901  0.00  0.00    +0.165 HD
ATOM      5  C   UNL     1      -1.370  -5.044  -0.749  0.00  0.00    +0.050 A 
ATOM      6  C   UNL     1      -1.384  -6.437  -0.739  0.00  0.00    +0.028 A 
ATOM      7  C   UNL     1      -0.201  -7.136  -0.645  0.00  0.00    +0.031 A 
ATOM      8  C   UNL     1       1.013  -6.468  -0.559  0.00  0.00    +0.109 A 
ATOM      9  C   UNL     1       1.050  -5.092  -0.567  0.00  0.00    +0.042 A 
ATOM     10  C   UNL     1      -0.140  -4.370  -0.662  0.00  0.00    +0.048 A 
ATOM     11  C   UNL     1      -0.139  -2.896  -0.680  0.00  0.00    +0.202 A 
ATOM     12  O   UNL     1       0.899  -2.260  -0.612  0.00  0.00    -0.286 OA
ENDROOT
BRANCH   1  15
ATOM     13  C   UNL     1      -0.489   1.442  -0.963  0.00  0.00    +0.128 C 
ATOM     14  N   UNL     1      -0.404  -0.015  -0.832  0.00  0.00    -0.314 N 
ATOM     15  C   UNL     1      -1.530  -0.755  -0.797  0.00  0.00    +0.249 C 
ATOM     16  O   UNL     1      -2.617  -0.209  -0.780  0.00  0.00    -0.270 OA
ATOM     17  H   UNL     1       0.462  -0.446  -0.772  0.00  0.00    +0.149 HD
ENDBRANCH   1  15
BRANCH   8  18
ATOM     18  S   UNL     1       2.512  -7.386  -0.440  0.00  0.00    +0.072 S 
ATOM     19  O   UNL     1       3.427  -6.576   0.286  0.00  0.00    -0.150 OA
ATOM     20  O   UNL     1       2.155  -8.695  -0.019  0.00  0.00    -0.150 OA
BRANCH  18  21
ATOM     21  N   UNL     1       3.121  -7.531  -1.973  0.00  0.00    -0.216 N 
ATOM     22  H   UNL     1       3.977  -7.132  -2.195  0.00  0.00    +0.174 HD
BRANCH  21  23
ATOM     23  C   UNL     1       2.402  -8.228  -2.947  0.00  0.00    +0.049 A 
ATOM     24  C   UNL     1       1.826  -9.456  -2.641  0.00  0.00    +0.024 A 
ATOM     25  C   UNL     1       1.116 -10.146  -3.603  0.00  0.00    +0.003 A 
ATOM     26  C   UNL     1       0.974  -9.620  -4.873  0.00  0.00    +0.015 A 
ATOM     27  C   UNL     1       1.547  -8.392  -5.186  0.00  0.00    +0.009 A 
ATOM     28  C   UNL     1       2.258  -7.693  -4.219  0.00  0.00    +0.039 A 
BRANCH  27  29
ATOM     29  S   UNL     1       1.366  -7.721  -6.805  0.00  0.00    -0.129 S 
ATOM     30  C   UNL     1       0.379  -8.962  -7.686  0.00  0.00    +0.090 C 
ENDBRANCH  27  29
ENDBRANCH  21  23
ENDBRANCH  18  21
ENDBRANCH   8  18
TORSDOF 5
