REMARK  Name = ZINC08962266
REMARK  5 active torsions:
REMARK  status: ('A' for Active; 'I' for Inactive)
REMARK    1  A    between atoms: C_1  and  C_2
REMARK    2  A    between atoms: C_2  and  C_23
REMARK    3  A    between atoms: C_8  and  N_14
REMARK    4  A    between atoms: N_14  and  S_15
REMARK    5  A    between atoms: S_15  and  C_18
REMARK                            x       y       z     vdW  Elec       q    Type
REMARK                         _______ _______ _______ _____ _____    ______ ____
ROOT
ATOM      1  C   UNL     1       1.199   2.901   1.199  0.00  0.00    +0.035 C 
ATOM      2  C   UNL     1       1.197   1.631   0.345  0.00  0.00    +0.063 C 
ATOM      3  C   UNL     1       1.650   1.977  -1.067  0.00  0.00    +0.254 C 
ATOM      4  O   UNL     1       0.629   2.645  -1.796  0.00  0.00    -0.489 OA
ATOM      5  C   UNL     1      -0.045   3.634  -1.155  0.00  0.00    +0.133 A 
ATOM      6  C   UNL     1       0.182   4.965  -1.460  0.00  0.00    +0.048 A 
ATOM      7  C   UNL     1      -0.509   5.955  -0.791  0.00  0.00    +0.028 A 
ATOM      8  C   UNL     1      -1.438   5.626   0.191  0.00  0.00    +0.049 A 
ATOM      9  C   UNL     1      -1.677   4.299   0.506  0.00  0.00    +0.041 A 
ATOM     10  C   UNL     1      -0.984   3.295  -0.168  0.00  0.00    +0.080 A 
ATOM     11  C   UNL     1      -1.218   1.870   0.131  0.00  0.00    +0.248 C 
ATOM     12  O   UNL     1      -2.350   1.431   0.199  0.00  0.00    -0.270 OA
ATOM     13  N   UNL     1      -0.151   1.060   0.333  0.00  0.00    -0.303 N 
ATOM     14  C   UNL     1       2.169   0.617   0.951  0.00  0.00    +0.035 C 
ATOM     15  H   UNL     1      -0.279   0.108   0.465  0.00  0.00    +0.150 HD
ENDROOT
BRANCH   8  16
ATOM     16  N   UNL     1      -2.131   6.639   0.864  0.00  0.00    -0.216 N 
ATOM     17  H   UNL     1      -1.903   6.857   1.781  0.00  0.00    +0.174 HD
BRANCH  16  18
ATOM     18  S   UNL     1      -3.342   7.466   0.093  0.00  0.00    +0.079 S 
ATOM     19  O   UNL     1      -3.892   8.363   1.048  0.00  0.00    -0.149 OA
ATOM     20  O   UNL     1      -2.807   7.907  -1.147  0.00  0.00    -0.149 OA
BRANCH  18  21
ATOM     21  C   UNL     1      -4.606   6.300  -0.290  0.00  0.00    +0.146 A 
ATOM     22  C   UNL     1      -5.617   5.849   0.493  0.00  0.00    +0.036 A 
ATOM     23  C   UNL     1      -6.503   4.923  -0.025  0.00  0.00    +0.010 A 
ATOM     24  C   UNL     1      -6.336   4.493  -1.299  0.00  0.00    +0.047 A 
ATOM     25  S   UNL     1      -4.893   5.412  -1.812  0.00  0.00    -0.077 S 
ENDBRANCH  18  21
ENDBRANCH  16  18
ENDBRANCH   8  16
TORSDOF 3
