REMARK  Name = ZINC06004148
REMARK  11 active torsions:
REMARK  status: ('A' for Active; 'I' for Inactive)
REMARK    1  A    between atoms: C_1  and  C_2
REMARK    2  A    between atoms: C_4  and  C_23
REMARK    3  A    between atoms: C_13  and  N_15
REMARK    4  A    between atoms: N_15  and  N_16
REMARK    5  A    between atoms: C_17  and  C_18
REMARK    6  A    between atoms: C_17  and  C_19
REMARK    7  A    between atoms: C_25  and  O_32
REMARK    8  A    between atoms: C_26  and  O_31
REMARK    9  A    between atoms: C_27  and  O_29
REMARK   10  A    between atoms: O_29  and  C_30
REMARK   11  A    between atoms: O_32  and  C_33
REMARK                            x       y       z     vdW  Elec       q    Type
REMARK                         _______ _______ _______ _____ _____    ______ ____
ROOT
ATOM      1  C   UNL     1      -0.230   0.866  -2.475  0.00  0.00    +0.014 C 
ATOM      2  C   UNL     1      -0.751   1.592  -1.234  0.00  0.00    +0.059 C 
ATOM      3  C   UNL     1      -0.013   1.086   0.008  0.00  0.00    +0.061 C 
ATOM      4  C   UNL     1      -0.717   1.571   1.250  0.00  0.00    +0.006 A 
ATOM      5  C   UNL     1      -0.029   1.548   2.455  0.00  0.00    +0.057 A 
ATOM      6  C   UNL     1      -0.641   1.981   3.618  0.00  0.00    +0.167 A 
ATOM      7  C   UNL     1      -1.955   2.443   3.578  0.00  0.00    +0.170 A 
ATOM      8  C   UNL     1      -2.638   2.467   2.375  0.00  0.00    +0.095 A 
ATOM      9  C   UNL     1      -2.019   2.032   1.208  0.00  0.00    +0.131 A 
ATOM     10  O   UNL     1      -2.725   2.076   0.047  0.00  0.00    -0.469 OA
ATOM     11  C   UNL     1      -2.247   1.304  -1.055  0.00  0.00    +0.279 C 
ATOM     12  O   UNL     1      -2.328   2.807   4.840  0.00  0.00    -0.452 OA
ATOM     13  C   UNL     1      -1.373   2.183   5.718  0.00  0.00    +0.466 C 
ATOM     14  O   UNL     1      -0.191   2.057   4.905  0.00  0.00    -0.453 OA
ENDROOT
BRANCH   3  15
ATOM     15  C   UNL     1       1.401   1.607  -0.003  0.00  0.00    -0.032 A 
ATOM     16  C   UNL     1       1.634   2.969  -0.003  0.00  0.00    +0.054 A 
ATOM     17  C   UNL     1       2.934   3.452  -0.007  0.00  0.00    +0.165 A 
ATOM     18  C   UNL     1       4.003   2.564  -0.023  0.00  0.00    +0.201 A 
ATOM     19  C   UNL     1       3.765   1.195  -0.028  0.00  0.00    +0.165 A 
ATOM     20  C   UNL     1       2.462   0.720  -0.018  0.00  0.00    +0.054 A 
BRANCH  19  21
ATOM     21  O   UNL     1       4.808   0.323  -0.043  0.00  0.00    -0.491 OA
ATOM     22  C   UNL     1       4.488  -1.070  -0.046  0.00  0.00    +0.277 C 
ENDBRANCH  19  21
BRANCH  18  23
ATOM     23  O   UNL     1       5.280   3.035  -0.033  0.00  0.00    -0.501 OA
ATOM     24  H   UNL     1       5.640   3.175  -0.920  0.00  0.00    +0.292 HD
ENDBRANCH  18  23
BRANCH  17  25
ATOM     25  O   UNL     1       3.162   4.793  -0.002  0.00  0.00    -0.491 OA
ATOM     26  C   UNL     1       2.016   5.646   0.014  0.00  0.00    +0.277 C 
ENDBRANCH  17  25
ENDBRANCH   3  15
BRANCH  11  27
ATOM     27  N   UNL     1      -2.446  -0.122  -0.781  0.00  0.00    -0.231 N 
ATOM     28  H   UNL     1      -1.759  -0.628  -0.320  0.00  0.00    +0.172 HD
BRANCH  27  29
ATOM     29  N   UNL     1      -3.629  -0.754  -1.186  0.00  0.00    -0.194 NA
ATOM     30  C   UNL     1      -3.803  -2.000  -0.947  0.00  0.00    +0.030 C 
ATOM     31  C   UNL     1      -2.735  -2.786  -0.231  0.00  0.00    +0.062 C 
ATOM     32  C   UNL     1      -5.075  -2.680  -1.382  0.00  0.00    +0.062 C 
ENDBRANCH  27  29
ENDBRANCH  11  27
TORSDOF 6
