REMARK  Name = ZINC34863170
REMARK  7 active torsions:
REMARK  status: ('A' for Active; 'I' for Inactive)
REMARK    1  A    between atoms: C_3  and  N_16
REMARK    2  A    between atoms: C_5  and  S_7
REMARK    3  A    between atoms: S_7  and  N_10
REMARK    4  A    between atoms: N_16  and  C_17
REMARK    5  A    between atoms: C_17  and  N_19
REMARK    6  A    between atoms: N_19  and  C_20
REMARK    7  A    between atoms: C_20  and  C_21
REMARK                            x       y       z     vdW  Elec       q    Type
REMARK                         _______ _______ _______ _____ _____    ______ ____
ROOT
ATOM      1  C   UNL     1      -0.005   1.375   0.260  0.00  0.00    +0.004 A 
ATOM      2  C   UNL     1       1.186   2.075   0.259  0.00  0.00    +0.023 A 
ATOM      3  C   UNL     1       2.376   1.417  -0.020  0.00  0.00    +0.034 A 
ATOM      4  C   UNL     1       2.366   0.056  -0.297  0.00  0.00    +0.052 A 
ATOM      5  C   UNL     1       1.172  -0.638  -0.295  0.00  0.00    +0.114 A 
ATOM      6  C   UNL     1      -0.012   0.020  -0.017  0.00  0.00    +0.029 A 
ENDROOT
BRANCH   5   7
ATOM      7  S   UNL     1       1.157  -2.365  -0.648  0.00  0.00    +0.100 S 
ATOM      8  O   UNL     1      -0.148  -2.672  -1.119  0.00  0.00    -0.146 OA
ATOM      9  O   UNL     1       2.326  -2.633  -1.411  0.00  0.00    -0.146 OA
BRANCH   7  10
ATOM     10  N   UNL     1       1.339  -3.160   0.793  0.00  0.00    -0.118 NA
ATOM     11  C   UNL     1       1.363  -4.453   0.819  0.00  0.00    +0.117 C 
ATOM     12  N   UNL     1       1.252  -5.268  -0.276  0.00  0.00    -0.331 N 
ATOM     13  C   UNL     1       1.798  -6.595   0.051  0.00  0.00    +0.103 C 
ATOM     14  C   UNL     1       1.535  -6.759   1.564  0.00  0.00    +0.026 C 
ATOM     15  C   UNL     1       1.523  -5.298   2.063  0.00  0.00    +0.074 C 
ATOM     16  H   UNL     1       0.875  -5.011  -1.132  0.00  0.00    +0.147 HD
ENDBRANCH   7  10
ENDBRANCH   5   7
BRANCH   3  17
ATOM     17  N   UNL     1       3.584   2.123  -0.021  0.00  0.00    -0.297 N 
ATOM     18  H   UNL     1       4.243   1.954  -0.712  0.00  0.00    +0.154 HD
BRANCH  17  19
ATOM     19  C   UNL     1       3.831   3.038   0.937  0.00  0.00    +0.135 C 
ATOM     20  S   UNL     1       2.732   3.236   2.235  0.00  0.00    -0.019 S 
BRANCH  19  21
ATOM     21  N   UNL     1       4.942   3.797   0.874  0.00  0.00    -0.322 N 
ATOM     22  H   UNL     1       5.565   3.686   0.138  0.00  0.00    +0.148 HD
BRANCH  21  23
ATOM     23  C   UNL     1       5.211   4.792   1.915  0.00  0.00    +0.138 C 
BRANCH  23  24
ATOM     24  C   UNL     1       6.506   5.500   1.612  0.00  0.00    -0.027 A 
ATOM     25  C   UNL     1       7.697   4.998   2.100  0.00  0.00    +0.009 A 
ATOM     26  C   UNL     1       8.888   5.644   1.824  0.00  0.00    +0.050 A 
ATOM     27  C   UNL     1       8.889   6.798   1.057  0.00  0.00    +0.166 A 
ATOM     28  C   UNL     1       7.689   7.304   0.565  0.00  0.00    +0.167 A 
ATOM     29  C   UNL     1       6.500   6.648   0.841  0.00  0.00    +0.054 A 
ATOM     30  O   UNL     1       7.953   8.435  -0.152  0.00  0.00    -0.453 OA
ATOM     31  C   UNL     1       9.275   8.842   0.246  0.00  0.00    +0.466 C 
ATOM     32  O   UNL     1       9.906   7.611   0.648  0.00  0.00    -0.453 OA
ENDBRANCH  23  24
ENDBRANCH  21  23
ENDBRANCH  19  21
ENDBRANCH  17  19
ENDBRANCH   3  17
TORSDOF 7
