REMARK  Name = ZINC22617178
REMARK  8 active torsions:
REMARK  status: ('A' for Active; 'I' for Inactive)
REMARK    1  A    between atoms: C_1  and  C_2
REMARK    2  A    between atoms: C_5  and  S_8
REMARK    3  A    between atoms: S_8  and  N_11
REMARK    4  A    between atoms: N_11  and  C_12
REMARK    5  A    between atoms: C_16  and  C_18
REMARK    6  A    between atoms: N_20  and  N_21
REMARK    7  A    between atoms: C_22  and  C_24
REMARK    8  A    between atoms: C_24  and  C_25
REMARK                            x       y       z     vdW  Elec       q    Type
REMARK                         _______ _______ _______ _____ _____    ______ ____
ROOT
ATOM      1  C   UNL     1       2.737   5.311   1.750  0.00  0.00    +0.260 C 
ATOM      2  O   UNL     1       1.845   5.641   2.507  0.00  0.00    -0.269 OA
ATOM      3  N   UNL     1       3.897   5.997   1.736  0.00  0.00    -0.230 N 
ATOM      4  H   UNL     1       4.704   5.699   1.050  0.00  0.00    +0.173 HD
ENDROOT
BRANCH   1   9
ATOM      5  C   UNL     1       1.180   2.367   0.004  0.00  0.00    +0.049 A 
ATOM      6  C   UNL     1       2.205   1.996  -0.860  0.00  0.00    +0.024 A 
ATOM      7  C   UNL     1       3.393   2.700  -0.872  0.00  0.00    +0.003 A 
ATOM      8  C   UNL     1       3.571   3.777  -0.027  0.00  0.00    +0.013 A 
ATOM      9  C   UNL     1       2.549   4.158   0.844  0.00  0.00    +0.040 A 
ATOM     10  C   UNL     1       1.347   3.450   0.853  0.00  0.00    +0.037 A 
BRANCH   5  11
ATOM     11  N   UNL     1      -0.020   1.652   0.011  0.00  0.00    -0.216 N 
ATOM     12  H   UNL     1      -0.980   2.189   0.023  0.00  0.00    +0.174 HD
BRANCH  11  13
ATOM     13  S   UNL     1       0.002  -0.004   0.002  0.00  0.00    +0.072 S 
ATOM     14  O   UNL     1      -1.353  -0.429   0.040  0.00  0.00    -0.150 OA
ATOM     15  O   UNL     1       0.893  -0.392  -1.034  0.00  0.00    -0.150 OA
BRANCH  13  20
ATOM     16  C   UNL     1       2.512  -1.784   5.192  0.00  0.00    +0.044 C 
ATOM     17  C   UNL     1       1.885  -1.339   3.896  0.00  0.00    -0.050 A 
ATOM     18  C   UNL     1       0.517  -1.152   3.818  0.00  0.00    +0.005 A 
ATOM     19  C   UNL     1      -0.058  -0.745   2.629  0.00  0.00    +0.029 A 
ATOM     20  C   UNL     1       0.735  -0.523   1.518  0.00  0.00    +0.109 A 
ATOM     21  C   UNL     1       2.102  -0.715   1.595  0.00  0.00    +0.029 A 
ATOM     22  C   UNL     1       2.677  -1.119   2.785  0.00  0.00    +0.005 A 
ENDBRANCH  13  20
ENDBRANCH  11  13
ENDBRANCH   5  11
ENDBRANCH   1   9
BRANCH   3  23
ATOM     23  N   UNL     1       4.075   7.090   2.594  0.00  0.00    -0.234 N 
ATOM     24  C   UNL     1       5.235   7.776   2.579  0.00  0.00    +0.230 C 
ATOM     25  O   UNL     1       6.125   7.447   1.824  0.00  0.00    -0.274 OA
ATOM     26  H   UNL     1       3.268   7.388   3.279  0.00  0.00    +0.173 HD
BRANCH  24  27
ATOM     27  C   UNL     1       5.427   8.952   3.503  0.00  0.00    +0.104 C 
BRANCH  27  28
ATOM     28  C   UNL     1       6.820   9.548   3.287  0.00  0.00    -0.020 C 
ATOM     29  C   UNL     1       7.880   8.486   3.586  0.00  0.00    +0.011 C 
ATOM     30  C   UNL     1       9.273   9.082   3.371  0.00  0.00    -0.010 C 
ATOM     31  C   UNL     1       9.467  10.276   4.308  0.00  0.00    +0.007 C 
ATOM     32  C   UNL     1       8.407  11.337   4.009  0.00  0.00    -0.010 C 
ATOM     33  C   UNL     1       7.014  10.741   4.224  0.00  0.00    +0.011 C 
ATOM     34  C   UNL     1       8.544  11.801   2.557  0.00  0.00    +0.007 C 
ATOM     35  C   UNL     1       8.350  10.607   1.620  0.00  0.00    -0.010 C 
ATOM     36  C   UNL     1       9.410   9.546   1.919  0.00  0.00    +0.007 C 
ATOM     37  C   UNL     1       6.957  10.011   1.836  0.00  0.00    +0.011 C 
ENDBRANCH  27  28
ENDBRANCH  24  27
ENDBRANCH   3  23
TORSDOF 7
