REMARK  Name = ZINC08645054
REMARK  9 active torsions:
REMARK  status: ('A' for Active; 'I' for Inactive)
REMARK    1  A    between atoms: C_1  and  C_2
REMARK    2  A    between atoms: C_2  and  C_4
REMARK    3  A    between atoms: C_2  and  N_11
REMARK    4  A    between atoms: C_12  and  C_14
REMARK    5  A    between atoms: C_14  and  C_16
REMARK    6  A    between atoms: C_14  and  S_17
REMARK    7  A    between atoms: S_17  and  C_18
REMARK    8  A    between atoms: C_21  and  C_24
REMARK    9  A    between atoms: N_22  and  N_23
REMARK                            x       y       z     vdW  Elec       q    Type
REMARK                         _______ _______ _______ _____ _____    ______ ____
ROOT
ATOM      1  S   UNL     1       1.000   3.730  -0.756  0.00  0.00    -0.072 S 
ENDROOT
BRANCH   1   2
ATOM      2  C   UNL     1       2.634   4.385  -0.700  0.00  0.00    +0.209 A 
ATOM      3  N   UNL     1       3.703   3.774  -0.240  0.00  0.00    -0.121 NA
ATOM      4  N   UNL     1       4.730   4.539  -0.349  0.00  0.00    -0.127 NA
ATOM      5  C   UNL     1       4.380   5.685  -0.885  0.00  0.00    +0.183 A 
ATOM      6  N   UNL     1       3.028   5.620  -1.131  0.00  0.00    -0.224 N 
BRANCH   5   7
ATOM      7  C   UNL     1       5.271   6.829  -1.175  0.00  0.00    +0.039 A 
ATOM      8  C   UNL     1       4.893   8.122  -0.810  0.00  0.00    +0.014 A 
ATOM      9  C   UNL     1       5.731   9.184  -1.077  0.00  0.00    +0.021 A 
ATOM     10  C   UNL     1       6.941   8.971  -1.718  0.00  0.00    +0.042 A 
ATOM     11  C   UNL     1       7.320   7.692  -2.087  0.00  0.00    +0.040 A 
ATOM     12  C   UNL     1       6.492   6.620  -1.820  0.00  0.00    +0.053 A 
ATOM     13 CL   UNL     1       6.968   5.016  -2.284  0.00  0.00    -0.083 Cl
ATOM     14 CL   UNL     1       7.987  10.315  -2.058  0.00  0.00    -0.083 Cl
ENDBRANCH   5   7
BRANCH   6  15
ATOM     15  N   UNL     1       2.242   6.588  -1.688  0.00  0.00    -0.295 N 
ATOM     16  H   UNL     1       1.932   7.248  -0.990  0.00  0.00    +0.163 HD
ATOM     17  H   UNL     1       2.725   7.057  -2.440  0.00  0.00    +0.163 HD
ENDBRANCH   6  15
ENDBRANCH   1   2
BRANCH   1  18
ATOM     18  C   UNL     1       1.290   2.096  -0.034  0.00  0.00    +0.137 C 
ATOM     19  C   UNL     1       1.728   2.254   1.424  0.00  0.00    +0.029 C 
BRANCH  18  21
ATOM     20  N   UNL     1       0.071  -0.056   0.003  0.00  0.00    -0.308 N 
ATOM     21  C   UNL     1       0.020   1.288  -0.091  0.00  0.00    +0.227 C 
ATOM     22  O   UNL     1      -1.048   1.846  -0.229  0.00  0.00    -0.275 OA
ATOM     23  H   UNL     1       0.925  -0.502   0.109  0.00  0.00    +0.149 HD
BRANCH  20  25
ATOM     24  C   UNL     1      -1.787  -0.913   1.343  0.00  0.00    +0.033 C 
ATOM     25  C   UNL     1      -1.164  -0.842  -0.053  0.00  0.00    +0.100 C 
BRANCH  25  26
ATOM     26  C   UNL     1      -0.852  -2.235  -0.536  0.00  0.00    -0.027 A 
ATOM     27  C   UNL     1       0.293  -2.876  -0.101  0.00  0.00    +0.008 A 
ATOM     28  C   UNL     1       0.578  -4.155  -0.539  0.00  0.00    +0.038 A 
ATOM     29  C   UNL     1      -0.278  -4.791  -1.422  0.00  0.00    +0.123 A 
ATOM     30  C   UNL     1      -1.422  -4.145  -1.861  0.00  0.00    +0.038 A 
ATOM     31  C   UNL     1      -1.708  -2.868  -1.418  0.00  0.00    +0.008 A 
ATOM     32  F   UNL     1       0.002  -6.039  -1.856  0.00  0.00    -0.205 F 
ENDBRANCH  25  26
ENDBRANCH  20  25
ENDBRANCH  18  21
ENDBRANCH   1  18
TORSDOF 7
