REMARK  Name = ZINC15384670
REMARK  6 active torsions:
REMARK  status: ('A' for Active; 'I' for Inactive)
REMARK    1  A    between atoms: C_1  and  C_2
REMARK    2  A    between atoms: C_2  and  C_4
REMARK    3  A    between atoms: C_2  and  O_21
REMARK    4  A    between atoms: N_6  and  N_7
REMARK    5  A    between atoms: C_8  and  C_10
REMARK    6  A    between atoms: O_21  and  C_22
REMARK                            x       y       z     vdW  Elec       q    Type
REMARK                         _______ _______ _______ _____ _____    ______ ____
ROOT
ATOM      1  N   UNL     1       0.025   1.379  -0.518  0.00  0.00    -0.228 N 
ATOM      2  C   UNL     1      -1.141   2.054  -0.549  0.00  0.00    +0.296 C 
ATOM      3  O   UNL     1      -2.189   1.464  -0.377  0.00  0.00    -0.265 OA
ATOM      4  H   UNL     1       0.861   1.850  -0.659  0.00  0.00    +0.173 HD
ENDROOT
BRANCH   2   5
ATOM      5  C   UNL     1      -1.146   3.516  -0.793  0.00  0.00    +0.195 A 
ATOM      6  C   UNL     1      -2.333   4.168  -0.818  0.00  0.00    +0.103 A 
ATOM      7  C   UNL     1      -2.339   5.618  -1.060  0.00  0.00    +0.193 A 
ATOM      8  O   UNL     1      -3.377   6.256  -1.093  0.00  0.00    -0.287 OA
ATOM      9  C   UNL     1      -1.028   6.265  -1.260  0.00  0.00    +0.064 A 
ATOM     10  C   UNL     1      -0.923   7.635  -1.497  0.00  0.00    +0.015 A 
ATOM     11  C   UNL     1       0.309   8.199  -1.677  0.00  0.00    +0.001 A 
ATOM     12  C   UNL     1       1.454   7.416  -1.627  0.00  0.00    +0.004 A 
ATOM     13  C   UNL     1       1.370   6.060  -1.395  0.00  0.00    +0.047 A 
ATOM     14  C   UNL     1       0.127   5.465  -1.208  0.00  0.00    +0.139 A 
ATOM     15  O   UNL     1       0.026   4.142  -0.974  0.00  0.00    -0.450 OA
ENDBRANCH   2   5
BRANCH   1  18
ATOM     16  C   UNL     1       1.195  -0.678  -0.262  0.00  0.00    +0.270 C 
ATOM     17  O   UNL     1       2.241  -0.090  -0.439  0.00  0.00    -0.270 OA
ATOM     18  N   UNL     1       0.029  -0.003  -0.288  0.00  0.00    -0.231 N 
ATOM     19  H   UNL     1      -0.807  -0.473  -0.146  0.00  0.00    +0.173 HD
BRANCH  16  21
ATOM     20  C   UNL     1       0.497  -2.877  -1.172  0.00  0.00    +0.062 C 
ATOM     21  C   UNL     1       1.200  -2.164  -0.014  0.00  0.00    +0.257 C 
BRANCH  21  22
ATOM     22  O   UNL     1       2.548  -2.627   0.081  0.00  0.00    -0.480 OA
BRANCH  22  23
ATOM     23  C   UNL     1       2.760  -3.770   0.787  0.00  0.00    +0.122 A 
ATOM     24  C   UNL     1       1.683  -4.488   1.286  0.00  0.00    +0.048 A 
ATOM     25  C   UNL     1       1.900  -5.652   1.997  0.00  0.00    +0.042 A 
ATOM     26  C   UNL     1       3.192  -6.095   2.223  0.00  0.00    +0.124 A 
ATOM     27  C   UNL     1       4.268  -5.377   1.732  0.00  0.00    +0.042 A 
ATOM     28  C   UNL     1       4.054  -4.215   1.014  0.00  0.00    +0.048 A 
ATOM     29  F   UNL     1       3.402  -7.231   2.924  0.00  0.00    -0.205 F 
ENDBRANCH  22  23
ENDBRANCH  21  22
ENDBRANCH  16  21
ENDBRANCH   1  18
TORSDOF 5
