REMARK  Name = ZINC13494885
REMARK  11 active torsions:
REMARK  status: ('A' for Active; 'I' for Inactive)
REMARK    1  A    between atoms: C_1  and  C_2
REMARK    2  A    between atoms: C_2  and  C_3
REMARK    3  A    between atoms: C_3  and  C_5
REMARK    4  A    between atoms: C_3  and  N_17
REMARK    5  A    between atoms: N_9  and  C_10
REMARK    6  A    between atoms: C_10  and  C_11
REMARK    7  A    between atoms: N_17  and  C_18
REMARK    8  A    between atoms: N_17  and  C_26
REMARK    9  A    between atoms: C_18  and  C_19
REMARK   10  A    between atoms: C_22  and  C_25
REMARK   11  A    between atoms: C_26  and  C_27
REMARK                            x       y       z     vdW  Elec       q    Type
REMARK                         _______ _______ _______ _____ _____    ______ ____
ROOT
ATOM      1  N   UNL     1       2.237  -0.256   1.097  0.00  0.00    -0.284 NA
ENDROOT
BRANCH   1   2
ATOM      2  C   UNL     1       0.869  -0.608   1.501  0.00  0.00    +0.127 C 
BRANCH   2   3
ATOM      3  C   UNL     1       0.705  -0.368   2.980  0.00  0.00    +0.169 A 
ATOM      4  N   UNL     1       1.548  -0.706   3.925  0.00  0.00    -0.112 NA
ATOM      5  N   UNL     1       1.051  -0.331   5.053  0.00  0.00    -0.023 NA
ATOM      6  N   UNL     1      -0.087   0.237   4.852  0.00  0.00    -0.044 NA
ATOM      7  N   UNL     1      -0.333   0.238   3.585  0.00  0.00    -0.223 N 
BRANCH   7   8
ATOM      8  C   UNL     1      -1.520   0.792   2.930  0.00  0.00    +0.182 C 
BRANCH   8   9
ATOM      9  C   UNL     1      -2.584  -0.271   2.835  0.00  0.00    -0.026 A 
ATOM     10  C   UNL     1      -2.637  -1.098   1.730  0.00  0.00    +0.005 A 
ATOM     11  C   UNL     1      -3.613  -2.073   1.643  0.00  0.00    +0.000 A 
ATOM     12  C   UNL     1      -4.535  -2.221   2.662  0.00  0.00    +0.000 A 
ATOM     13  C   UNL     1      -4.481  -1.394   3.768  0.00  0.00    +0.000 A 
ATOM     14  C   UNL     1      -3.503  -0.422   3.857  0.00  0.00    +0.005 A 
ENDBRANCH   8   9
ENDBRANCH   7   8
ENDBRANCH   2   3
BRANCH   2  16
ATOM     15  C   UNL     1       0.660  -2.303  -0.322  0.00  0.00    +0.006 C 
ATOM     16  C   UNL     1       0.609  -2.083   1.191  0.00  0.00    +0.023 C 
ENDBRANCH   2  16
ENDBRANCH   1   2
BRANCH   1  17
ATOM     17  C   UNL     1       3.227  -0.947   1.934  0.00  0.00    +0.120 C 
BRANCH  17  18
ATOM     18  C   UNL     1       4.575  -0.897   1.262  0.00  0.00    -0.033 A 
ATOM     19  C   UNL     1       4.904  -1.836   0.302  0.00  0.00    +0.005 A 
ATOM     20  C   UNL     1       6.141  -1.790  -0.314  0.00  0.00    +0.003 A 
ATOM     21  C   UNL     1       7.048  -0.806   0.030  0.00  0.00    -0.050 A 
ATOM     22  C   UNL     1       6.719   0.133   0.990  0.00  0.00    +0.003 A 
ATOM     23  C   UNL     1       5.481   0.090   1.603  0.00  0.00    +0.005 A 
ATOM     24  C   UNL     1       8.397  -0.756  -0.641  0.00  0.00    +0.044 C 
ENDBRANCH  17  18
ENDBRANCH   1  17
BRANCH   1  25
ATOM     25  C   UNL     1       2.440   1.198   1.134  0.00  0.00    +0.126 C 
BRANCH  25  26
ATOM     26  C   UNL     1       1.780   1.828  -0.066  0.00  0.00    +0.031 A 
ATOM     27  C   UNL     1       0.542   2.372   0.052  0.00  0.00    +0.020 A 
ATOM     28  C   UNL     1      -0.071   2.976  -1.131  0.00  0.00    +0.003 A 
ATOM     29  C   UNL     1      -1.347   3.551  -1.068  0.00  0.00    +0.059 A 
ATOM     30  C   UNL     1      -1.900   4.111  -2.199  0.00  0.00    +0.167 A 
ATOM     31  C   UNL     1      -1.191   4.107  -3.407  0.00  0.00    +0.168 A 
ATOM     32  C   UNL     1       0.069   3.542  -3.477  0.00  0.00    +0.075 A 
ATOM     33  C   UNL     1       0.640   2.973  -2.346  0.00  0.00    +0.053 A 
ATOM     34  N   UNL     1       1.896   2.403  -2.398  0.00  0.00    -0.322 N 
ATOM     35  H   UNL     1       2.386   2.402  -3.235  0.00  0.00    +0.169 HD
ATOM     36  C   UNL     1       2.453   1.855  -1.304  0.00  0.00    +0.254 A 
ATOM     37  O   UNL     1       3.566   1.364  -1.386  0.00  0.00    -0.268 OA
ATOM     38  O   UNL     1      -1.955   4.718  -4.358  0.00  0.00    -0.453 OA
ATOM     39  C   UNL     1      -3.294   4.726  -3.831  0.00  0.00    +0.466 C 
ATOM     40  O   UNL     1      -3.103   4.723  -2.404  0.00  0.00    -0.453 OA
ENDBRANCH  25  26
ENDBRANCH   1  25
TORSDOF 9
