REMARK  Name = ZINC40645205
REMARK  8 active torsions:
REMARK  status: ('A' for Active; 'I' for Inactive)
REMARK    1  A    between atoms: C_1  and  C_2
REMARK    2  A    between atoms: C_13  and  N_29
REMARK    3  A    between atoms: C_14  and  N_18
REMARK    4  A    between atoms: N_18  and  C_19
REMARK    5  A    between atoms: C_21  and  C_27
REMARK    6  A    between atoms: C_21  and  C_28
REMARK    7  A    between atoms: C_23  and  C_25
REMARK    8  A    between atoms: C_23  and  C_26
REMARK                            x       y       z     vdW  Elec       q    Type
REMARK                         _______ _______ _______ _____ _____    ______ ____
ROOT
ATOM      1  C   UNL     1      -0.346   1.371  -0.049  0.00  0.00    +0.046 C 
ATOM      2  C   UNL     1      -0.423  -0.134  -0.065  0.00  0.00    -0.024 A 
ATOM      3  C   UNL     1      -0.498  -0.796  -1.262  0.00  0.00    +0.005 A 
ATOM      4  C   UNL     1      -0.571  -2.180  -1.322  0.00  0.00    +0.001 A 
ATOM      5  C   UNL     1      -0.568  -2.910  -0.146  0.00  0.00    +0.017 A 
ATOM      6  C   UNL     1      -0.493  -2.255   1.057  0.00  0.00    +0.041 A 
ATOM      7  C   UNL     1      -0.412  -0.847   1.156  0.00  0.00    +0.083 A 
ATOM      8  N   UNL     1      -0.337  -0.352   2.411  0.00  0.00    -0.224 NA
ATOM      9  C   UNL     1      -0.335  -1.123   3.474  0.00  0.00    +0.165 A 
ATOM     10  S   UNL     1      -0.459  -2.757   2.761  0.00  0.00    -0.052 S 
ATOM     11  N   UNL     1      -0.265  -0.761   4.807  0.00  0.00    -0.277 N 
ATOM     12  C   UNL     1      -0.276  -1.739   5.793  0.00  0.00    +0.160 A 
ATOM     13  C   UNL     1      -0.212  -1.386   7.137  0.00  0.00    +0.205 A 
ATOM     14  C   UNL     1      -0.226  -2.403   8.087  0.00  0.00    +0.155 A 
ATOM     15  N   UNL     1      -0.301  -3.669   7.678  0.00  0.00    -0.218 NA
ATOM     16  C   UNL     1      -0.360  -3.962   6.395  0.00  0.00    +0.225 A 
ATOM     17  N   UNL     1      -0.355  -3.027   5.466  0.00  0.00    -0.218 NA
ATOM     18  H   UNL     1      -0.207   0.175   5.053  0.00  0.00    +0.156 HD
ENDROOT
BRANCH  13  19
ATOM     19  N   UNL     1      -0.129   0.034   7.546  0.00  0.00    +0.063 N 
ATOM     20  O   UNL     1      -1.141   0.664   7.751  0.00  0.00    -0.126 OA
ATOM     21  O   UNL     1       0.950   0.564   7.676  0.00  0.00    -0.126 OA
ENDBRANCH  13  19
BRANCH  14  22
ATOM     22  N   UNL     1      -0.163  -2.104   9.439  0.00  0.00    -0.324 N 
ATOM     23  H   UNL     1      -0.109  -1.180   9.729  0.00  0.00    +0.148 HD
BRANCH  22  24
ATOM     24  C   UNL     1      -0.179  -3.186  10.432  0.00  0.00    +0.069 C 
ATOM     25  C   UNL     1      -1.630  -3.542  10.763  0.00  0.00    +0.009 C 
ATOM     26  C   UNL     1      -1.663  -4.659  11.805  0.00  0.00    -0.072 C 
ATOM     27  N   UNL     1      -0.886  -4.327  12.990  0.00  0.00    +0.386 N 
ATOM     28  C   UNL     1       0.447  -3.780  12.792  0.00  0.00    -0.072 C 
ATOM     29  C   UNL     1       0.500  -2.704  11.713  0.00  0.00    +0.009 C 
ATOM     30  C   UNL     1       0.879  -3.118  14.122  0.00  0.00    -0.010 C 
ATOM     31  C   UNL     1       1.470  -4.877  12.487  0.00  0.00    -0.010 C 
ATOM     32  C   UNL     1      -3.136  -4.831  12.246  0.00  0.00    -0.010 C 
ATOM     33  C   UNL     1      -1.221  -5.981  11.178  0.00  0.00    -0.010 C 
ATOM     34  H   UNL     1      -1.426  -3.665  13.552  0.00  0.00    -0.084 HD
ATOM     35  H   UNL     1      -0.807  -5.168  13.568  0.00  0.00    -0.084 HD
ENDBRANCH  22  24
ENDBRANCH  14  22
TORSDOF 3
