REMARK  Name = ZINC65451847
REMARK  8 active torsions:
REMARK  status: ('A' for Active; 'I' for Inactive)
REMARK    1  A    between atoms: C_1  and  C_2
REMARK    2  A    between atoms: C_2  and  N_3
REMARK    3  A    between atoms: C_4  and  C_10
REMARK    4  A    between atoms: C_10  and  C_11
REMARK    5  A    between atoms: N_14  and  C_17
REMARK    6  A    between atoms: C_17  and  C_18
REMARK    7  A    between atoms: C_19  and  O_25
REMARK    8  A    between atoms: C_22  and  C_24
REMARK                            x       y       z     vdW  Elec       q    Type
REMARK                         _______ _______ _______ _____ _____    ______ ____
ROOT
ATOM      1  C   UNL     1      -1.629  -0.985  -4.180  0.00  0.00    -0.007 C 
ATOM      2  C   UNL     1      -1.333  -2.476  -4.368  0.00  0.00    -0.015 C 
ATOM      3  C   UNL     1      -1.668  -2.879  -5.806  0.00  0.00    -0.078 C 
ATOM      4  N   UNL     1      -3.088  -2.623  -6.072  0.00  0.00    +0.383 N 
ATOM      5  C   UNL     1      -3.364  -1.185  -5.964  0.00  0.00    -0.078 C 
ATOM      6  C   UNL     1      -3.095  -0.717  -4.532  0.00  0.00    -0.015 C 
ATOM      7  H   UNL     1      -3.651  -3.123  -5.400  0.00  0.00    -0.081 HD
ENDROOT
BRANCH   1   8
ATOM      8  C   UNL     1      -1.372  -0.592  -2.723  0.00  0.00    +0.079 C 
BRANCH   8  10
ATOM      9  N   UNL     1       0.688  -0.476  -1.203  0.00  0.00    -0.280 N 
ATOM     10  C   UNL     1       0.095  -0.741  -2.414  0.00  0.00    +0.134 A 
ATOM     11  H   UNL     1       3.093  -1.394  -2.954  0.00  0.00    +0.194 HD
ATOM     12  N   UNL     1       1.004  -1.138  -3.246  0.00  0.00    -0.156 NA
ATOM     13  N   UNL     1       2.236  -1.141  -2.577  0.00  0.00    -0.227 N 
ATOM     14  C   UNL     1       2.009  -0.721  -1.315  0.00  0.00    +0.344 A 
ATOM     15  O   UNL     1       2.844  -0.589  -0.438  0.00  0.00    -0.245 OA
BRANCH   9  17
ATOM     16  C   UNL     1      -0.019   1.526   0.010  0.00  0.00    +0.027 C 
ATOM     17  C   UNL     1       0.002  -0.004   0.002  0.00  0.00    +0.125 C 
ENDBRANCH   9  17
ENDBRANCH   8  10
ENDBRANCH   1   8
BRANCH   4  18
ATOM     18  C   UNL     1      -3.422  -3.083  -7.426  0.00  0.00    -0.019 C 
BRANCH  18  19
ATOM     19  C   UNL     1      -4.904  -2.934  -7.657  0.00  0.00    +0.066 A 
ATOM     20  C   UNL     1      -5.400  -1.751  -8.184  0.00  0.00    +0.136 A 
ATOM     21  C   UNL     1      -6.770  -1.627  -8.393  0.00  0.00    +0.049 A 
ATOM     22  C   UNL     1      -7.586  -2.697  -8.062  0.00  0.00    +0.026 A 
ATOM     23  C   UNL     1      -7.017  -3.844  -7.540  0.00  0.00    +0.039 A 
ATOM     24  N   UNL     1      -5.714  -3.931  -7.360  0.00  0.00    -0.255 NA
ATOM     25  C   UNL     1      -7.897  -5.012  -7.177  0.00  0.00    +0.065 C 
BRANCH  20  26
ATOM     26  O   UNL     1      -4.561  -0.728  -8.494  0.00  0.00    -0.505 OA
ATOM     27  H   UNL     1      -4.223  -0.756  -9.399  0.00  0.00    +0.292 HD
ENDBRANCH  20  26
ENDBRANCH  18  19
ENDBRANCH   4  18
TORSDOF 6
