REMARK  Name = ZINC40314012
REMARK  10 active torsions:
REMARK  status: ('A' for Active; 'I' for Inactive)
REMARK    1  A    between atoms: C_6  and  C_7
REMARK    2  A    between atoms: C_10  and  C_12
REMARK    3  A    between atoms: C_12  and  N_13
REMARK    4  A    between atoms: N_13  and  C_14
REMARK    5  A    between atoms: N_13  and  C_27
REMARK    6  A    between atoms: C_14  and  C_15
REMARK    7  A    between atoms: C_15  and  C_17
REMARK    8  A    between atoms: C_15  and  O_26
REMARK    9  A    between atoms: C_17  and  O_18
REMARK   10  A    between atoms: O_18  and  C_19
REMARK                            x       y       z     vdW  Elec       q    Type
REMARK                         _______ _______ _______ _____ _____    ______ ____
ROOT
ATOM      1  N   UNL     1      -5.282  -0.851   1.652  0.00  0.00    +0.389 N 
ATOM      2  H   UNL     1      -4.864  -1.592   2.195  0.00  0.00    -0.081 HD
ENDROOT
BRANCH   1   3
ATOM      3  C   UNL     1      -4.856   0.449   2.187  0.00  0.00    -0.045 C 
ATOM      4  C   UNL     1      -5.596   1.580   1.453  0.00  0.00    +0.009 C 
ATOM      5  C   UNL     1      -4.933   2.941   1.776  0.00  0.00    +0.164 C 
ATOM      6  S   UNL     1      -3.189   2.468   2.120  0.00  0.00    -0.033 S 
ATOM      7  O   UNL     1      -2.881   2.789   3.470  0.00  0.00    -0.174 OA
ATOM      8  O   UNL     1      -2.361   2.964   1.077  0.00  0.00    -0.174 OA
ATOM      9  C   UNL     1      -3.330   0.639   1.956  0.00  0.00    +0.151 C 
ENDBRANCH   1   3
BRANCH   1  10
ATOM     10  C   UNL     1      -4.852  -0.969   0.252  0.00  0.00    -0.003 C 
BRANCH  10  14
ATOM     11  C   UNL     1      -1.485  -2.373   0.047  0.00  0.00    +0.135 A 
ATOM     12  C   UNL     1      -2.203  -3.526   0.104  0.00  0.00    +0.050 A 
ATOM     13  C   UNL     1      -3.560  -3.155   0.189  0.00  0.00    +0.043 A 
ATOM     14  C   UNL     1      -3.603  -1.809   0.179  0.00  0.00    +0.089 A 
ATOM     15  O   UNL     1      -2.347  -1.339   0.099  0.00  0.00    -0.462 OA
BRANCH  11  21
ATOM     16  C   UNL     1       0.594  -1.024  -0.209  0.00  0.00    +0.014 A 
ATOM     17  C   UNL     1       1.967  -0.935  -0.298  0.00  0.00    +0.039 A 
ATOM     18  C   UNL     1       2.744  -2.081  -0.230  0.00  0.00    +0.123 A 
ATOM     19  C   UNL     1       2.147  -3.321  -0.072  0.00  0.00    +0.039 A 
ATOM     20  C   UNL     1       0.774  -3.422   0.018  0.00  0.00    +0.014 A 
ATOM     21  C   UNL     1      -0.013  -2.271  -0.050  0.00  0.00    +0.017 A 
ATOM     22  F   UNL     1       4.089  -1.988  -0.318  0.00  0.00    -0.205 F 
ENDBRANCH  11  21
ENDBRANCH  10  14
ENDBRANCH   1  10
BRANCH   1  23
ATOM     23  C   UNL     1      -6.745  -0.956   1.725  0.00  0.00    -0.043 C 
BRANCH  23  24
ATOM     24  C   UNL     1      -7.177  -1.052   3.190  0.00  0.00    +0.135 C 
BRANCH  24  25
ATOM     25  O   UNL     1      -6.821   0.153   3.871  0.00  0.00    -0.390 OA
ATOM     26  H   UNL     1      -7.304   0.934   3.567  0.00  0.00    +0.210 HD
ENDBRANCH  24  25
BRANCH  24  27
ATOM     27  C   UNL     1      -8.692  -1.251   3.263  0.00  0.00    +0.258 C 
BRANCH  27  28
ATOM     28  O   UNL     1      -9.080  -1.456   4.623  0.00  0.00    -0.489 OA
BRANCH  28  29
ATOM     29  C   UNL     1     -10.404  -1.651   4.864  0.00  0.00    +0.121 A 
ATOM     30  C   UNL     1     -11.309  -1.649   3.813  0.00  0.00    +0.047 A 
ATOM     31  C   UNL     1     -12.653  -1.847   4.060  0.00  0.00    +0.023 A 
ATOM     32  C   UNL     1     -13.098  -2.046   5.355  0.00  0.00    +0.041 A 
ATOM     33  C   UNL     1     -12.197  -2.047   6.405  0.00  0.00    +0.023 A 
ATOM     34  C   UNL     1     -10.850  -1.856   6.161  0.00  0.00    +0.047 A 
ATOM     35 CL   UNL     1     -14.788  -2.293   5.663  0.00  0.00    -0.084 Cl
ENDBRANCH  28  29
ENDBRANCH  27  28
ENDBRANCH  24  27
ENDBRANCH  23  24
ENDBRANCH   1  23
TORSDOF 10
