REMARK  Name = ZINC06754183
REMARK  7 active torsions:
REMARK  status: ('A' for Active; 'I' for Inactive)
REMARK    1  A    between atoms: C_1  and  C_2
REMARK    2  A    between atoms: C_3  and  C_27
REMARK    3  A    between atoms: C_4  and  C_10
REMARK    4  A    between atoms: C_13  and  N_16
REMARK    5  A    between atoms: C_19  and  C_21
REMARK    6  A    between atoms: C_27  and  O_29
REMARK    7  A    between atoms: O_29  and  C_30
REMARK                            x       y       z     vdW  Elec       q    Type
REMARK                         _______ _______ _______ _____ _____    ______ ____
ROOT
ATOM      1  C   UNL     1      -1.828  -2.702   1.214  0.00  0.00    -0.022 A 
ATOM      2  C   UNL     1      -1.201  -2.691   2.447  0.00  0.00    +0.007 A 
ATOM      3  C   UNL     1      -1.866  -3.152   3.566  0.00  0.00    +0.025 A 
ATOM      4  C   UNL     1      -3.167  -3.627   3.452  0.00  0.00    +0.052 A 
ATOM      5  C   UNL     1      -3.794  -3.637   2.211  0.00  0.00    +0.025 A 
ATOM      6  C   UNL     1      -3.124  -3.169   1.098  0.00  0.00    +0.007 A 
ENDROOT
BRANCH   1  10
ATOM      7  C   UNL     1      -0.018   1.503   0.010  0.00  0.00    +0.061 C 
ATOM      8  C   UNL     1       0.002  -0.004   0.002  0.00  0.00    +0.021 C 
ATOM      9  C   UNL     1      -1.165  -0.684   0.004  0.00  0.00    +0.078 C 
ATOM     10  C   UNL     1      -1.098  -2.198  -0.005  0.00  0.00    +0.143 C 
ATOM     11  N   UNL     1       0.242  -2.807  -0.014  0.00  0.00    -0.288 N 
ATOM     12  C   UNL     1       1.317  -1.993  -0.015  0.00  0.00    +0.304 C 
ATOM     13  O   UNL     1       2.428  -2.486  -0.023  0.00  0.00    -0.252 OA
ATOM     14  N   UNL     1       1.200  -0.659  -0.013  0.00  0.00    -0.273 N 
ATOM     15  H   UNL     1       0.350  -3.771  -0.020  0.00  0.00    +0.151 HD
ATOM     16  H   UNL     1       2.012  -0.129  -0.018  0.00  0.00    +0.156 HD
BRANCH   9  17
ATOM     17  C   UNL     1      -2.406  -0.006   0.014  0.00  0.00    +0.338 C 
ATOM     18  O   UNL     1      -2.435   1.210   0.021  0.00  0.00    -0.245 OA
BRANCH  17  19
ATOM     19  O   UNL     1      -3.558  -0.709   0.016  0.00  0.00    -0.465 OA
ATOM     20  C   UNL     1      -4.775   0.040   0.026  0.00  0.00    +0.280 C 
ENDBRANCH  17  19
ENDBRANCH   9  17
ENDBRANCH   1  10
BRANCH   4  21
ATOM     21  N   UNL     1      -3.842  -4.095   4.580  0.00  0.00    -0.224 N 
ATOM     22  C   UNL     1      -5.214  -4.628   4.597  0.00  0.00    +0.138 C 
ATOM     23  C   UNL     1      -5.444  -4.987   6.078  0.00  0.00    +0.078 C 
ATOM     24  C   UNL     1      -4.144  -4.609   6.751  0.00  0.00    +0.068 C 
ATOM     25  N   UNL     1      -3.326  -4.138   5.873  0.00  0.00    -0.184 NA
BRANCH  24  26
ATOM     26  C   UNL     1      -3.855  -4.759   8.189  0.00  0.00    -0.002 A 
ATOM     27  C   UNL     1      -4.819  -5.295   9.047  0.00  0.00    +0.010 A 
ATOM     28  C   UNL     1      -4.541  -5.433  10.390  0.00  0.00    +0.001 A 
ATOM     29  C   UNL     1      -3.311  -5.044  10.890  0.00  0.00    +0.000 A 
ATOM     30  C   UNL     1      -2.351  -4.513  10.046  0.00  0.00    +0.001 A 
ATOM     31  C   UNL     1      -2.613  -4.373   8.700  0.00  0.00    +0.010 A 
ENDBRANCH  24  26
ENDBRANCH   4  21
TORSDOF 5
