REMARK  Name = ZINC14094449
REMARK  11 active torsions:
REMARK  status: ('A' for Active; 'I' for Inactive)
REMARK    1  A    between atoms: C_1  and  C_2
REMARK    2  A    between atoms: C_6  and  C_25
REMARK    3  A    between atoms: C_7  and  N_8
REMARK    4  A    between atoms: C_9  and  C_11
REMARK    5  A    between atoms: C_11  and  N_49
REMARK    6  A    between atoms: C_12  and  N_49
REMARK    7  A    between atoms: C_13  and  C_15
REMARK    8  A    between atoms: C_13  and  C_16
REMARK    9  A    between atoms: C_13  and  N_49
REMARK   10  A    between atoms: N_18  and  C_19
REMARK   11  A    between atoms: C_21  and  C_24
REMARK                            x       y       z     vdW  Elec       q    Type
REMARK                         _______ _______ _______ _____ _____    ______ ____
ROOT
ATOM      1  C   UNL     1       2.102   1.365  -0.059  0.00  0.00    -0.094 C 
ATOM      2  N   UNL     1       1.001   1.784   0.835  0.00  0.00    +0.391 N 
ATOM      3  H   UNL     1       0.106   1.515   0.410  0.00  0.00    -0.080 HD
ENDROOT
BRANCH   2   4
ATOM      4  C   UNL     1       1.026   3.251   1.013  0.00  0.00    +0.017 C 
ATOM      5  C   UNL     1       2.185   3.660   1.925  0.00  0.00    -0.004 C 
BRANCH   4   6
ATOM      6  C   UNL     1      -0.278   3.686   1.632  0.00  0.00    +0.206 C 
ATOM      7  O   UNL     1      -1.046   2.857   2.073  0.00  0.00    -0.277 OA
ATOM      8  N   UNL     1      -0.590   4.995   1.694  0.00  0.00    -0.256 N 
ATOM      9  H   UNL     1       0.024   5.658   1.341  0.00  0.00    +0.158 HD
BRANCH   8  10
ATOM     10  C   UNL     1      -1.790   5.396   2.264  0.00  0.00    +0.224 A 
ATOM     11  C   UNL     1      -2.246   6.676   2.400  0.00  0.00    +0.092 A 
ATOM     12  C   UNL     1      -3.496   6.525   3.033  0.00  0.00    +0.082 A 
ATOM     13  N   UNL     1      -3.670   5.245   3.210  0.00  0.00    -0.081 NA
ATOM     14  O   UNL     1      -2.739   4.602   2.786  0.00  0.00    -0.339 OA
ATOM     15  C   UNL     1      -4.446   7.627   3.426  0.00  0.00    +0.069 C 
ENDBRANCH   8  10
ENDBRANCH   4   6
ENDBRANCH   2   4
BRANCH   2  16
ATOM     16  C   UNL     1       1.132   1.113   2.145  0.00  0.00    +0.020 C 
BRANCH  16  18
ATOM     17  N   UNL     1       0.929  -1.189   3.026  0.00  0.00    -0.287 N 
ATOM     18  C   UNL     1       0.883  -0.362   1.963  0.00  0.00    +0.201 C 
ATOM     19  O   UNL     1       0.642  -0.805   0.860  0.00  0.00    -0.278 OA
ATOM     20  H   UNL     1       1.060  -0.828   3.917  0.00  0.00    +0.155 HD
BRANCH  17  27
ATOM     21  C   UNL     1      -1.408  -2.143   1.713  0.00  0.00    +0.045 C 
ATOM     22  C   UNL     1      -0.336  -3.078   2.209  0.00  0.00    -0.029 A 
ATOM     23  C   UNL     1      -0.468  -4.440   2.027  0.00  0.00    +0.005 A 
ATOM     24  C   UNL     1       0.513  -5.299   2.487  0.00  0.00    +0.001 A 
ATOM     25  C   UNL     1       1.632  -4.797   3.126  0.00  0.00    +0.005 A 
ATOM     26  C   UNL     1       1.773  -3.435   3.306  0.00  0.00    -0.029 A 
ATOM     27  C   UNL     1       0.790  -2.570   2.845  0.00  0.00    +0.039 A 
ATOM     28  C   UNL     1       2.994  -2.889   4.001  0.00  0.00    +0.045 C 
ENDBRANCH  17  27
ENDBRANCH  16  18
ENDBRANCH   2  16
TORSDOF 6
