REMARK  Name = ZINC06179578
REMARK  9 active torsions:
REMARK  status: ('A' for Active; 'I' for Inactive)
REMARK    1  A    between atoms: C_1  and  C_2
REMARK    2  A    between atoms: C_2  and  C_3
REMARK    3  A    between atoms: C_6  and  N_9
REMARK    4  A    between atoms: C_13  and  C_14
REMARK    5  A    between atoms: C_16  and  C_30
REMARK    6  A    between atoms: N_17  and  C_20
REMARK    7  A    between atoms: C_18  and  C_19
REMARK    8  A    between atoms: C_23  and  C_29
REMARK    9  A    between atoms: C_24  and  N_26
REMARK                            x       y       z     vdW  Elec       q    Type
REMARK                         _______ _______ _______ _____ _____    ______ ____
ROOT
ATOM      1  N   UNL     1       4.351   3.098   2.167  0.00  0.00    -0.190 N 
ATOM      2  C   UNL     1       4.082   4.143   1.357  0.00  0.00    +0.263 C 
ATOM      3  O   UNL     1       3.121   4.861   1.562  0.00  0.00    -0.269 OA
ATOM      4  C   UNL     1       4.984   4.392   0.218  0.00  0.00    +0.100 C 
ATOM      5  C   UNL     1       4.771   5.446  -0.656  0.00  0.00    +0.028 C 
ATOM      6  C   UNL     1       6.122   3.469   0.049  0.00  0.00    +0.257 C 
ATOM      7  O   UNL     1       6.910   3.610  -0.867  0.00  0.00    -0.270 OA
ATOM      8  N   UNL     1       6.266   2.466   0.939  0.00  0.00    -0.235 N 
ATOM      9  C   UNL     1       5.408   2.302   1.956  0.00  0.00    +0.320 C 
ATOM     10  O   UNL     1       5.597   1.381   2.726  0.00  0.00    -0.251 OA
ATOM     11  H   UNL     1       7.009   1.850   0.842  0.00  0.00    +0.159 HD
ENDROOT
BRANCH   5  12
ATOM     12  C   UNL     1       3.578   6.202  -0.575  0.00  0.00    -0.003 A 
ATOM     13  C   UNL     1       2.209   5.686  -0.424  0.00  0.00    +0.031 A 
ATOM     14  C   UNL     1       1.401   6.757  -0.390  0.00  0.00    +0.022 A 
ATOM     15  N   UNL     1       2.153   7.893  -0.517  0.00  0.00    -0.317 N 
ATOM     16  C   UNL     1       3.458   7.583  -0.629  0.00  0.00    +0.028 A 
ATOM     17  C   UNL     1       4.591   8.565  -0.786  0.00  0.00    +0.064 C 
ATOM     18  C   UNL     1      -0.098   6.715  -0.241  0.00  0.00    +0.064 C 
BRANCH  15  19
ATOM     19  C   UNL     1       1.637   9.196  -0.528  0.00  0.00    +0.049 A 
ATOM     20  C   UNL     1       1.744   9.977  -1.671  0.00  0.00    +0.026 A 
ATOM     21  C   UNL     1       1.235  11.261  -1.679  0.00  0.00    +0.007 A 
ATOM     22  C   UNL     1       0.618  11.768  -0.550  0.00  0.00    -0.020 A 
ATOM     23  C   UNL     1       0.509  10.993   0.589  0.00  0.00    +0.131 A 
ATOM     24  C   UNL     1       1.011   9.706   0.601  0.00  0.00    +0.059 A 
ATOM     25  C   UNL     1       0.064  13.170  -0.562  0.00  0.00    +0.046 C 
BRANCH  23  26
ATOM     26  N   UNL     1      -0.152  11.540   1.795  0.00  0.00    +0.057 N 
ATOM     27  O   UNL     1       0.273  11.261   2.902  0.00  0.00    -0.126 OA
ATOM     28  O   UNL     1      -1.121  12.270   1.681  0.00  0.00    -0.126 OA
ENDBRANCH  23  26
ENDBRANCH  15  19
ENDBRANCH   5  12
BRANCH   1  32
ATOM     29  C   UNL     1       1.844   2.337   5.409  0.00  0.00    -0.048 A 
ATOM     30  C   UNL     1       2.604   3.492   5.381  0.00  0.00    +0.005 A 
ATOM     31  C   UNL     1       3.435   3.747   4.308  0.00  0.00    +0.024 A 
ATOM     32  C   UNL     1       3.508   2.842   3.257  0.00  0.00    +0.046 A 
ATOM     33  C   UNL     1       2.744   1.683   3.289  0.00  0.00    +0.024 A 
ATOM     34  C   UNL     1       1.915   1.433   4.365  0.00  0.00    +0.005 A 
BRANCH  29  36
ATOM     35  C   UNL     1      -0.444   2.658   6.309  0.00  0.00    +0.009 C 
ATOM     36  C   UNL     1       0.938   2.061   6.581  0.00  0.00    +0.032 C 
ENDBRANCH  29  36
ENDBRANCH   1  32
TORSDOF 5
