REMARK  Name = ZINC14983926
REMARK  10 active torsions:
REMARK  status: ('A' for Active; 'I' for Inactive)
REMARK    1  A    between atoms: C_1  and  C_2
REMARK    2  A    between atoms: C_7  and  N_8
REMARK    3  A    between atoms: N_8  and  S_9
REMARK    4  A    between atoms: S_9  and  C_12
REMARK    5  A    between atoms: C_13  and  C_31
REMARK    6  A    between atoms: C_21  and  C_23
REMARK    7  A    between atoms: C_26  and  C_30
REMARK    8  A    between atoms: C_27  and  C_29
REMARK    9  A    between atoms: C_31  and  O_33
REMARK   10  A    between atoms: O_33  and  C_34
REMARK                            x       y       z     vdW  Elec       q    Type
REMARK                         _______ _______ _______ _____ _____    ______ ____
ROOT
ATOM      1  C   UNL     1       6.202   0.107   2.656  0.00  0.00    +0.160 A 
ATOM      2  C   UNL     1       6.254   1.467   2.442  0.00  0.00    +0.096 A 
ATOM      3  C   UNL     1       5.456   2.014   1.359  0.00  0.00    -0.018 A 
ATOM      4  C   UNL     1       4.736   1.104   0.664  0.00  0.00    +0.013 A 
ATOM      5  S   UNL     1       5.105  -0.446   1.434  0.00  0.00    -0.071 S 
ATOM      6  C   UNL     1       3.830   1.373  -0.494  0.00  0.00    +0.150 C 
ATOM      7  N   UNL     1       3.685   2.838  -0.607  0.00  0.00    -0.292 N 
ATOM      8  C   UNL     1       4.893   3.657  -0.424  0.00  0.00    +0.113 C 
ATOM      9  C   UNL     1       5.410   3.495   1.007  0.00  0.00    +0.056 C 
ATOM     10  C   UNL     1       2.489   3.404  -0.863  0.00  0.00    +0.247 C 
ATOM     11  O   UNL     1       2.408   4.606  -1.026  0.00  0.00    -0.270 OA
ENDROOT
BRANCH  10  12
ATOM     12  C   UNL     1       1.275   2.564  -0.946  0.00  0.00    +0.037 A 
ATOM     13  C   UNL     1       1.321   1.329  -1.597  0.00  0.00    +0.013 A 
ATOM     14  C   UNL     1       0.185   0.550  -1.671  0.00  0.00    +0.004 A 
ATOM     15  C   UNL     1      -0.999   0.992  -1.106  0.00  0.00    -0.047 A 
ATOM     16  C   UNL     1      -1.049   2.212  -0.456  0.00  0.00    -0.047 A 
ATOM     17  C   UNL     1       0.080   3.001  -0.374  0.00  0.00    +0.016 A 
ATOM     18  C   UNL     1      -2.341   2.682   0.161  0.00  0.00    +0.044 C 
ATOM     19  C   UNL     1      -2.237   0.138  -1.197  0.00  0.00    +0.044 C 
ENDBRANCH  10  12
BRANCH   1  20
ATOM     20  S   UNL     1       7.045  -0.841   3.879  0.00  0.00    +0.079 S 
ATOM     21  O   UNL     1       8.430  -0.762   3.571  0.00  0.00    -0.149 OA
ATOM     22  O   UNL     1       6.521  -0.439   5.138  0.00  0.00    -0.149 OA
BRANCH  20  23
ATOM     23  N   UNL     1       6.602  -2.422   3.665  0.00  0.00    -0.216 N 
ATOM     24  H   UNL     1       6.150  -2.900   4.378  0.00  0.00    +0.174 HD
BRANCH  23  31
ATOM     25  C   UNL     1       4.708  -4.305   2.685  0.00  0.00    +0.046 C 
ATOM     26  C   UNL     1       5.982  -3.994   1.942  0.00  0.00    -0.028 A 
ATOM     27  C   UNL     1       6.258  -4.630   0.748  0.00  0.00    +0.005 A 
ATOM     28  C   UNL     1       7.426  -4.345   0.065  0.00  0.00    +0.000 A 
ATOM     29  C   UNL     1       8.322  -3.423   0.576  0.00  0.00    +0.002 A 
ATOM     30  C   UNL     1       8.049  -2.780   1.767  0.00  0.00    +0.025 A 
ATOM     31  C   UNL     1       6.879  -3.067   2.458  0.00  0.00    +0.051 A 
ENDBRANCH  23  31
ENDBRANCH  20  23
ENDBRANCH   1  20
BRANCH   2  32
ATOM     32  C   UNL     1       7.091   2.337   3.281  0.00  0.00    +0.342 C 
ATOM     33  O   UNL     1       6.631   2.832   4.292  0.00  0.00    -0.245 OA
BRANCH  32  34
ATOM     34  O   UNL     1       8.369   2.585   2.931  0.00  0.00    -0.464 OA
ATOM     35  C   UNL     1       9.136   3.452   3.808  0.00  0.00    +0.280 C 
ENDBRANCH  32  34
ENDBRANCH   2  32
TORSDOF 6
