REMARK  Name = ZINC05315770
REMARK  8 active torsions:
REMARK  status: ('A' for Active; 'I' for Inactive)
REMARK    1  A    between atoms: C_1  and  C_2
REMARK    2  A    between atoms: C_2  and  O_3
REMARK    3  A    between atoms: O_3  and  C_4
REMARK    4  A    between atoms: C_4  and  C_6
REMARK    5  A    between atoms: C_6  and  C_31
REMARK    6  A    between atoms: C_11  and  C_28
REMARK    7  A    between atoms: C_14  and  C_25
REMARK    8  A    between atoms: C_16  and  C_18
REMARK                            x       y       z     vdW  Elec       q    Type
REMARK                         _______ _______ _______ _____ _____    ______ ____
ROOT
ATOM      1  C   UNL     1      -0.907   6.541   1.232  0.00  0.00    +0.184 C 
ATOM      2  C   UNL     1      -2.351   6.559   0.703  0.00  0.00    +0.128 C 
ATOM      3  C   UNL     1      -3.140   5.396   1.247  0.00  0.00    -0.002 C 
ATOM      4  C   UNL     1      -4.057   4.820   0.474  0.00  0.00    +0.012 C 
ATOM      5  C   UNL     1      -4.316   5.302  -0.899  0.00  0.00    +0.050 C 
ATOM      6  C   UNL     1      -3.374   6.090  -1.519  0.00  0.00    +0.084 C 
ATOM      7  N   UNL     1      -2.277   6.407  -0.764  0.00  0.00    -0.314 N 
ATOM      8  C   UNL     1      -0.880   6.555  -1.178  0.00  0.00    +0.169 C 
ATOM      9  C   UNL     1      -0.079   6.003   0.034  0.00  0.00    +0.081 C 
ENDROOT
BRANCH   9  10
ATOM     10  C   UNL     1      -0.059   4.497   0.026  0.00  0.00    -0.040 A 
ATOM     11  C   UNL     1       1.122   3.820   0.271  0.00  0.00    +0.005 A 
ATOM     12  C   UNL     1       1.141   2.438   0.263  0.00  0.00    +0.020 A 
ATOM     13  C   UNL     1      -0.021   1.732   0.012  0.00  0.00    +0.041 A 
ATOM     14  C   UNL     1      -1.202   2.409  -0.238  0.00  0.00    +0.020 A 
ATOM     15  C   UNL     1      -1.221   3.791  -0.225  0.00  0.00    +0.005 A 
ATOM     16 CL   UNL     1       0.002  -0.004   0.002  0.00  0.00    -0.084 Cl
ENDBRANCH   9  10
BRANCH   8  17
ATOM     17  C   UNL     1      -0.603   5.736  -2.412  0.00  0.00    +0.232 C 
ATOM     18  O   UNL     1      -1.394   4.888  -2.768  0.00  0.00    -0.274 OA
ATOM     19  N   UNL     1       0.524   5.946  -3.122  0.00  0.00    -0.328 N 
ATOM     20  H   UNL     1       1.157   6.624  -2.837  0.00  0.00    +0.145 HD
ATOM     21  H   UNL     1       0.702   5.419  -3.916  0.00  0.00    +0.145 HD
ENDBRANCH   8  17
BRANCH   5  22
ATOM     22  C   UNL     1      -5.560   4.946  -1.590  0.00  0.00    +0.243 C 
ATOM     23  O   UNL     1      -5.765   5.348  -2.720  0.00  0.00    -0.270 OA
ATOM     24  N   UNL     1      -6.477   4.174  -0.973  0.00  0.00    -0.325 N 
ATOM     25  H   UNL     1      -6.314   3.854  -0.072  0.00  0.00    +0.145 HD
ATOM     26  H   UNL     1      -7.300   3.939  -1.430  0.00  0.00    +0.145 HD
ENDBRANCH   5  22
BRANCH   1  27
ATOM     27  C   UNL     1      -0.788   5.615   2.415  0.00  0.00    +0.330 C 
ATOM     28  O   UNL     1      -0.114   4.616   2.335  0.00  0.00    -0.249 OA
BRANCH  27  29
ATOM     29  O   UNL     1      -1.432   5.901   3.558  0.00  0.00    -0.464 OA
BRANCH  29  31
ATOM     30  C   UNL     1      -2.073   5.454   5.864  0.00  0.00    +0.048 C 
ATOM     31  C   UNL     1      -1.272   4.965   4.656  0.00  0.00    +0.229 C 
ENDBRANCH  29  31
ENDBRANCH  27  29
ENDBRANCH   1  27
BRANCH   1  32
ATOM     32  C   UNL     1      -0.469   7.899   1.594  0.00  0.00    +0.084 C 
ATOM     33  N   UNL     1      -0.131   8.947   1.874  0.00  0.00    -0.195 NA
ENDBRANCH   1  32
TORSDOF 7
