REMARK  Name = ZINC49659820
REMARK  1 active torsions:
REMARK  status: ('A' for Active; 'I' for Inactive)
REMARK    1  A    between atoms: C_7  and  C_9
REMARK                            x       y       z     vdW  Elec       q    Type
REMARK                         _______ _______ _______ _____ _____    ______ ____
ROOT
ATOM      1  C   UNL     1      -1.215  -3.570  -0.006  0.00  0.00    +0.274 C 
ATOM      2  O   UNL     1      -0.582  -2.538   0.111  0.00  0.00    -0.268 OA
ATOM      3  N   UNL     1      -2.559  -3.529  -0.094  0.00  0.00    -0.295 N 
ATOM      4  C   UNL     1      -3.264  -2.244  -0.197  0.00  0.00    +0.113 C 
ATOM      5  C   UNL     1      -4.325  -2.174   0.906  0.00  0.00    +0.084 C 
ATOM      6  C   UNL     1      -5.232  -3.402   0.816  0.00  0.00    +0.173 C 
ATOM      7  C   UNL     1      -4.408  -4.675   1.013  0.00  0.00    +0.084 C 
ATOM      8  C   UNL     1      -3.347  -4.769  -0.094  0.00  0.00    +0.113 C 
ATOM      9  O   UNL     1      -5.871  -3.436  -0.467  0.00  0.00    -0.346 OA
ATOM     10  C   UNL     1      -7.293  -3.362  -0.240  0.00  0.00    +0.191 C 
ATOM     11  C   UNL     1      -7.390  -2.738   1.175  0.00  0.00    +0.191 C 
ATOM     12  O   UNL     1      -6.243  -3.325   1.835  0.00  0.00    -0.346 OA
ENDROOT
BRANCH   1  19
ATOM     13  C   UNL     1      -0.263  -8.548  -0.483  0.00  0.00    +0.249 A 
ATOM     14  N   UNL     1       0.932  -9.046  -0.341  0.00  0.00    -0.135 NA
ATOM     15  N   UNL     1       1.775  -8.110  -0.076  0.00  0.00    -0.121 NA
ATOM     16  C   UNL     1       1.155  -6.970  -0.035  0.00  0.00    +0.218 A 
ATOM     17  N   UNL     1      -0.181  -7.181  -0.293  0.00  0.00    -0.193 N 
ATOM     18  N   UNL     1      -0.998  -6.059  -0.289  0.00  0.00    -0.151 NA
ATOM     19  C   UNL     1      -0.511  -4.868  -0.051  0.00  0.00    +0.187 A 
ATOM     20  S   UNL     1       1.224  -5.212   0.202  0.00  0.00    -0.022 S 
ENDBRANCH   1  19
TORSDOF 1
