REMARK  Name = ZINC58265872
REMARK  6 active torsions:
REMARK  status: ('A' for Active; 'I' for Inactive)
REMARK    1  A    between atoms: C_1  and  C_2
REMARK    2  A    between atoms: C_2  and  C_4
REMARK    3  A    between atoms: C_2  and  N_18
REMARK    4  A    between atoms: N_6  and  C_7
REMARK    5  A    between atoms: C_10  and  C_13
REMARK    6  A    between atoms: C_19  and  C_21
REMARK                            x       y       z     vdW  Elec       q    Type
REMARK                         _______ _______ _______ _____ _____    ______ ____
ROOT
ATOM      1  C   UNL     1      -1.411  -0.527   0.012  0.00  0.00    +0.237 C 
ATOM      2  O   UNL     1      -1.787  -1.242   0.916  0.00  0.00    -0.273 OA
ATOM      3  N   UNL     1      -2.256  -0.206  -0.988  0.00  0.00    -0.284 N 
ATOM      4  H   UNL     1      -1.977   0.418  -1.676  0.00  0.00    +0.155 HD
ENDROOT
BRANCH   3   5
ATOM      5  C   UNL     1      -3.532  -0.773  -1.034  0.00  0.00    +0.033 A 
ATOM      6  C   UNL     1      -4.221  -1.025   0.147  0.00  0.00    +0.024 A 
ATOM      7  C   UNL     1      -5.480  -1.583   0.105  0.00  0.00    +0.015 A 
ATOM      8  C   UNL     1      -6.064  -1.896  -1.124  0.00  0.00    +0.039 A 
ATOM      9  C   UNL     1      -5.368  -1.642  -2.308  0.00  0.00    +0.015 A 
ATOM     10  C   UNL     1      -4.112  -1.078  -2.260  0.00  0.00    +0.024 A 
BRANCH   8  11
ATOM     11  C   UNL     1      -7.413  -2.496  -1.173  0.00  0.00    +0.248 A 
ATOM     12  N   UNL     1      -8.176  -2.781  -0.143  0.00  0.00    -0.108 NA
ATOM     13  N   UNL     1      -9.280  -3.291  -0.561  0.00  0.00    -0.116 NA
ATOM     14  C   UNL     1      -9.267  -3.351  -1.863  0.00  0.00    +0.332 A 
ATOM     15  O   UNL     1      -8.093  -2.846  -2.283  0.00  0.00    -0.423 OA
ENDBRANCH   8  11
ENDBRANCH   3   5
BRANCH   1  17
ATOM     16  C   UNL     1      -0.029   1.531   0.023  0.00  0.00    +0.038 C 
ATOM     17  C   UNL     1       0.000   0.002   0.005  0.00  0.00    +0.156 C 
BRANCH  17  18
ATOM     18  N   UNL     1       0.710  -0.487   1.190  0.00  0.00    -0.300 N 
ATOM     19  C   UNL     1       2.054  -0.590   1.175  0.00  0.00    +0.251 C 
ATOM     20  O   UNL     1       2.677  -0.278   0.178  0.00  0.00    -0.270 OA
ATOM     21  H   UNL     1       0.213  -0.736   1.985  0.00  0.00    +0.150 HD
BRANCH  19  22
ATOM     22  C   UNL     1       2.764  -1.079   2.361  0.00  0.00    +0.074 A 
ATOM     23  C   UNL     1       4.126  -1.254   2.553  0.00  0.00    +0.021 A 
ATOM     24  C   UNL     1       4.498  -1.734   3.786  0.00  0.00    +0.008 A 
ATOM     25  C   UNL     1       3.539  -1.999   4.707  0.00  0.00    +0.046 A 
ATOM     26  S   UNL     1       2.103  -1.597   3.933  0.00  0.00    -0.092 S 
ENDBRANCH  19  22
ENDBRANCH  17  18
ENDBRANCH   1  17
TORSDOF 5
