REMARK  Name = ZINC12419990
REMARK  7 active torsions:
REMARK  status: ('A' for Active; 'I' for Inactive)
REMARK    1  A    between atoms: C_1  and  O_2
REMARK    2  A    between atoms: O_2  and  C_3
REMARK    3  A    between atoms: C_6  and  C_11
REMARK    4  A    between atoms: C_7  and  O_9
REMARK    5  A    between atoms: O_9  and  C_10
REMARK    6  A    between atoms: N_21  and  C_22
REMARK    7  A    between atoms: C_22  and  C_23
REMARK                            x       y       z     vdW  Elec       q    Type
REMARK                         _______ _______ _______ _____ _____    ______ ____
ROOT
ATOM      1  C   UNL     1      -2.602   1.484   0.029  0.00  0.00    +0.066 C 
ATOM      2  C   UNL     1      -3.402   2.592  -0.661  0.00  0.00    +0.109 C 
ATOM      3  C   UNL     1      -2.951   3.954  -0.215  0.00  0.00    +0.219 C 
ATOM      4  O   UNL     1      -3.779   4.831  -0.085  0.00  0.00    -0.275 OA
ATOM      5  N   UNL     1      -1.657   4.235   0.047  0.00  0.00    -0.270 N 
ATOM      6  C   UNL     1      -0.740   3.183   0.027  0.00  0.00    +0.127 A 
ATOM      7  C   UNL     1      -1.146   1.874   0.017  0.00  0.00    +0.020 A 
ATOM      8  C   UNL     1      -0.013   1.076   0.008  0.00  0.00    +0.140 A 
ATOM      9  N   UNL     1       1.040   1.861   0.002  0.00  0.00    -0.177 NA
ATOM     10  N   UNL     1       0.600   3.194   0.013  0.00  0.00    -0.246 N 
ATOM     11  H   UNL     1      -1.373   5.141   0.243  0.00  0.00    +0.156 HD
ENDROOT
BRANCH   1  15
ATOM     12  C   UNL     1      -3.954   1.028   4.061  0.00  0.00    +0.124 A 
ATOM     13  C   UNL     1      -3.433   2.241   3.632  0.00  0.00    +0.046 A 
ATOM     14  C   UNL     1      -2.997   2.385   2.329  0.00  0.00    +0.011 A 
ATOM     15  C   UNL     1      -3.078   1.323   1.450  0.00  0.00    +0.002 A 
ATOM     16  C   UNL     1      -3.602   0.109   1.872  0.00  0.00    +0.127 A 
ATOM     17  C   UNL     1      -4.036  -0.039   3.181  0.00  0.00    +0.091 A 
BRANCH  12  19
ATOM     18  C   UNL     1      -4.267   2.028   6.195  0.00  0.00    +0.277 C 
ATOM     19  O   UNL     1      -4.382   0.887   5.343  0.00  0.00    -0.495 OA
ENDBRANCH  12  19
BRANCH  16  20
ATOM     20  O   UNL     1      -3.687  -0.934   1.005  0.00  0.00    -0.495 OA
ATOM     21  C   UNL     1      -4.237  -2.153   1.508  0.00  0.00    +0.277 C 
ENDBRANCH  16  20
ENDBRANCH   1  15
BRANCH  10  22
ATOM     22  C   UNL     1       1.453   4.385   0.010  0.00  0.00    +0.180 C 
BRANCH  22  23
ATOM     23  C   UNL     1       1.731   4.801  -1.411  0.00  0.00    -0.022 A 
ATOM     24  C   UNL     1       2.835   4.297  -2.074  0.00  0.00    +0.009 A 
ATOM     25  C   UNL     1       3.092   4.672  -3.380  0.00  0.00    +0.050 A 
ATOM     26  C   UNL     1       2.248   5.561  -4.024  0.00  0.00    +0.166 A 
ATOM     27  C   UNL     1       1.139   6.072  -3.355  0.00  0.00    +0.167 A 
ATOM     28  C   UNL     1       0.885   5.689  -2.049  0.00  0.00    +0.055 A 
ATOM     29  O   UNL     1       0.474   6.918  -4.196  0.00  0.00    -0.453 OA
ATOM     30  C   UNL     1       0.955   6.605  -5.516  0.00  0.00    +0.466 C 
ATOM     31  O   UNL     1       2.278   6.087  -5.284  0.00  0.00    -0.453 OA
ENDBRANCH  22  23
ENDBRANCH  10  22
TORSDOF 5
