REMARK  Name = ZINC35808290
REMARK  11 active torsions:
REMARK  status: ('A' for Active; 'I' for Inactive)
REMARK    1  A    between atoms: C_1  and  C_2
REMARK    2  A    between atoms: C_5  and  N_8
REMARK    3  A    between atoms: N_11  and  C_12
REMARK    4  A    between atoms: N_11  and  C_15
REMARK    5  A    between atoms: C_12  and  C_13
REMARK    6  A    between atoms: C_15  and  C_16
REMARK    7  A    between atoms: N_18  and  C_19
REMARK    8  A    between atoms: N_18  and  C_29
REMARK    9  A    between atoms: C_19  and  C_20
REMARK   10  A    between atoms: C_29  and  C_30
REMARK   11  A    between atoms: C_31  and  C_35
REMARK                            x       y       z     vdW  Elec       q    Type
REMARK                         _______ _______ _______ _____ _____    ______ ____
ROOT
ATOM      1  C   UNL     1      -0.917  -7.424   2.816  0.00  0.00    +0.234 C 
ATOM      2  O   UNL     1      -1.891  -7.073   2.183  0.00  0.00    -0.274 OA
ATOM      3  N   UNL     1      -1.067  -7.939   4.052  0.00  0.00    -0.291 N 
ENDROOT
BRANCH   1   4
ATOM      4  C   UNL     1       0.460  -7.284   2.219  0.00  0.00    +0.205 C 
BRANCH   4   8
ATOM      5  N   UNL     1       0.297  -4.832  -0.516  0.00  0.00    -0.269 N 
ATOM      6  C   UNL     1       0.395  -5.366   0.718  0.00  0.00    +0.307 C 
ATOM      7  O   UNL     1       0.519  -4.641   1.686  0.00  0.00    -0.252 OA
ATOM      8  N   UNL     1       0.354  -6.703   0.878  0.00  0.00    -0.273 N 
ATOM      9  H   UNL     1       0.127  -5.404  -1.280  0.00  0.00    +0.156 HD
BRANCH   5  14
ATOM     10  C   UNL     1       0.886   0.765  -1.238  0.00  0.00    +0.044 C 
ATOM     11  C   UNL     1       0.730  -0.722  -1.046  0.00  0.00    -0.050 A 
ATOM     12  C   UNL     1       0.110  -1.210   0.089  0.00  0.00    +0.005 A 
ATOM     13  C   UNL     1      -0.035  -2.571   0.268  0.00  0.00    +0.023 A 
ATOM     14  C   UNL     1       0.443  -3.451  -0.694  0.00  0.00    +0.035 A 
ATOM     15  C   UNL     1       1.065  -2.958  -1.833  0.00  0.00    +0.023 A 
ATOM     16  C   UNL     1       1.202  -1.595  -2.009  0.00  0.00    +0.005 A 
ENDBRANCH   5  14
BRANCH   8  17
ATOM     17  C   UNL     1       0.205  -7.577  -0.288  0.00  0.00    +0.136 C 
BRANCH  17  18
ATOM     18  C   UNL     1       1.567  -7.935  -0.825  0.00  0.00    -0.016 C 
ATOM     19  C   UNL     1       1.903  -9.193  -0.971  0.00  0.00    +0.005 C 
ENDBRANCH  17  18
ENDBRANCH   8  17
ENDBRANCH   4   8
ENDBRANCH   1   4
BRANCH   3  20
ATOM     20  C   UNL     1      -2.405  -8.075   4.632  0.00  0.00    +0.143 C 
BRANCH  20  21
ATOM     21  C   UNL     1      -2.921  -9.468   4.383  0.00  0.00    -0.026 A 
ATOM     22  C   UNL     1      -3.637  -9.743   3.233  0.00  0.00    +0.009 A 
ATOM     23  C   UNL     1      -4.112 -11.021   3.000  0.00  0.00    +0.050 A 
ATOM     24  C   UNL     1      -3.872 -12.028   3.920  0.00  0.00    +0.166 A 
ATOM     25  C   UNL     1      -3.150 -11.751   5.078  0.00  0.00    +0.167 A 
ATOM     26  C   UNL     1      -2.672 -10.470   5.303  0.00  0.00    +0.054 A 
ATOM     27  O   UNL     1      -3.050 -12.897   5.814  0.00  0.00    -0.453 OA
ATOM     28  C   UNL     1      -4.063 -13.778   5.294  0.00  0.00    +0.466 C 
ATOM     29  O   UNL     1      -4.223 -13.347   3.929  0.00  0.00    -0.453 OA
ENDBRANCH  20  21
ENDBRANCH   3  20
BRANCH   3  30
ATOM     30  C   UNL     1       0.110  -8.362   4.816  0.00  0.00    +0.150 C 
BRANCH  30  31
ATOM     31  C   UNL     1       0.574  -7.228   5.694  0.00  0.00    +0.010 A 
ATOM     32  C   UNL     1       0.299  -6.992   7.000  0.00  0.00    -0.039 A 
ATOM     33  C   UNL     1       0.842  -5.875   7.608  0.00  0.00    +0.011 A 
ATOM     34  C   UNL     1       1.632  -5.049   6.880  0.00  0.00    +0.046 A 
ATOM     35  S   UNL     1       1.634  -5.851   5.284  0.00  0.00    -0.100 S 
ATOM     36  C   UNL     1      -0.584  -7.933   7.778  0.00  0.00    +0.044 C 
ENDBRANCH  30  31
ENDBRANCH   3  30
TORSDOF 9
