REMARK  Name = ZINC00930864
REMARK  11 active torsions:
REMARK  status: ('A' for Active; 'I' for Inactive)
REMARK    1  A    between atoms: C_1  and  O_2
REMARK    2  A    between atoms: O_2  and  C_3
REMARK    3  A    between atoms: C_6  and  C_11
REMARK    4  A    between atoms: C_8  and  O_9
REMARK    5  A    between atoms: O_9  and  C_10
REMARK    6  A    between atoms: C_11  and  C_13
REMARK    7  A    between atoms: C_11  and  N_22
REMARK    8  A    between atoms: N_15  and  C_16
REMARK    9  A    between atoms: N_22  and  C_23
REMARK   10  A    between atoms: C_23  and  C_24
REMARK   11  A    between atoms: C_30  and  C_32
REMARK                            x       y       z     vdW  Elec       q    Type
REMARK                         _______ _______ _______ _____ _____    ______ ____
ROOT
ATOM      1  C   UNL     1      -4.967  -3.073  -0.168  0.00  0.00    +0.193 C 
ENDROOT
BRANCH   1   5
ATOM      2  C   UNL     1      -2.753   0.513  -0.891  0.00  0.00    +0.162 A 
ATOM      3  C   UNL     1      -4.117   0.573  -0.656  0.00  0.00    +0.050 A 
ATOM      4  C   UNL     1      -4.830  -0.588  -0.422  0.00  0.00    +0.010 A 
ATOM      5  C   UNL     1      -4.185  -1.811  -0.423  0.00  0.00    -0.015 A 
ATOM      6  C   UNL     1      -2.824  -1.878  -0.657  0.00  0.00    +0.055 A 
ATOM      7  C   UNL     1      -2.104  -0.719  -0.897  0.00  0.00    +0.162 A 
BRANCH   2   9
ATOM      8  C   UNL     1      -2.781   2.882  -1.100  0.00  0.00    +0.277 C 
ATOM      9  O   UNL     1      -2.050   1.654  -1.121  0.00  0.00    -0.491 OA
ENDBRANCH   2   9
BRANCH   7  10
ATOM     10  O   UNL     1      -0.767  -0.783  -1.134  0.00  0.00    -0.491 OA
ATOM     11  C   UNL     1      -0.169  -2.081  -1.125  0.00  0.00    +0.277 C 
ENDBRANCH   7  10
ENDBRANCH   1   5
BRANCH   1  12
ATOM     12  C   UNL     1      -5.784  -3.413  -1.387  0.00  0.00    +0.238 C 
ATOM     13  O   UNL     1      -6.926  -3.017  -1.482  0.00  0.00    -0.273 OA
ATOM     14  N   UNL     1      -5.246  -4.158  -2.373  0.00  0.00    -0.311 N 
ATOM     15  H   UNL     1      -4.332  -4.475  -2.297  0.00  0.00    +0.149 HD
BRANCH  14  16
ATOM     16  C   UNL     1      -6.040  -4.489  -3.559  0.00  0.00    +0.073 C 
ATOM     17  C   UNL     1      -6.882  -5.735  -3.277  0.00  0.00    +0.022 C 
ATOM     18  C   UNL     1      -7.712  -6.080  -4.515  0.00  0.00    +0.002 C 
ATOM     19  C   UNL     1      -6.777  -6.352  -5.696  0.00  0.00    +0.000 C 
ATOM     20  C   UNL     1      -5.935  -5.106  -5.977  0.00  0.00    +0.002 C 
ATOM     21  C   UNL     1      -5.105  -4.761  -4.739  0.00  0.00    +0.022 C 
ENDBRANCH  14  16
ENDBRANCH   1  12
BRANCH   1  22
ATOM     22  N   UNL     1      -5.859  -2.872   0.977  0.00  0.00    -0.278 N 
ATOM     23  C   UNL     1      -5.343  -2.645   2.201  0.00  0.00    +0.261 C 
ATOM     24  O   UNL     1      -4.155  -2.437   2.330  0.00  0.00    -0.271 OA
BRANCH  23  25
ATOM     25  C   UNL     1      -6.242  -2.649   3.411  0.00  0.00    +0.296 C 
ATOM     26  C   UNL     1      -7.029  -1.333   3.475  0.00  0.00    +0.283 C 
ATOM     27  O   UNL     1      -7.861  -1.364   4.640  0.00  0.00    -0.484 OA
ATOM     28  C   UNL     1      -7.277  -1.780   5.797  0.00  0.00    +0.162 A 
ATOM     29  C   UNL     1      -7.891  -1.498   7.009  0.00  0.00    +0.049 A 
ATOM     30  C   UNL     1      -7.312  -1.916   8.192  0.00  0.00    +0.004 A 
ATOM     31  C   UNL     1      -6.119  -2.615   8.171  0.00  0.00    +0.004 A 
ATOM     32  C   UNL     1      -5.502  -2.897   6.968  0.00  0.00    +0.049 A 
ATOM     33  C   UNL     1      -6.077  -2.480   5.777  0.00  0.00    +0.163 A 
ATOM     34  O   UNL     1      -5.452  -2.759   4.600  0.00  0.00    -0.473 OA
ENDBRANCH  23  25
BRANCH  22  35
ATOM     35  C   UNL     1      -7.311  -2.918   0.791  0.00  0.00    +0.145 C 
BRANCH  35  36
ATOM     36  C   UNL     1      -7.770  -4.353   0.768  0.00  0.00    -0.012 A 
ATOM     37  C   UNL     1      -7.654  -5.109  -0.389  0.00  0.00    +0.008 A 
ATOM     38  C   UNL     1      -8.089  -6.425  -0.364  0.00  0.00    +0.020 A 
ATOM     39  C   UNL     1      -8.619  -6.937   0.805  0.00  0.00    +0.111 A 
ATOM     40  N   UNL     1      -8.714  -6.189   1.887  0.00  0.00    -0.263 NA
ATOM     41  C   UNL     1      -8.305  -4.935   1.901  0.00  0.00    +0.115 A 
ENDBRANCH  35  36
ENDBRANCH  22  35
ENDBRANCH   1  22
TORSDOF 9
