REMARK  Name = ZINC12465586
REMARK  6 active torsions:
REMARK  status: ('A' for Active; 'I' for Inactive)
REMARK    1  A    between atoms: C_1  and  C_2
REMARK    2  A    between atoms: C_6  and  N_8
REMARK    3  A    between atoms: C_9  and  C_30
REMARK    4  A    between atoms: C_12  and  S_13
REMARK    5  A    between atoms: S_13  and  C_14
REMARK    6  A    between atoms: C_14  and  C_15
REMARK                            x       y       z     vdW  Elec       q    Type
REMARK                         _______ _______ _______ _____ _____    ______ ____
ROOT
ATOM      1  C   UNL     1       3.795   3.006  -0.193  0.00  0.00    +0.143 A 
ATOM      2  N   UNL     1       4.377   1.819  -0.200  0.00  0.00    -0.216 NA
ATOM      3  C   UNL     1       3.694   0.699  -0.031  0.00  0.00    +0.128 A 
ATOM      4  C   UNL     1       2.287   0.769   0.165  0.00  0.00    +0.051 A 
ATOM      5  C   UNL     1       1.337  -0.330   0.373  0.00  0.00    -0.025 A 
ATOM      6  C   UNL     1       0.042   0.011   0.531  0.00  0.00    -0.004 A 
ATOM      7  S   UNL     1       0.009   1.782   0.422  0.00  0.00    -0.073 S 
ATOM      8  C   UNL     1       1.739   2.066   0.159  0.00  0.00    +0.114 A 
ATOM      9  N   UNL     1       2.494   3.134  -0.017  0.00  0.00    -0.224 NA
ATOM     10  C   UNL     1      -1.127  -0.901   0.738  0.00  0.00    +0.043 C 
ATOM     11  C   UNL     1      -0.797  -1.906   1.850  0.00  0.00    +0.005 C 
ATOM     12  C   UNL     1      -0.148  -3.130   1.212  0.00  0.00    +0.001 C 
ATOM     13  C   UNL     1       0.675  -2.711  -0.004  0.00  0.00    +0.005 C 
ATOM     14  C   UNL     1       1.808  -1.781   0.413  0.00  0.00    +0.037 C 
ATOM     15  N   UNL     1       4.340  -0.525  -0.045  0.00  0.00    -0.343 N 
ATOM     16  H   UNL     1       5.169  -0.630  -0.537  0.00  0.00    +0.144 HD
ATOM     17  H   UNL     1       3.963  -1.278   0.436  0.00  0.00    +0.144 HD
ENDROOT
BRANCH   1  18
ATOM     18  C   UNL     1       4.636   4.240  -0.392  0.00  0.00    +0.153 C 
BRANCH  18  19
ATOM     19  S   UNL     1       4.734   4.627  -2.157  0.00  0.00    -0.078 S 
BRANCH  19  24
ATOM     20  N   UNL     1       6.160   6.814  -3.168  0.00  0.00    -0.274 N 
ATOM     21  C   UNL     1       6.918   7.826  -2.640  0.00  0.00    +0.135 A 
ATOM     22  N   UNL     1       6.932   7.665  -1.347  0.00  0.00    -0.133 NA
ATOM     23  N   UNL     1       6.237   6.634  -1.022  0.00  0.00    -0.122 NA
ATOM     24  C   UNL     1       5.745   6.069  -2.099  0.00  0.00    +0.197 A 
ATOM     25  C   UNL     1       7.606   8.922  -3.412  0.00  0.00    +0.088 C 
BRANCH  20  31
ATOM     26  C   UNL     1       6.574   3.993  -7.176  0.00  0.00    +0.044 C 
ATOM     27  C   UNL     1       6.059   5.231  -6.488  0.00  0.00    -0.048 A 
ATOM     28  C   UNL     1       5.301   6.147  -7.193  0.00  0.00    +0.003 A 
ATOM     29  C   UNL     1       4.827   7.285  -6.566  0.00  0.00    +0.002 A 
ATOM     30  C   UNL     1       5.110   7.508  -5.232  0.00  0.00    +0.026 A 
ATOM     31  C   UNL     1       5.871   6.590  -4.522  0.00  0.00    +0.050 A 
ATOM     32  C   UNL     1       6.350   5.451  -5.156  0.00  0.00    +0.029 A 
ENDBRANCH  20  31
ENDBRANCH  19  24
ENDBRANCH  18  19
ENDBRANCH   1  18
TORSDOF 4
