REMARK  Name = ZINC26017293
REMARK  6 active torsions:
REMARK  status: ('A' for Active; 'I' for Inactive)
REMARK    1  A    between atoms: C_1  and  C_2
REMARK    2  A    between atoms: C_7  and  C_28
REMARK    3  A    between atoms: C_8  and  C_9
REMARK    4  A    between atoms: C_9  and  O_11
REMARK    5  A    between atoms: O_11  and  C_12
REMARK    6  A    between atoms: C_12  and  C_13
REMARK                            x       y       z     vdW  Elec       q    Type
REMARK                         _______ _______ _______ _____ _____    ______ ____
ROOT
ATOM      1  C   UNL     1       1.113   2.306   4.949  0.00  0.00    +0.170 A 
ATOM      2  N   UNL     1       1.886   1.892   3.961  0.00  0.00    -0.214 NA
ATOM      3  C   UNL     1       1.396   1.533   2.785  0.00  0.00    +0.128 A 
ATOM      4  C   UNL     1      -0.010   1.594   2.575  0.00  0.00    +0.051 A 
ATOM      5  C   UNL     1      -0.771   1.244   1.367  0.00  0.00    -0.025 A 
ATOM      6  C   UNL     1      -2.105   1.407   1.426  0.00  0.00    -0.004 A 
ATOM      7  S   UNL     1      -2.433   1.997   3.067  0.00  0.00    -0.073 S 
ATOM      8  C   UNL     1      -0.768   2.045   3.672  0.00  0.00    +0.114 A 
ATOM      9  N   UNL     1      -0.197   2.383   4.812  0.00  0.00    -0.221 NA
ATOM     10  C   UNL     1      -3.107   1.150   0.343  0.00  0.00    +0.043 C 
ATOM     11  C   UNL     1      -2.857  -0.237  -0.263  0.00  0.00    +0.005 C 
ATOM     12  C   UNL     1      -1.872  -0.085  -1.417  0.00  0.00    +0.001 C 
ATOM     13  C   UNL     1      -0.888   1.045  -1.120  0.00  0.00    +0.005 C 
ATOM     14  C   UNL     1      -0.064   0.721   0.120  0.00  0.00    +0.037 C 
ATOM     15  N   UNL     1       2.239   1.105   1.775  0.00  0.00    -0.343 N 
ATOM     16  H   UNL     1       1.823   0.808   0.801  0.00  0.00    +0.144 HD
ATOM     17  H   UNL     1       3.324   1.061   1.947  0.00  0.00    +0.144 HD
ENDROOT
BRANCH   1  18
ATOM     18  C   UNL     1       1.741   2.699   6.261  0.00  0.00    +0.308 C 
BRANCH  18  19
ATOM     19  O   UNL     1       1.820   1.536   7.127  0.00  0.00    -0.453 OA
BRANCH  19  20
ATOM     20  C   UNL     1       2.361   1.718   8.348  0.00  0.00    +0.343 C 
ATOM     21  O   UNL     1       2.756   2.818   8.680  0.00  0.00    -0.245 OA
BRANCH  20  29
ATOM     22  C   UNL     1       4.767   0.048   8.321  0.00  0.00    +0.045 C 
ATOM     23  C   UNL     1       3.635  -0.234   9.277  0.00  0.00    -0.026 A 
ATOM     24  C   UNL     1       3.712  -1.270  10.153  0.00  0.00    +0.096 A 
ATOM     25  C   UNL     1       2.637  -1.513  11.030  0.00  0.00    +0.337 A 
ATOM     26  O   UNL     1       2.696  -2.443  11.815  0.00  0.00    -0.245 OA
ATOM     27  O   UNL     1       1.547  -0.727  11.008  0.00  0.00    -0.427 OA
ATOM     28  C   UNL     1       1.452   0.301  10.159  0.00  0.00    +0.120 A 
ATOM     29  C   UNL     1       2.474   0.582   9.280  0.00  0.00    +0.100 A 
ATOM     30  C   UNL     1       0.214   1.161  10.163  0.00  0.00    +0.087 C 
ENDBRANCH  20  29
ENDBRANCH  19  20
ENDBRANCH  18  19
ENDBRANCH   1  18
TORSDOF 4
