REMARK  Name = ZINC04022988
REMARK  5 active torsions:
REMARK  status: ('A' for Active; 'I' for Inactive)
REMARK    1  A    between atoms: C_1  and  N_2
REMARK    2  A    between atoms: C_6  and  C_7
REMARK    3  A    between atoms: C_13  and  N_17
REMARK    4  A    between atoms: N_17  and  S_18
REMARK    5  A    between atoms: S_18  and  C_21
REMARK                            x       y       z     vdW  Elec       q    Type
REMARK                         _______ _______ _______ _____ _____    ______ ____
ROOT
ATOM      1  C   UNL     1       6.663   2.394  -5.684  0.00  0.00    +0.156 A 
ATOM      2  N   UNL     1       5.719   3.109  -4.993  0.00  0.00    -0.337 N 
ATOM      3  H   UNL     1       5.297   3.969  -5.280  0.00  0.00    +0.167 HD
ATOM      4  C   UNL     1       5.460   2.417  -3.822  0.00  0.00    +0.067 A 
ATOM      5  C   UNL     1       4.616   2.639  -2.743  0.00  0.00    +0.029 A 
ATOM      6  C   UNL     1       4.579   1.737  -1.701  0.00  0.00    +0.026 A 
ATOM      7  C   UNL     1       5.394   0.606  -1.718  0.00  0.00    +0.050 A 
ATOM      8  C   UNL     1       6.240   0.370  -2.785  0.00  0.00    +0.054 A 
ATOM      9  C   UNL     1       6.282   1.276  -3.850  0.00  0.00    +0.091 A 
ATOM     10  N   UNL     1       6.988   1.318  -5.005  0.00  0.00    -0.226 NA
ENDROOT
BRANCH   1  16
ATOM     11  C   UNL     1       5.818   4.835  -7.392  0.00  0.00    +0.149 C 
ATOM     12  N   UNL     1       6.851   3.859  -7.747  0.00  0.00    -0.347 N 
ATOM     13  C   UNL     1       7.601   3.873  -8.882  0.00  0.00    +0.086 A 
ATOM     14  C   UNL     1       8.444   2.816  -8.855  0.00  0.00    +0.020 A 
ATOM     15  C   UNL     1       8.218   2.119  -7.660  0.00  0.00    +0.031 A 
ATOM     16  C   UNL     1       7.226   2.776  -6.989  0.00  0.00    +0.084 A 
ENDBRANCH   1  16
BRANCH   7  17
ATOM     17  N   UNL     1       5.350  -0.298  -0.651  0.00  0.00    -0.216 N 
ATOM     18  H   UNL     1       4.589  -0.891  -0.549  0.00  0.00    +0.174 HD
BRANCH  17  19
ATOM     19  S   UNL     1       6.597  -0.357   0.437  0.00  0.00    +0.072 S 
ATOM     20  O   UNL     1       7.791  -0.487  -0.321  0.00  0.00    -0.150 OA
ATOM     21  O   UNL     1       6.221  -1.296   1.435  0.00  0.00    -0.150 OA
BRANCH  19  22
ATOM     22  C   UNL     1       6.672   1.216   1.228  0.00  0.00    +0.108 A 
ATOM     23  C   UNL     1       5.853   1.486   2.309  0.00  0.00    +0.029 A 
ATOM     24  C   UNL     1       5.911   2.720   2.929  0.00  0.00    +0.002 A 
ATOM     25  C   UNL     1       6.788   3.684   2.469  0.00  0.00    +0.000 A 
ATOM     26  C   UNL     1       7.608   3.414   1.389  0.00  0.00    +0.002 A 
ATOM     27  C   UNL     1       7.549   2.180   0.768  0.00  0.00    +0.029 A 
ENDBRANCH  19  22
ENDBRANCH  17  19
ENDBRANCH   7  17
TORSDOF 4
