REMARK  Name = ZINC20578356
REMARK  6 active torsions:
REMARK  status: ('A' for Active; 'I' for Inactive)
REMARK    1  A    between atoms: C_1  and  C_2
REMARK    2  A    between atoms: C_6  and  N_8
REMARK    3  A    between atoms: C_10  and  C_15
REMARK    4  A    between atoms: C_21  and  C_23
REMARK    5  A    between atoms: C_23  and  C_24
REMARK    6  A    between atoms: C_27  and  N_30
REMARK                            x       y       z     vdW  Elec       q    Type
REMARK                         _______ _______ _______ _____ _____    ______ ____
ROOT
ATOM      1  C   UNL     1      -4.347   3.787   5.364  0.00  0.00    +0.109 A 
ATOM      2  N   UNL     1      -3.192   3.157   5.285  0.00  0.00    -0.144 NA
ATOM      3  N   UNL     1      -2.685   2.881   4.162  0.00  0.00    -0.126 NA
ATOM      4  C   UNL     1      -3.280   3.207   3.028  0.00  0.00    +0.188 A 
ATOM      5  S   UNL     1      -4.710   3.996   3.624  0.00  0.00    -0.035 S 
ATOM      6  N   UNL     1      -2.872   2.985   1.717  0.00  0.00    -0.263 N 
ATOM      7  C   UNL     1      -1.709   2.349   1.472  0.00  0.00    +0.223 C 
ATOM      8  O   UNL     1      -1.018   1.971   2.394  0.00  0.00    -0.275 OA
ATOM      9  H   UNL     1      -3.498   3.327   0.880  0.00  0.00    +0.157 HD
ENDROOT
BRANCH   1  12
ATOM     10  N   UNL     1      -5.424   3.469   8.835  0.00  0.00    -0.271 N 
ATOM     11  C   UNL     1      -5.513   2.999   7.447  0.00  0.00    +0.124 C 
ATOM     12  C   UNL     1      -5.134   4.216   6.575  0.00  0.00    +0.073 C 
ATOM     13  C   UNL     1      -4.253   5.037   7.545  0.00  0.00    +0.108 C 
ATOM     14  C   UNL     1      -4.717   4.609   8.920  0.00  0.00    +0.220 C 
ATOM     15  O   UNL     1      -4.485   5.207   9.949  0.00  0.00    -0.275 OA
BRANCH  10  21
ATOM     16  C   UNL     1      -6.075   3.119  13.695  0.00  0.00    +0.044 C 
ATOM     17  C   UNL     1      -6.333   2.623  12.296  0.00  0.00    -0.049 A 
ATOM     18  C   UNL     1      -7.142   1.520  12.091  0.00  0.00    +0.003 A 
ATOM     19  C   UNL     1      -7.382   1.063  10.809  0.00  0.00    +0.002 A 
ATOM     20  C   UNL     1      -6.814   1.707   9.727  0.00  0.00    +0.023 A 
ATOM     21  C   UNL     1      -6.001   2.814   9.928  0.00  0.00    +0.037 A 
ATOM     22  C   UNL     1      -5.758   3.268  11.219  0.00  0.00    +0.027 A 
ENDBRANCH  10  21
ENDBRANCH   1  12
BRANCH   7  23
ATOM     23  C   UNL     1      -1.266   2.109   0.051  0.00  0.00    +0.131 C 
BRANCH  23  24
ATOM     24  C   UNL     1       0.056   1.386   0.053  0.00  0.00    -0.038 A 
ATOM     25  C   UNL     1       1.237   2.105   0.049  0.00  0.00    +0.006 A 
ATOM     26  C   UNL     1       2.450   1.442   0.043  0.00  0.00    +0.033 A 
ATOM     27  C   UNL     1       2.482   0.060   0.043  0.00  0.00    +0.126 A 
ATOM     28  C   UNL     1       1.302  -0.659   0.048  0.00  0.00    +0.033 A 
ATOM     29  C   UNL     1       0.089   0.004   0.053  0.00  0.00    +0.006 A 
BRANCH  27  30
ATOM     30  N   UNL     1       3.781  -0.649   0.039  0.00  0.00    +0.056 N 
ATOM     31  O   UNL     1       3.810  -1.867   0.038  0.00  0.00    -0.126 OA
ATOM     32  O   UNL     1       4.822  -0.016   0.035  0.00  0.00    -0.126 OA
ENDBRANCH  27  30
ENDBRANCH  23  24
ENDBRANCH   7  23
TORSDOF 5
