REMARK  Name = ZINC07472078
REMARK  6 active torsions:
REMARK  status: ('A' for Active; 'I' for Inactive)
REMARK    1  A    between atoms: C_1  and  C_2
REMARK    2  A    between atoms: C_2  and  C_24
REMARK    3  A    between atoms: N_5  and  C_9
REMARK    4  A    between atoms: C_9  and  C_10
REMARK    5  A    between atoms: N_12  and  C_13
REMARK    6  A    between atoms: C_13  and  C_14
REMARK                            x       y       z     vdW  Elec       q    Type
REMARK                         _______ _______ _______ _____ _____    ______ ____
ROOT
ATOM      1  C   UNL     1      -0.198   1.219   4.929  0.00  0.00    +0.231 C 
ATOM      2  O   UNL     1       0.798   0.535   5.028  0.00  0.00    -0.274 OA
ATOM      3  N   UNL     1      -0.675   1.545   3.712  0.00  0.00    -0.313 N 
ATOM      4  H   UNL     1      -1.472   2.092   3.633  0.00  0.00    +0.149 HD
ENDROOT
BRANCH   1   5
ATOM      5  C   UNL     1      -0.903   1.705   6.169  0.00  0.00    +0.213 C 
BRANCH   5  10
ATOM      6  C   UNL     1       1.011   1.749  10.460  0.00  0.00    +0.042 C 
ATOM      7  C   UNL     1       1.225   1.016   9.134  0.00  0.00    +0.113 C 
ATOM      8  C   UNL     1       0.803   1.888   7.968  0.00  0.00    +0.247 C 
ATOM      9  O   UNL     1       1.266   2.963   7.652  0.00  0.00    -0.273 OA
ATOM     10  N   UNL     1      -0.195   1.220   7.356  0.00  0.00    -0.215 N 
ATOM     11  C   UNL     1      -0.462   0.061   7.970  0.00  0.00    +0.310 C 
ATOM     12  O   UNL     1      -1.324  -0.714   7.604  0.00  0.00    -0.252 OA
ATOM     13  N   UNL     1       0.333  -0.152   9.034  0.00  0.00    -0.285 N 
ATOM     14  H   UNL     1       0.318  -0.923   9.623  0.00  0.00    +0.151 HD
BRANCH   7  15
ATOM     15  C   UNL     1       2.687   0.591   8.986  0.00  0.00    +0.021 C 
ATOM     16  C   UNL     1       2.968  -0.887   8.704  0.00  0.00    +0.006 C 
ATOM     17  C   UNL     1       3.279  -0.298  10.082  0.00  0.00    +0.006 C 
ENDBRANCH   7  15
ENDBRANCH   5  10
ENDBRANCH   1   5
BRANCH   3  18
ATOM     18  C   UNL     1       0.011   1.072   2.506  0.00  0.00    +0.111 C 
BRANCH  18  19
ATOM     19  C   UNL     1      -0.729   1.579   1.267  0.00  0.00    -0.013 C 
ATOM     20  C   UNL     1      -0.013   1.086   0.008  0.00  0.00    +0.012 C 
ATOM     21  C   UNL     1      -0.753   1.593  -1.232  0.00  0.00    -0.010 C 
ATOM     22  C   UNL     1      -0.773   3.123  -1.223  0.00  0.00    +0.007 C 
ATOM     23  C   UNL     1      -1.490   3.616   0.036  0.00  0.00    -0.010 C 
ATOM     24  C   UNL     1      -0.750   3.109   1.275  0.00  0.00    +0.012 C 
ATOM     25  C   UNL     1      -2.925   3.086   0.047  0.00  0.00    +0.007 C 
ATOM     26  C   UNL     1      -2.904   1.556   0.038  0.00  0.00    -0.010 C 
ATOM     27  C   UNL     1      -2.188   1.063  -1.221  0.00  0.00    +0.007 C 
ATOM     28  C   UNL     1      -2.164   1.050   1.278  0.00  0.00    +0.012 C 
ENDBRANCH  18  19
ENDBRANCH   3  18
TORSDOF 5
