REMARK  Name = ZINC00223005
REMARK  3 active torsions:
REMARK  status: ('A' for Active; 'I' for Inactive)
REMARK    1  A    between atoms: C_1  and  C_2
REMARK    2  A    between atoms: C_7  and  C_8
REMARK    3  A    between atoms: C_11  and  C_18
REMARK                            x       y       z     vdW  Elec       q    Type
REMARK                         _______ _______ _______ _____ _____    ______ ____
ROOT
ATOM      1  C   UNL     1       0.025   0.045   2.504  0.00  0.00    +0.152 C 
ATOM      2  C   UNL     1       1.425   0.585   2.737  0.00  0.00    +0.030 C 
ATOM      3  C   UNL     1       2.057   0.203   3.866  0.00  0.00    +0.079 C 
ATOM      4  N   UNL     1       1.477  -0.631   4.767  0.00  0.00    -0.213 NA
ATOM      5  C   UNL     1       0.274  -1.139   4.639  0.00  0.00    +0.237 C 
ATOM      6  N   UNL     1      -0.503  -0.849   3.540  0.00  0.00    -0.208 N 
ATOM      7  N   UNL     1      -1.704  -1.542   3.710  0.00  0.00    -0.251 N 
ATOM      8  C   UNL     1      -1.598  -2.214   4.890  0.00  0.00    +0.203 C 
ATOM      9  N   UNL     1      -0.444  -1.970   5.425  0.00  0.00    -0.205 NA
ATOM     10  H   UNL     1      -2.463  -1.544   3.106  0.00  0.00    +0.171 HD
ENDROOT
BRANCH   1  17
ATOM     11  C   UNL     1      -0.018   1.503   0.010  0.00  0.00    +0.044 C 
ATOM     12  C   UNL     1       0.002  -0.004   0.002  0.00  0.00    -0.045 A 
ATOM     13  C   UNL     1       0.006  -0.689  -1.199  0.00  0.00    +0.004 A 
ATOM     14  C   UNL     1       0.025  -2.071  -1.207  0.00  0.00    +0.000 A 
ATOM     15  C   UNL     1       0.040  -2.768  -0.013  0.00  0.00    +0.000 A 
ATOM     16  C   UNL     1       0.037  -2.084   1.188  0.00  0.00    +0.006 A 
ATOM     17  C   UNL     1       0.023  -0.702   1.195  0.00  0.00    -0.019 A 
ENDBRANCH   1  17
BRANCH   3  18
ATOM     18  C   UNL     1       3.422   0.706   4.130  0.00  0.00    +0.037 A 
ATOM     19  C   UNL     1       4.245   0.450   5.194  0.00  0.00    +0.017 A 
ATOM     20  C   UNL     1       5.490   1.039   5.224  0.00  0.00    +0.008 A 
ATOM     21  C   UNL     1       5.862   1.852   4.202  0.00  0.00    +0.046 A 
ATOM     22  S   UNL     1       4.428   1.800   3.141  0.00  0.00    -0.095 S 
ENDBRANCH   3  18
TORSDOF 2
