REMARK  Name = ZINC22711101
REMARK  9 active torsions:
REMARK  status: ('A' for Active; 'I' for Inactive)
REMARK    1  A    between atoms: C_1  and  C_2
REMARK    2  A    between atoms: C_3  and  C_8
REMARK    3  A    between atoms: N_5  and  C_7
REMARK    4  A    between atoms: C_8  and  N_9
REMARK    5  A    between atoms: C_11  and  N_14
REMARK    6  A    between atoms: C_15  and  C_17
REMARK    7  A    between atoms: C_19  and  C_28
REMARK    8  A    between atoms: C_23  and  C_27
REMARK    9  A    between atoms: N_25  and  C_26
REMARK                            x       y       z     vdW  Elec       q    Type
REMARK                         _______ _______ _______ _____ _____    ______ ____
ROOT
ATOM      1  C   UNL     1      -0.756   3.026   4.468  0.00  0.00    +0.051 A 
ATOM      2  C   UNL     1       0.596   3.153   4.768  0.00  0.00    +0.042 A 
ATOM      3  C   UNL     1       1.544   2.632   3.884  0.00  0.00    +0.074 A 
ATOM      4  N   UNL     1       1.184   2.021   2.767  0.00  0.00    -0.228 NA
ATOM      5  C   UNL     1      -0.088   1.871   2.431  0.00  0.00    +0.160 A 
ATOM      6  C   UNL     1      -1.109   2.368   3.268  0.00  0.00    +0.054 A 
ATOM      7  C   UNL     1      -2.339   2.059   2.650  0.00  0.00    +0.070 A 
ATOM      8  N   UNL     1      -2.098   1.436   1.532  0.00  0.00    -0.174 NA
ATOM      9  N   UNL     1      -0.716   1.292   1.358  0.00  0.00    -0.249 N 
ATOM     10  C   UNL     1      -0.056   0.641   0.225  0.00  0.00    +0.174 C 
ATOM     11  C   UNL     1      -3.704   2.400   3.189  0.00  0.00    +0.068 C 
ENDROOT
BRANCH   3  12
ATOM     12  C   UNL     1       2.986   2.768   4.203  0.00  0.00    +0.001 A 
ATOM     13  C   UNL     1       3.386   3.413   5.372  0.00  0.00    +0.011 A 
ATOM     14  C   UNL     1       4.728   3.534   5.667  0.00  0.00    +0.020 A 
ATOM     15  C   UNL     1       5.678   3.022   4.799  0.00  0.00    +0.041 A 
ATOM     16  C   UNL     1       5.287   2.384   3.634  0.00  0.00    +0.020 A 
ATOM     17  C   UNL     1       3.947   2.255   3.332  0.00  0.00    +0.011 A 
ATOM     18 CL   UNL     1       7.366   3.182   5.172  0.00  0.00    -0.084 Cl
ENDBRANCH   3  12
BRANCH   1  20
ATOM     19  N   UNL     1      -1.631   3.471   6.711  0.00  0.00    -0.279 N 
ATOM     20  C   UNL     1      -1.792   3.563   5.376  0.00  0.00    +0.249 C 
ATOM     21  O   UNL     1      -2.789   4.087   4.919  0.00  0.00    -0.270 OA
ATOM     22  H   UNL     1      -0.729   2.997   7.125  0.00  0.00    +0.155 HD
BRANCH  19  25
ATOM     23  N   UNL     1      -3.718   4.548   9.383  0.00  0.00    -0.265 N 
ATOM     24  C   UNL     1      -2.584   3.951   8.932  0.00  0.00    +0.132 A 
ATOM     25  C   UNL     1      -2.617   3.982   7.575  0.00  0.00    +0.072 A 
ATOM     26  C   UNL     1      -3.811   4.608   7.188  0.00  0.00    +0.157 A 
ATOM     27  N   UNL     1      -4.467   4.945   8.268  0.00  0.00    -0.177 NA
BRANCH  23  28
ATOM     28  C   UNL     1      -4.094   4.736  10.786  0.00  0.00    +0.182 C 
BRANCH  28  31
ATOM     29  C   UNL     1      -6.848   6.219  10.277  0.00  0.00    +0.068 C 
ATOM     30  C   UNL     1      -5.590   6.851  10.815  0.00  0.00    +0.065 A 
ATOM     31  C   UNL     1      -4.375   6.195  11.039  0.00  0.00    +0.014 A 
ATOM     32  C   UNL     1      -3.497   7.101  11.529  0.00  0.00    +0.113 A 
ATOM     33  N   UNL     1      -4.132   8.290  11.604  0.00  0.00    -0.274 N 
ATOM     34  N   UNL     1      -5.446   8.106  11.153  0.00  0.00    -0.176 NA
ATOM     35  C   UNL     1      -3.551   9.548  12.078  0.00  0.00    +0.172 C 
ENDBRANCH  28  31
ENDBRANCH  23  28
ENDBRANCH  19  25
ENDBRANCH   1  20
TORSDOF 5
