REMARK  Name = ZINC06907489
REMARK  6 active torsions:
REMARK  status: ('A' for Active; 'I' for Inactive)
REMARK    1  A    between atoms: C_1  and  C_2
REMARK    2  A    between atoms: C_2  and  C_4
REMARK    3  A    between atoms: C_2  and  S_11
REMARK    4  A    between atoms: N_9  and  C_10
REMARK    5  A    between atoms: S_11  and  C_12
REMARK    6  A    between atoms: N_21  and  C_22
REMARK                            x       y       z     vdW  Elec       q    Type
REMARK                         _______ _______ _______ _____ _____    ______ ____
ROOT
ATOM      1  C   UNL     1      -2.223  -4.701   1.312  0.00  0.00    +0.178 A 
ATOM      2  N   UNL     1      -1.031  -5.140   0.964  0.00  0.00    -0.216 NA
ATOM      3  C   UNL     1      -0.889  -6.299   0.332  0.00  0.00    +0.116 A 
ATOM      4  C   UNL     1      -1.991  -7.112   0.005  0.00  0.00    +0.073 A 
ATOM      5  C   UNL     1      -1.658  -8.346  -0.685  0.00  0.00    +0.023 A 
ATOM      6  C   UNL     1      -0.373  -8.620  -0.956  0.00  0.00    +0.048 A 
ATOM      7  S   UNL     1       0.498  -7.214  -0.290  0.00  0.00    -0.077 S 
ATOM      8  C   UNL     1      -3.272  -6.611   0.396  0.00  0.00    +0.267 A 
ATOM      9  O   UNL     1      -4.283  -7.247   0.155  0.00  0.00    -0.267 OA
ATOM     10  N   UNL     1      -3.346  -5.431   1.038  0.00  0.00    -0.255 N 
ENDROOT
BRANCH  10  11
ATOM     11  C   UNL     1      -4.598  -4.938   1.428  0.00  0.00    +0.052 A 
ATOM     12  C   UNL     1      -5.115  -5.259   2.676  0.00  0.00    +0.026 A 
ATOM     13  C   UNL     1      -6.347  -4.767   3.060  0.00  0.00    +0.002 A 
ATOM     14  C   UNL     1      -7.071  -3.964   2.198  0.00  0.00    +0.000 A 
ATOM     15  C   UNL     1      -6.562  -3.647   0.952  0.00  0.00    +0.002 A 
ATOM     16  C   UNL     1      -5.328  -4.131   0.565  0.00  0.00    +0.026 A 
ENDBRANCH  10  11
BRANCH   1  17
ATOM     17  S   UNL     1      -2.371  -3.158   2.149  0.00  0.00    -0.075 S 
BRANCH  17  19
ATOM     18  C   UNL     1      -0.092  -2.445   0.822  0.00  0.00    +0.029 C 
ATOM     19  C   UNL     1      -0.628  -2.679   2.236  0.00  0.00    +0.137 C 
BRANCH  19  20
ATOM     20  C   UNL     1      -0.495  -1.411   3.040  0.00  0.00    +0.233 C 
ATOM     21  O   UNL     1      -1.456  -0.690   3.199  0.00  0.00    -0.274 OA
ATOM     22  N   UNL     1       0.694  -1.078   3.582  0.00  0.00    -0.239 N 
ATOM     23  C   UNL     1       0.813   0.056   4.300  0.00  0.00    +0.306 C 
ATOM     24  O   UNL     1      -0.150   0.781   4.455  0.00  0.00    -0.252 OA
ATOM     25  N   UNL     1       2.001   0.389   4.842  0.00  0.00    -0.302 N 
ATOM     26  C   UNL     1       2.131   1.621   5.623  0.00  0.00    +0.129 C 
ATOM     27  H   UNL     1       1.463  -1.655   3.454  0.00  0.00    +0.159 HD
ATOM     28  H   UNL     1       2.771  -0.188   4.715  0.00  0.00    +0.150 HD
ENDBRANCH  19  20
ENDBRANCH  17  19
ENDBRANCH   1  17
TORSDOF 4
