REMARK  Name = ZINC41583901
REMARK  8 active torsions:
REMARK  status: ('A' for Active; 'I' for Inactive)
REMARK    1  A    between atoms: C_1  and  C_2
REMARK    2  A    between atoms: C_5  and  C_31
REMARK    3  A    between atoms: N_8  and  C_10
REMARK    4  A    between atoms: C_10  and  C_11
REMARK    5  A    between atoms: C_12  and  O_30
REMARK    6  A    between atoms: C_19  and  C_22
REMARK    7  A    between atoms: C_27  and  O_28
REMARK    8  A    between atoms: O_28  and  C_29
REMARK                            x       y       z     vdW  Elec       q    Type
REMARK                         _______ _______ _______ _____ _____    ______ ____
ROOT
ATOM      1  C   UNL     1       2.146   0.211   3.650  0.00  0.00    +0.020 A 
ATOM      2  C   UNL     1       2.581   1.444   4.105  0.00  0.00    +0.122 A 
ATOM      3  C   UNL     1       1.979   2.048   5.207  0.00  0.00    +0.046 A 
ATOM      4  C   UNL     1       0.945   1.430   5.852  0.00  0.00    +0.019 A 
ATOM      5  C   UNL     1       0.494   0.189   5.403  0.00  0.00    +0.065 A 
ATOM      6  C   UNL     1       1.095  -0.430   4.292  0.00  0.00    +0.143 A 
ATOM      7  O   UNL     1       0.663  -1.634   3.868  0.00  0.00    -0.462 OA
ATOM      8  C   UNL     1      -0.509  -2.138   4.260  0.00  0.00    +0.208 A 
ATOM      9  C   UNL     1      -1.201  -1.649   5.322  0.00  0.00    +0.068 A 
ATOM     10  C   UNL     1      -0.624  -0.509   6.064  0.00  0.00    +0.200 A 
ATOM     11  O   UNL     1      -1.054  -0.158   7.150  0.00  0.00    -0.286 OA
ENDROOT
BRANCH   9  12
ATOM     12  C   UNL     1      -2.493  -2.252   5.732  0.00  0.00    +0.030 A 
ATOM     13  C   UNL     1      -2.561  -3.058   6.866  0.00  0.00    +0.012 A 
ATOM     14  C   UNL     1      -3.765  -3.616   7.243  0.00  0.00    +0.001 A 
ATOM     15  C   UNL     1      -4.907  -3.379   6.498  0.00  0.00    +0.004 A 
ATOM     16  C   UNL     1      -4.851  -2.581   5.371  0.00  0.00    +0.046 A 
ATOM     17  C   UNL     1      -3.649  -2.009   4.985  0.00  0.00    +0.128 A 
BRANCH  17  18
ATOM     18  O   UNL     1      -3.594  -1.220   3.880  0.00  0.00    -0.494 OA
ATOM     19  C   UNL     1      -4.815  -1.016   3.166  0.00  0.00    +0.277 C 
ENDBRANCH  17  18
ENDBRANCH   9  12
BRANCH   2  20
ATOM     20  O   UNL     1       3.605   2.071   3.472  0.00  0.00    -0.506 OA
ATOM     21  H   UNL     1       3.325   2.654   2.753  0.00  0.00    +0.292 HD
ENDBRANCH   2  20
BRANCH   1  22
ATOM     22  C   UNL     1       2.808  -0.431   2.458  0.00  0.00    -0.036 C 
BRANCH  22  28
ATOM     23  C   UNL     1      -0.019   1.526   0.010  0.00  0.00    +0.005 C 
ATOM     24  C   UNL     1       0.002  -0.004   0.002  0.00  0.00    -0.031 C 
ATOM     25  C   UNL     1       0.721  -0.499  -1.257  0.00  0.00    +0.003 C 
ATOM     26  C   UNL     1       2.177  -0.027  -1.220  0.00  0.00    -0.031 C 
ATOM     27  C   UNL     1       2.839  -0.534   0.063  0.00  0.00    -0.075 C 
ATOM     28  N   UNL     1       2.123  -0.005   1.230  0.00  0.00    +0.383 N 
ATOM     29  C   UNL     1       0.744  -0.512   1.240  0.00  0.00    -0.075 C 
ATOM     30  C   UNL     1       2.924  -0.581  -2.434  0.00  0.00    +0.005 C 
ATOM     31  H   UNL     1       2.109   1.003   1.187  0.00  0.00    -0.081 HD
ENDBRANCH  22  28
ENDBRANCH   1  22
TORSDOF 5
