REMARK  Name = ZINC09103764
REMARK  7 active torsions:
REMARK  status: ('A' for Active; 'I' for Inactive)
REMARK    1  A    between atoms: C_1  and  C_2
REMARK    2  A    between atoms: C_2  and  C_3
REMARK    3  A    between atoms: C_2  and  C_4
REMARK    4  A    between atoms: C_4  and  C_5
REMARK    5  A    between atoms: C_5  and  N_6
REMARK    6  A    between atoms: C_7  and  C_9
REMARK    7  A    between atoms: C_20  and  C_22
REMARK                            x       y       z     vdW  Elec       q    Type
REMARK                         _______ _______ _______ _____ _____    ______ ____
ROOT
ATOM      1  C   UNL     1       0.606  -2.171  -1.026  0.00  0.00    +0.124 C 
ATOM      2  C   UNL     1       1.321  -2.668  -2.284  0.00  0.00    +0.019 C 
ATOM      3  C   UNL     1       1.513  -4.185  -2.216  0.00  0.00    +0.006 C 
ATOM      4  C   UNL     1       2.561  -4.502  -1.137  0.00  0.00    +0.044 C 
ATOM      5  C   UNL     1       2.219  -3.724   0.088  0.00  0.00    +0.015 A 
ATOM      6  C   UNL     1       1.358  -2.679   0.198  0.00  0.00    +0.066 A 
ATOM      7  N   UNL     1       1.229  -2.155   1.415  0.00  0.00    -0.229 NA
ATOM      8  C   UNL     1       1.896  -2.617   2.452  0.00  0.00    +0.165 A 
ATOM      9  S   UNL     1       2.816  -3.913   1.746  0.00  0.00    -0.057 S 
ATOM     10  N   UNL     1       1.871  -2.182   3.771  0.00  0.00    -0.261 N 
ATOM     11  C   UNL     1       2.636  -2.793   4.697  0.00  0.00    +0.250 C 
ATOM     12  O   UNL     1       3.348  -3.726   4.378  0.00  0.00    -0.270 OA
ATOM     13  H   UNL     1       1.304  -1.438   4.025  0.00  0.00    +0.157 HD
ENDROOT
BRANCH  11  14
ATOM     14  C   UNL     1       2.609  -2.330   6.098  0.00  0.00    +0.041 A 
ATOM     15  C   UNL     1       1.797  -1.255   6.465  0.00  0.00    +0.017 A 
ATOM     16  C   UNL     1       1.770  -0.828   7.775  0.00  0.00    +0.050 A 
ATOM     17  C   UNL     1       2.556  -1.455   8.731  0.00  0.00    +0.166 A 
ATOM     18  C   UNL     1       3.374  -2.527   8.370  0.00  0.00    +0.167 A 
ATOM     19  C   UNL     1       3.401  -2.963   7.060  0.00  0.00    +0.062 A 
ATOM     20  O   UNL     1       4.037  -2.962   9.481  0.00  0.00    -0.453 OA
ATOM     21  C   UNL     1       3.313  -2.416  10.599  0.00  0.00    +0.466 C 
ATOM     22  O   UNL     1       2.709  -1.222  10.066  0.00  0.00    -0.453 OA
ENDBRANCH  11  14
BRANCH   1  24
ATOM     23  N   UNL     1       0.002  -0.004   0.002  0.00  0.00    -0.315 N 
ATOM     24  C   UNL     1       0.585  -0.664  -1.018  0.00  0.00    +0.222 C 
ATOM     25  O   UNL     1       1.093  -0.046  -1.929  0.00  0.00    -0.275 OA
ATOM     26  H   UNL     1      -0.404  -0.499   0.731  0.00  0.00    +0.149 HD
BRANCH  23  27
ATOM     27  C   UNL     1      -0.018   1.461   0.010  0.00  0.00    +0.104 C 
BRANCH  27  28
ATOM     28  C   UNL     1      -0.734   1.954   1.269  0.00  0.00    +0.022 C 
BRANCH  28  30
ATOM     29  C   UNL     1      -1.600   3.989   0.106  0.00  0.00    +0.007 C 
ATOM     30  C   UNL     1      -0.755   3.484   1.277  0.00  0.00    -0.016 C 
ATOM     31  C   UNL     1      -1.359   3.979   2.593  0.00  0.00    +0.007 C 
ENDBRANCH  28  30
ENDBRANCH  27  28
ENDBRANCH  23  27
ENDBRANCH   1  24
TORSDOF 5
