REMARK  Name = ZINC01225210
REMARK  8 active torsions:
REMARK  status: ('A' for Active; 'I' for Inactive)
REMARK    1  A    between atoms: C_1  and  C_2
REMARK    2  A    between atoms: C_2  and  O_3
REMARK    3  A    between atoms: O_3  and  C_4
REMARK    4  A    between atoms: C_4  and  C_6
REMARK    5  A    between atoms: N_17  and  C_20
REMARK    6  A    between atoms: C_18  and  N_19
REMARK    7  A    between atoms: C_20  and  C_22
REMARK    8  A    between atoms: C_20  and  C_23
REMARK                            x       y       z     vdW  Elec       q    Type
REMARK                         _______ _______ _______ _____ _____    ______ ____
ROOT
ATOM      1  C   UNL     1       5.669   1.564   0.498  0.00  0.00    +0.126 A 
ATOM      2  C   UNL     1       4.202   1.597   0.379  0.00  0.00    +0.124 A 
ATOM      3  C   UNL     1       3.862   3.006   0.163  0.00  0.00    +0.163 A 
ATOM      4  N   UNL     1       2.601   3.353   0.018  0.00  0.00    -0.226 NA
ATOM      5  C   UNL     1       1.642   2.419   0.069  0.00  0.00    +0.092 A 
ATOM      6  C   UNL     1       0.291   2.781  -0.086  0.00  0.00    +0.030 A 
ATOM      7  C   UNL     1      -0.676   1.826  -0.033  0.00  0.00    +0.002 A 
ATOM      8  C   UNL     1      -0.350   0.486   0.167  0.00  0.00    +0.002 A 
ATOM      9  C   UNL     1       0.944   0.098   0.326  0.00  0.00    +0.030 A 
ATOM     10  C   UNL     1       1.973   1.057   0.277  0.00  0.00    +0.090 A 
ATOM     11  N   UNL     1       3.251   0.686   0.426  0.00  0.00    -0.241 NA
ATOM     12  N   UNL     1       5.048   3.712   0.161  0.00  0.00    -0.305 N 
ATOM     13  C   UNL     1       6.105   2.878   0.355  0.00  0.00    +0.115 A 
ENDROOT
BRANCH  13  14
ATOM     14  N   UNL     1       7.415   3.276   0.405  0.00  0.00    -0.344 N 
ATOM     15  H   UNL     1       7.637   4.220   0.370  0.00  0.00    +0.144 HD
ATOM     16  H   UNL     1       8.121   2.614   0.474  0.00  0.00    +0.144 HD
ENDBRANCH  13  14
BRANCH   1  17
ATOM     17  C   UNL     1       6.476   0.421   0.714  0.00  0.00    +0.345 C 
ATOM     18  O   UNL     1       6.742   0.070   1.849  0.00  0.00    -0.245 OA
BRANCH  17  19
ATOM     19  O   UNL     1       6.951  -0.278  -0.337  0.00  0.00    -0.461 OA
BRANCH  19  21
ATOM     20  C   UNL     1       8.201  -2.080  -1.353  0.00  0.00    +0.048 C 
ATOM     21  C   UNL     1       7.759  -1.420  -0.045  0.00  0.00    +0.229 C 
ENDBRANCH  19  21
ENDBRANCH  17  19
ENDBRANCH   1  17
BRANCH  12  22
ATOM     22  C   UNL     1       5.154   5.161  -0.026  0.00  0.00    +0.117 C 
ATOM     23  C   UNL     1       4.425   5.565  -1.309  0.00  0.00    +0.036 C 
BRANCH  22  24
ATOM     24  C   UNL     1       4.529   5.866   1.150  0.00  0.00    -0.025 A 
ATOM     25  C   UNL     1       3.158   5.829   1.329  0.00  0.00    +0.005 A 
ATOM     26  C   UNL     1       2.585   6.472   2.410  0.00  0.00    +0.000 A 
ATOM     27  C   UNL     1       3.381   7.160   3.307  0.00  0.00    +0.000 A 
ATOM     28  C   UNL     1       4.750   7.201   3.125  0.00  0.00    +0.000 A 
ATOM     29  C   UNL     1       5.324   6.554   2.046  0.00  0.00    +0.005 A 
ENDBRANCH  22  24
ENDBRANCH  12  22
TORSDOF 6
