REMARK  Name = ZINC09018280
REMARK  6 active torsions:
REMARK  status: ('A' for Active; 'I' for Inactive)
REMARK    1  A    between atoms: C_1  and  C_2
REMARK    2  A    between atoms: C_2  and  C_3
REMARK    3  A    between atoms: C_11  and  S_14
REMARK    4  A    between atoms: S_14  and  C_15
REMARK    5  A    between atoms: C_15  and  C_16
REMARK    6  A    between atoms: C_21  and  C_24
REMARK                            x       y       z     vdW  Elec       q    Type
REMARK                         _______ _______ _______ _____ _____    ______ ____
ROOT
ATOM      1  C   UNL     1      -8.249   4.812   8.022  0.00  0.00    +0.034 A 
ATOM      2  C   UNL     1      -9.156   5.229   8.924  0.00  0.00    +0.092 A 
ATOM      3  C   UNL     1     -10.521   5.336   8.556  0.00  0.00    +0.253 A 
ATOM      4  O   UNL     1     -11.345   5.713   9.369  0.00  0.00    -0.268 OA
ATOM      5  N   UNL     1     -10.903   5.019   7.302  0.00  0.00    -0.291 N 
ATOM      6  H   UNL     1     -11.835   5.091   7.045  0.00  0.00    +0.172 HD
ATOM      7  C   UNL     1      -9.961   4.592   6.381  0.00  0.00    +0.237 A 
ATOM      8  N   UNL     1      -8.643   4.485   6.745  0.00  0.00    -0.260 N 
ATOM      9  C   UNL     1      -7.940   4.050   5.654  0.00  0.00    +0.198 A 
ATOM     10  N   UNL     1      -8.786   3.887   4.666  0.00  0.00    -0.120 NA
ATOM     11  N   UNL     1     -10.064   4.230   5.125  0.00  0.00    -0.109 NA
ENDROOT
BRANCH   1  13
ATOM     12  C   UNL     1      -6.497   3.260   8.839  0.00  0.00    +0.010 C 
ATOM     13  C   UNL     1      -6.798   4.698   8.414  0.00  0.00    +0.051 C 
ENDBRANCH   1  13
BRANCH   9  14
ATOM     14  S   UNL     1      -6.204   3.754   5.590  0.00  0.00    -0.076 S 
BRANCH  14  15
ATOM     15  C   UNL     1      -5.916   3.196   3.889  0.00  0.00    +0.173 C 
BRANCH  15  16
ATOM     16  C   UNL     1      -4.449   2.904   3.697  0.00  0.00    +0.229 C 
ATOM     17  O   UNL     1      -3.675   3.058   4.618  0.00  0.00    -0.275 OA
ATOM     18  N   UNL     1      -3.999   2.473   2.502  0.00  0.00    -0.264 N 
ATOM     19  C   UNL     1      -2.646   2.204   2.326  0.00  0.00    +0.165 A 
ATOM     20  N   UNL     1      -2.019   1.784   1.244  0.00  0.00    -0.230 NA
ATOM     21  C   UNL     1      -0.718   1.572   1.248  0.00  0.00    +0.047 A 
ATOM     22  C   UNL     1      -0.029   1.806   2.391  0.00  0.00    +0.071 A 
ATOM     23  S   UNL     1      -1.348   2.342   3.471  0.00  0.00    -0.060 S 
ATOM     24  C   UNL     1      -0.013   1.086   0.008  0.00  0.00    +0.066 C 
ATOM     25  H   UNL     1      -4.618   2.351   1.766  0.00  0.00    +0.157 HD
ENDBRANCH  15  16
ENDBRANCH  14  15
ENDBRANCH   9  14
TORSDOF 4
