REMARK  Name = ZINC33039302
REMARK  6 active torsions:
REMARK  status: ('A' for Active; 'I' for Inactive)
REMARK    1  A    between atoms: C_1  and  C_2
REMARK    2  A    between atoms: C_2  and  C_4
REMARK    3  A    between atoms: C_2  and  S_20
REMARK    4  A    between atoms: C_10  and  C_15
REMARK    5  A    between atoms: S_20  and  C_21
REMARK    6  A    between atoms: N_25  and  C_26
REMARK                            x       y       z     vdW  Elec       q    Type
REMARK                         _______ _______ _______ _____ _____    ______ ____
ROOT
ATOM      1  C   UNL     1       0.624  -0.843   1.190  0.00  0.00    +0.124 A 
ATOM      2  N   UNL     1       1.962  -1.062   1.124  0.00  0.00    -0.309 N 
ATOM      3  H   UNL     1       2.439  -0.852   0.305  0.00  0.00    +0.170 HD
ATOM      4  C   UNL     1       2.641  -1.565   2.171  0.00  0.00    +0.260 A 
ATOM      5  O   UNL     1       3.842  -1.756   2.096  0.00  0.00    -0.267 OA
ATOM      6  C   UNL     1       1.930  -1.873   3.375  0.00  0.00    +0.083 A 
ATOM      7  C   UNL     1       2.434  -2.419   4.630  0.00  0.00    +0.039 A 
ATOM      8  C   UNL     1       1.560  -2.628   5.647  0.00  0.00    +0.059 A 
ATOM      9  S   UNL     1       0.001  -2.098   4.966  0.00  0.00    -0.076 S 
ATOM     10  C   UNL     1       0.550  -1.613   3.350  0.00  0.00    +0.116 A 
ATOM     11  N   UNL     1      -0.051  -1.108   2.276  0.00  0.00    -0.225 NA
ENDROOT
BRANCH   7  12
ATOM     12  C   UNL     1       3.867  -2.738   4.792  0.00  0.00    +0.136 A 
ATOM     13  C   UNL     1       4.660  -2.351   5.827  0.00  0.00    +0.050 A 
ATOM     14  C   UNL     1       5.944  -2.874   5.573  0.00  0.00    +0.042 A 
ATOM     15  C   UNL     1       5.873  -3.548   4.409  0.00  0.00    +0.196 A 
ATOM     16  O   UNL     1       4.615  -3.468   3.942  0.00  0.00    -0.463 OA
ENDBRANCH   7  12
BRANCH   1  18
ATOM     17  C   UNL     1      -0.197   1.243   0.129  0.00  0.00    +0.027 C 
ATOM     18  C   UNL     1      -0.094  -0.277  -0.009  0.00  0.00    +0.117 C 
BRANCH  18  19
ATOM     19  S   UNL     1       0.830  -0.687  -1.515  0.00  0.00    -0.075 S 
BRANCH  19  20
ATOM     20  C   UNL     1      -0.198  -0.096  -2.819  0.00  0.00    +0.193 A 
ATOM     21  N   UNL     1      -1.355   0.503  -2.677  0.00  0.00    -0.121 NA
ATOM     22  N   UNL     1      -1.842   0.812  -3.954  0.00  0.00    -0.112 NA
ATOM     23  C   UNL     1      -0.967   0.392  -4.834  0.00  0.00    +0.220 A 
ATOM     24  N   UNL     1       0.074  -0.176  -4.156  0.00  0.00    -0.293 N 
ATOM     25  C   UNL     1       1.272  -0.769  -4.757  0.00  0.00    +0.154 C 
ATOM     26  N   UNL     1      -1.077   0.507  -6.213  0.00  0.00    -0.295 N 
ATOM     27  C   UNL     1      -1.728  -0.544  -7.012  0.00  0.00    +0.136 C 
ATOM     28  C   UNL     1      -2.770   0.116  -7.922  0.00  0.00    +0.179 C 
ATOM     29  O   UNL     1      -2.152   1.178  -8.653  0.00  0.00    -0.377 OA
ATOM     30  C   UNL     1      -1.647   2.236  -7.834  0.00  0.00    +0.179 C 
ATOM     31  C   UNL     1      -0.552   1.687  -6.919  0.00  0.00    +0.136 C 
ENDBRANCH  19  20
ENDBRANCH  18  19
ENDBRANCH   1  18
TORSDOF 4
