REMARK  Name = ZINC22319724
REMARK  9 active torsions:
REMARK  status: ('A' for Active; 'I' for Inactive)
REMARK    1  A    between atoms: C_1  and  C_2
REMARK    2  A    between atoms: C_4  and  C_8
REMARK    3  A    between atoms: C_5  and  C_7
REMARK    4  A    between atoms: C_10  and  C_20
REMARK    5  A    between atoms: N_14  and  C_17
REMARK    6  A    between atoms: C_17  and  C_18
REMARK    7  A    between atoms: C_17  and  C_19
REMARK    8  A    between atoms: N_22  and  C_23
REMARK    9  A    between atoms: C_28  and  O_29
REMARK                            x       y       z     vdW  Elec       q    Type
REMARK                         _______ _______ _______ _____ _____    ______ ____
ROOT
ATOM      1  C   UNL     1       0.753  -2.634  -0.054  0.00  0.00    +0.075 A 
ATOM      2  C   UNL     1      -0.612  -2.326  -0.027  0.00  0.00    +0.042 A 
ATOM      3  C   UNL     1      -1.008  -0.995  -0.013  0.00  0.00    +0.051 A 
ATOM      4  C   UNL     1       0.001  -0.002  -0.025  0.00  0.00    +0.051 A 
ATOM      5  C   UNL     1      -0.019   1.408  -0.016  0.00  0.00    +0.145 A 
ATOM      6  N   UNL     1       1.210   1.841  -0.035  0.00  0.00    -0.177 NA
ATOM      7  N   UNL     1       2.093   0.755  -0.058  0.00  0.00    -0.244 N 
ATOM      8  C   UNL     1       1.353  -0.398  -0.051  0.00  0.00    +0.160 A 
ATOM      9  N   UNL     1       1.674  -1.684  -0.064  0.00  0.00    -0.227 NA
ENDROOT
BRANCH   1  13
ATOM     10  C   UNL     1      -0.096  -7.639  -0.066  0.00  0.00    +0.051 C 
ATOM     11  C   UNL     1       0.690  -6.353  -0.073  0.00  0.00    -0.012 A 
ATOM     12  C   UNL     1       0.233  -5.080  -0.053  0.00  0.00    +0.021 A 
ATOM     13  C   UNL     1       1.176  -4.054  -0.069  0.00  0.00    +0.011 A 
ATOM     14  C   UNL     1       2.499  -4.390  -0.095  0.00  0.00    -0.004 A 
ATOM     15  S   UNL     1       2.458  -6.123  -0.103  0.00  0.00    -0.098 S 
ATOM     16  C   UNL     1       3.700  -3.479  -0.112  0.00  0.00    +0.052 C 
ENDBRANCH   1  13
BRANCH   3  17
ATOM     17  C   UNL     1      -2.439  -0.626   0.014  0.00  0.00    +0.249 C 
ATOM     18  O   UNL     1      -2.765   0.545   0.027  0.00  0.00    -0.270 OA
ATOM     19  N   UNL     1      -3.383  -1.588   0.025  0.00  0.00    -0.279 N 
ATOM     20  H   UNL     1      -3.091  -2.645  -0.061  0.00  0.00    +0.155 HD
BRANCH  19  21
ATOM     21  C   UNL     1      -4.734  -1.242   0.145  0.00  0.00    +0.076 A 
ATOM     22  C   UNL     1      -5.207  -0.073  -0.435  0.00  0.00    +0.027 A 
ATOM     23  C   UNL     1      -6.542   0.264  -0.319  0.00  0.00    +0.002 A 
ATOM     24  C   UNL     1      -7.407  -0.555   0.383  0.00  0.00    +0.004 A 
ATOM     25  C   UNL     1      -6.942  -1.718   0.968  0.00  0.00    +0.047 A 
ATOM     26  C   UNL     1      -5.606  -2.066   0.852  0.00  0.00    +0.138 A 
BRANCH  26  27
ATOM     27  O   UNL     1      -5.148  -3.210   1.427  0.00  0.00    -0.505 OA
ATOM     28  H   UNL     1      -5.838  -3.860   1.985  0.00  0.00    +0.292 HD
ENDBRANCH  26  27
ENDBRANCH  19  21
ENDBRANCH   3  17
BRANCH   7  29
ATOM     29  C   UNL     1       3.556   0.838  -0.083  0.00  0.00    +0.103 C 
ATOM     30  C   UNL     1       4.002   1.594  -1.336  0.00  0.00    +0.032 C 
ATOM     31  C   UNL     1       4.047   1.579   1.162  0.00  0.00    +0.032 C 
ENDBRANCH   7  29
TORSDOF 5
