REMARK  Name = ZINC39357112
REMARK  5 active torsions:
REMARK  status: ('A' for Active; 'I' for Inactive)
REMARK    1  A    between atoms: C_1  and  N_2
REMARK    2  A    between atoms: N_2  and  C_3
REMARK    3  A    between atoms: C_3  and  C_4
REMARK    4  A    between atoms: C_7  and  C_9
REMARK    5  A    between atoms: C_18  and  C_21
REMARK                            x       y       z     vdW  Elec       q    Type
REMARK                         _______ _______ _______ _____ _____    ______ ____
ROOT
ATOM      1  C   UNL     1      -0.018   1.461   0.010  0.00  0.00    +0.134 C 
ATOM      2  N   UNL     1       0.002  -0.004   0.002  0.00  0.00    -0.283 N 
ATOM      3  C   UNL     1       0.000  -0.672  -1.169  0.00  0.00    +0.308 C 
ATOM      4  O   UNL     1       0.017  -1.887  -1.175  0.00  0.00    -0.252 OA
ATOM      5  N   UNL     1      -0.020   0.009  -2.332  0.00  0.00    -0.247 N 
ATOM      6  C   UNL     1      -0.022  -0.681  -3.542  0.00  0.00    +0.180 C 
ATOM      7  N   UNL     1      -0.012  -1.964  -3.730  0.00  0.00    -0.163 NA
ATOM      8  N   UNL     1      -0.016  -2.545  -4.978  0.00  0.00    -0.249 N 
ATOM      9  C   UNL     1      -0.032  -1.597  -6.115  0.00  0.00    +0.184 C 
ATOM     10  S   UNL     1      -0.047  -0.004  -5.194  0.00  0.00    -0.060 S 
ATOM     11  H   UNL     1      -0.033   0.978  -2.327  0.00  0.00    +0.158 HD
ATOM     12  H   UNL     1      -0.008  -3.507  -5.103  0.00  0.00    +0.170 HD
ENDROOT
BRANCH   9  13
ATOM     13  C   UNL     1       1.206  -1.736  -6.963  0.00  0.00    -0.016 A 
ATOM     14  C   UNL     1       2.394  -2.146  -6.388  0.00  0.00    +0.006 A 
ATOM     15  C   UNL     1       3.530  -2.273  -7.166  0.00  0.00    +0.000 A 
ATOM     16  C   UNL     1       3.477  -1.992  -8.518  0.00  0.00    +0.000 A 
ATOM     17  C   UNL     1       2.288  -1.583  -9.093  0.00  0.00    +0.000 A 
ATOM     18  C   UNL     1       1.152  -1.460  -8.316  0.00  0.00    +0.006 A 
ENDBRANCH   9  13
BRANCH   2  19
ATOM     19  C   UNL     1       0.024  -0.743   1.267  0.00  0.00    +0.162 C 
BRANCH  19  20
ATOM     20  C   UNL     1      -1.389  -1.016   1.714  0.00  0.00    +0.064 C 
ATOM     21  N   UNL     1      -2.477  -0.676   1.106  0.00  0.00    -0.157 NA
ATOM     22  N   UNL     1      -3.618  -1.084   1.790  0.00  0.00    -0.158 NA
ATOM     23  C   UNL     1      -3.338  -1.713   2.884  0.00  0.00    +0.050 C 
ATOM     24  C   UNL     1      -1.825  -1.752   2.966  0.00  0.00    +0.107 C 
BRANCH  23  25
ATOM     25  C   UNL     1      -4.316  -2.295   3.872  0.00  0.00    +0.036 C 
ATOM     26  C   UNL     1      -5.222  -3.428   3.385  0.00  0.00    +0.010 C 
ATOM     27  C   UNL     1      -5.804  -2.034   3.629  0.00  0.00    +0.010 C 
ENDBRANCH  23  25
ENDBRANCH  19  20
ENDBRANCH   2  19
TORSDOF 4
