REMARK  Name = ZINC08754864
REMARK  6 active torsions:
REMARK  status: ('A' for Active; 'I' for Inactive)
REMARK    1  A    between atoms: C_1  and  C_2
REMARK    2  A    between atoms: C_2  and  C_4
REMARK    3  A    between atoms: C_2  and  N_12
REMARK    4  A    between atoms: C_13  and  C_15
REMARK    5  A    between atoms: C_15  and  N_16
REMARK    6  A    between atoms: C_17  and  C_19
REMARK                            x       y       z     vdW  Elec       q    Type
REMARK                         _______ _______ _______ _____ _____    ______ ____
ROOT
ATOM      1  N   UNL     1       2.334   5.363   0.897  0.00  0.00    -0.307 N 
ATOM      2  C   UNL     1       3.440   5.899   1.449  0.00  0.00    +0.231 C 
ATOM      3  O   UNL     1       4.530   5.426   1.205  0.00  0.00    -0.274 OA
ATOM      4  H   UNL     1       1.462   5.742   1.092  0.00  0.00    +0.149 HD
ENDROOT
BRANCH   1   6
ATOM      5  C   UNL     1       2.744   4.693  -1.419  0.00  0.00    +0.033 C 
ATOM      6  C   UNL     1       2.448   4.209   0.002  0.00  0.00    +0.100 C 
BRANCH   6   7
ATOM      7  C   UNL     1       1.153   3.438   0.010  0.00  0.00    -0.025 A 
ATOM      8  C   UNL     1      -0.053   4.113   0.025  0.00  0.00    +0.008 A 
ATOM      9  C   UNL     1      -1.242   3.408   0.032  0.00  0.00    +0.041 A 
ATOM     10  C   UNL     1      -1.226   2.024   0.019  0.00  0.00    +0.158 A 
ATOM     11  C   UNL     1      -0.016   1.347   0.009  0.00  0.00    +0.159 A 
ATOM     12  C   UNL     1       1.172   2.056   0.002  0.00  0.00    +0.046 A 
ATOM     13  F   UNL     1       0.002  -0.004   0.002  0.00  0.00    -0.202 F 
ATOM     14  F   UNL     1      -2.387   1.335   0.021  0.00  0.00    -0.202 F 
ENDBRANCH   6   7
ENDBRANCH   1   6
BRANCH   2  15
ATOM     15  C   UNL     1       3.323   7.086   2.370  0.00  0.00    +0.200 C 
BRANCH  15  16
ATOM     16  N   UNL     1       4.657   7.477   2.835  0.00  0.00    -0.303 N 
ATOM     17  C   UNL     1       4.798   8.522   3.674  0.00  0.00    +0.245 C 
ATOM     18  O   UNL     1       3.820   9.140   4.046  0.00  0.00    -0.270 OA
ATOM     19  H   UNL     1       5.437   6.984   2.539  0.00  0.00    +0.150 HD
BRANCH  17  20
ATOM     20  C   UNL     1       6.141   8.916   4.143  0.00  0.00    +0.040 A 
ATOM     21  C   UNL     1       7.267   8.203   3.721  0.00  0.00    +0.017 A 
ATOM     22  C   UNL     1       8.520   8.575   4.155  0.00  0.00    +0.050 A 
ATOM     23  C   UNL     1       8.669   9.651   5.020  0.00  0.00    +0.166 A 
ATOM     24  C   UNL     1       7.549  10.364   5.449  0.00  0.00    +0.167 A 
ATOM     25  C   UNL     1       6.290   9.999   5.013  0.00  0.00    +0.062 A 
ATOM     26  O   UNL     1       7.962  11.362   6.284  0.00  0.00    -0.453 OA
ATOM     27  C   UNL     1       9.296  11.000   6.685  0.00  0.00    +0.466 C 
ATOM     28  O   UNL     1       9.780  10.204   5.587  0.00  0.00    -0.453 OA
ENDBRANCH  17  20
ENDBRANCH  15  16
ENDBRANCH   2  15
TORSDOF 5
