REMARK  Name = ZINC17653543
REMARK  5 active torsions:
REMARK  status: ('A' for Active; 'I' for Inactive)
REMARK    1  A    between atoms: C_5  and  C_7
REMARK    2  A    between atoms: C_10  and  S_13
REMARK    3  A    between atoms: N_11  and  N_12
REMARK    4  A    between atoms: S_13  and  C_14
REMARK    5  A    between atoms: C_14  and  C_15
REMARK                            x       y       z     vdW  Elec       q    Type
REMARK                         _______ _______ _______ _____ _____    ______ ____
ROOT
ATOM      1  C   UNL     1      -5.154   4.458   1.730  0.00  0.00    +0.183 A 
ATOM      2  N   UNL     1      -4.985   4.215   0.451  0.00  0.00    -0.127 NA
ATOM      3  N   UNL     1      -3.985   3.424   0.284  0.00  0.00    -0.121 NA
ATOM      4  C   UNL     1      -3.460   3.108   1.446  0.00  0.00    +0.209 A 
ATOM      5  N   UNL     1      -4.183   3.757   2.407  0.00  0.00    -0.224 N 
ENDROOT
BRANCH   1  10
ATOM      6  C   UNL     1      -6.820   7.065   3.859  0.00  0.00    +0.001 A 
ATOM      7  C   UNL     1      -8.137   6.944   3.453  0.00  0.00    +0.001 A 
ATOM      8  C   UNL     1      -8.488   6.016   2.489  0.00  0.00    +0.021 A 
ATOM      9  C   UNL     1      -7.522   5.208   1.921  0.00  0.00    +0.052 A 
ATOM     10  C   UNL     1      -6.192   5.323   2.330  0.00  0.00    +0.039 A 
ATOM     11  C   UNL     1      -5.846   6.261   3.304  0.00  0.00    +0.013 A 
ATOM     12 CL   UNL     1      -7.963   4.049   0.706  0.00  0.00    -0.083 Cl
ENDBRANCH   1  10
BRANCH   5  13
ATOM     13  N   UNL     1      -3.982   3.718   3.757  0.00  0.00    -0.295 N 
ATOM     14  H   UNL     1      -3.419   4.498   4.062  0.00  0.00    +0.163 HD
ATOM     15  H   UNL     1      -4.861   3.692   4.253  0.00  0.00    +0.163 HD
ENDBRANCH   5  13
BRANCH   4  16
ATOM     16  S   UNL     1      -2.078   2.049   1.715  0.00  0.00    -0.080 S 
BRANCH  16  17
ATOM     17  C   UNL     1      -1.691   1.597   0.006  0.00  0.00    +0.112 C 
BRANCH  17  18
ATOM     18  C   UNL     1      -0.505   0.668  -0.012  0.00  0.00    -0.032 A 
ATOM     19  C   UNL     1      -0.700  -0.700   0.063  0.00  0.00    +0.054 A 
ATOM     20  C   UNL     1       0.392  -1.552   0.041  0.00  0.00    +0.164 A 
ATOM     21  C   UNL     1       1.676  -1.034  -0.056  0.00  0.00    +0.180 A 
ATOM     22  C   UNL     1       1.868   0.336  -0.130  0.00  0.00    +0.086 A 
ATOM     23  C   UNL     1       0.774   1.184  -0.108  0.00  0.00    +0.028 A 
ATOM     24 CL   UNL     1       3.473   0.986  -0.251  0.00  0.00    -0.080 Cl
ATOM     25  O   UNL     1       2.745  -1.882  -0.076  0.00  0.00    -0.487 OA
ATOM     26  C   UNL     1       2.873  -2.698  -1.242  0.00  0.00    +0.232 C 
ATOM     27  C   UNL     1       2.023  -3.952  -1.119  0.00  0.00    +0.082 C 
ATOM     28  C   UNL     1       0.535  -3.640  -1.066  0.00  0.00    +0.232 C 
ATOM     29  O   UNL     1       0.213  -2.903   0.115  0.00  0.00    -0.488 OA
ENDBRANCH  17  18
ENDBRANCH  16  17
ENDBRANCH   4  16
TORSDOF 5
