REMARK  Name = ZINC39364146
REMARK  9 active torsions:
REMARK  status: ('A' for Active; 'I' for Inactive)
REMARK    1  A    between atoms: C_1  and  C_2
REMARK    2  A    between atoms: C_4  and  C_8
REMARK    3  A    between atoms: C_8  and  N_9
REMARK    4  A    between atoms: N_9  and  C_10
REMARK    5  A    between atoms: C_11  and  C_13
REMARK    6  A    between atoms: C_13  and  C_14
REMARK    7  A    between atoms: N_21  and  C_22
REMARK    8  A    between atoms: C_22  and  C_23
REMARK    9  A    between atoms: C_27  and  C_29
REMARK                            x       y       z     vdW  Elec       q    Type
REMARK                         _______ _______ _______ _____ _____    ______ ____
ROOT
ATOM      1  C   UNL     1      -1.852   0.686  -4.526  0.00  0.00    +0.028 C 
ATOM      2  C   UNL     1      -1.407   1.491  -5.714  0.00  0.00    +0.200 C 
ATOM      3  O   UNL     1      -0.259   1.881  -5.755  0.00  0.00    -0.278 OA
ATOM      4  N   UNL     1      -2.225   1.794  -6.728  0.00  0.00    -0.318 N 
ATOM      5  C   UNL     1      -3.614   1.345  -6.780  0.00  0.00    +0.085 C 
ATOM      6  C   UNL     1      -4.072   0.906  -5.388  0.00  0.00    -0.058 C 
ATOM      7  N   UNL     1      -3.086  -0.042  -4.845  0.00  0.00    +0.391 N 
ATOM      8  H   UNL     1      -1.882   2.333  -7.458  0.00  0.00    +0.149 HD
ATOM      9  H   UNL     1      -2.890  -0.756  -5.530  0.00  0.00    -0.080 HD
ENDROOT
BRANCH   1  10
ATOM     10  C   UNL     1      -0.756  -0.314  -4.151  0.00  0.00    +0.090 C 
BRANCH  10  13
ATOM     11  N   UNL     1       1.507  -0.254  -3.153  0.00  0.00    -0.301 N 
ATOM     12  C   UNL     1       1.509  -1.719  -3.189  0.00  0.00    +0.132 C 
ATOM     13  C   UNL     1       0.437   0.429  -3.607  0.00  0.00    +0.214 C 
ATOM     14  O   UNL     1       0.435   1.641  -3.577  0.00  0.00    -0.276 OA
BRANCH  11  15
ATOM     15  C   UNL     1       2.666   0.468  -2.624  0.00  0.00    +0.158 C 
BRANCH  15  19
ATOM     16  C   UNL     1       2.466   1.347  -7.210  0.00  0.00    +0.067 C 
ATOM     17  C   UNL     1       3.026   0.885  -5.889  0.00  0.00    +0.053 C 
ATOM     18  N   UNL     1       3.007   1.570  -4.795  0.00  0.00    -0.259 NA
ATOM     19  C   UNL     1       3.652   0.752  -3.759  0.00  0.00    +0.237 C 
ATOM     20  N   UNL     1       4.042  -0.501  -4.418  0.00  0.00    -0.262 NA
ATOM     21  C   UNL     1       3.669  -0.417  -5.651  0.00  0.00    +0.130 C 
ENDBRANCH  15  19
ENDBRANCH  11  15
ENDBRANCH  10  13
ENDBRANCH   1  10
BRANCH   7  22
ATOM     22  C   UNL     1      -3.622  -0.660  -3.625  0.00  0.00    -0.042 C 
BRANCH  22  23
ATOM     23  C   UNL     1      -4.809  -1.520  -3.978  0.00  0.00    -0.063 A 
ATOM     24  C   UNL     1      -6.079  -0.974  -3.988  0.00  0.00    +0.002 A 
ATOM     25  C   UNL     1      -7.167  -1.762  -4.311  0.00  0.00    +0.001 A 
ATOM     26  C   UNL     1      -6.986  -3.097  -4.624  0.00  0.00    +0.012 A 
ATOM     27  C   UNL     1      -5.716  -3.642  -4.615  0.00  0.00    +0.055 A 
ATOM     28  C   UNL     1      -4.627  -2.852  -4.296  0.00  0.00    +0.014 A 
BRANCH  27  29
ATOM     29  C   UNL     1      -5.518  -5.096  -4.956  0.00  0.00    +0.417 C 
ATOM     30  F   UNL     1      -6.756  -5.681  -5.244  0.00  0.00    -0.166 F 
ATOM     31  F   UNL     1      -4.680  -5.204  -6.071  0.00  0.00    -0.166 F 
ATOM     32  F   UNL     1      -4.933  -5.755  -3.868  0.00  0.00    -0.166 F 
ENDBRANCH  27  29
ENDBRANCH  22  23
ENDBRANCH   7  22
TORSDOF 7
