REMARK  Name = ZINC36546798
REMARK  12 active torsions:
REMARK  status: ('A' for Active; 'I' for Inactive)
REMARK    1  A    between atoms: C_1  and  C_2
REMARK    2  A    between atoms: C_5  and  S_8
REMARK    3  A    between atoms: S_8  and  C_11
REMARK    4  A    between atoms: C_11  and  N_12
REMARK    5  A    between atoms: C_13  and  C_15
REMARK    6  A    between atoms: C_15  and  C_17
REMARK    7  A    between atoms: C_15  and  N_24
REMARK    8  A    between atoms: C_22  and  C_23
REMARK    9  A    between atoms: N_24  and  C_25
REMARK   10  A    between atoms: C_32  and  C_34
REMARK   11  A    between atoms: C_35  and  C_36
REMARK   12  A    between atoms: C_35  and  C_37
REMARK                            x       y       z     vdW  Elec       q    Type
REMARK                         _______ _______ _______ _____ _____    ______ ____
ROOT
ATOM      1  C   UNL     1       3.501  -4.533   4.584  0.00  0.00    +0.198 C 
ENDROOT
BRANCH   1   2
ATOM      2  C   UNL     1       4.659  -3.737   4.038  0.00  0.00    -0.015 A 
ATOM      3  C   UNL     1       5.282  -4.136   2.871  0.00  0.00    +0.006 A 
ATOM      4  C   UNL     1       6.344  -3.406   2.370  0.00  0.00    +0.000 A 
ATOM      5  C   UNL     1       6.782  -2.277   3.038  0.00  0.00    +0.000 A 
ATOM      6  C   UNL     1       6.159  -1.878   4.205  0.00  0.00    +0.004 A 
ATOM      7  C   UNL     1       5.094  -2.606   4.703  0.00  0.00    -0.045 A 
ATOM      8  C   UNL     1       4.410  -2.168   5.972  0.00  0.00    +0.044 C 
ENDBRANCH   1   2
BRANCH   1  10
ATOM      9  N   UNL     1       1.673  -3.580   3.218  0.00  0.00    -0.294 N 
ATOM     10  C   UNL     1       2.431  -4.649   3.530  0.00  0.00    +0.240 C 
ATOM     11  O   UNL     1       2.252  -5.706   2.962  0.00  0.00    -0.273 OA
ATOM     12  H   UNL     1       1.763  -2.757   3.724  0.00  0.00    +0.150 HD
BRANCH   9  13
ATOM     13  C   UNL     1       0.712  -3.660   2.115  0.00  0.00    +0.278 C 
BRANCH  13  14
ATOM     14  S   UNL     1      -0.926  -4.086   2.769  0.00  0.00    +0.013 S 
ATOM     15  O   UNL     1      -0.822  -5.176   3.675  0.00  0.00    -0.168 OA
ATOM     16  O   UNL     1      -1.883  -4.105   1.718  0.00  0.00    -0.168 OA
BRANCH  14  21
ATOM     17  C   UNL     1      -2.502   0.621   6.199  0.00  0.00    +0.044 C 
ATOM     18  C   UNL     1      -2.109  -0.555   5.342  0.00  0.00    -0.050 A 
ATOM     19  C   UNL     1      -2.441  -0.575   4.001  0.00  0.00    +0.005 A 
ATOM     20  C   UNL     1      -2.080  -1.653   3.215  0.00  0.00    +0.027 A 
ATOM     21  C   UNL     1      -1.385  -2.711   3.770  0.00  0.00    +0.090 A 
ATOM     22  C   UNL     1      -1.052  -2.691   5.112  0.00  0.00    +0.027 A 
ATOM     23  C   UNL     1      -1.410  -1.611   5.897  0.00  0.00    +0.005 A 
ENDBRANCH  14  21
ENDBRANCH  13  14
ENDBRANCH   9  13
ENDBRANCH   1  10
BRANCH   1  24
ATOM     24  N   UNL     1       3.963  -5.871   4.962  0.00  0.00    -0.250 N 
ATOM     25  C   UNL     1       3.117  -6.731   5.562  0.00  0.00    +0.245 C 
ATOM     26  O   UNL     1       1.970  -6.397   5.790  0.00  0.00    -0.270 OA
BRANCH  24  27
ATOM     27  C   UNL     1       5.282  -6.255   4.699  0.00  0.00    +0.056 A 
ATOM     28  C   UNL     1       6.303  -5.876   5.561  0.00  0.00    +0.025 A 
ATOM     29  C   UNL     1       7.604  -6.258   5.299  0.00  0.00    +0.002 A 
ATOM     30  C   UNL     1       7.892  -7.017   4.179  0.00  0.00    +0.002 A 
ATOM     31  C   UNL     1       6.879  -7.396   3.318  0.00  0.00    +0.022 A 
ATOM     32  C   UNL     1       5.573  -7.023   3.577  0.00  0.00    +0.062 A 
ATOM     33 CL   UNL     1       4.301  -7.506   2.500  0.00  0.00    -0.082 Cl
ENDBRANCH  24  27
BRANCH  25  34
ATOM     34  C   UNL     1       3.580  -8.074   5.941  0.00  0.00    +0.066 C 
ATOM     35  C   UNL     1       2.715  -8.969   6.410  0.00  0.00    -0.071 C 
ATOM     36  C   UNL     1       1.234  -8.745   6.243  0.00  0.00    +0.039 C 
ATOM     37  C   UNL     1       3.215 -10.207   7.109  0.00  0.00    +0.039 C 
ENDBRANCH  25  34
ENDBRANCH   1  24
TORSDOF 8
