REMARK  Name = ZINC39929461
REMARK  11 active torsions:
REMARK  status: ('A' for Active; 'I' for Inactive)
REMARK    1  A    between atoms: C_1  and  C_2
REMARK    2  A    between atoms: C_2  and  O_3
REMARK    3  A    between atoms: O_3  and  C_4
REMARK    4  A    between atoms: C_4  and  C_6
REMARK    5  A    between atoms: C_7  and  C_24
REMARK    6  A    between atoms: C_8  and  C_20
REMARK    7  A    between atoms: C_10  and  N_11
REMARK    8  A    between atoms: C_12  and  C_14
REMARK    9  A    between atoms: C_20  and  N_21
REMARK   10  A    between atoms: N_21  and  C_22
REMARK   11  A    between atoms: N_21  and  C_23
REMARK                            x       y       z     vdW  Elec       q    Type
REMARK                         _______ _______ _______ _____ _____    ______ ____
ROOT
ATOM      1  C   UNL     1      -2.841  -2.416   0.016  0.00  0.00    +0.095 A 
ATOM      2  C   UNL     1      -3.552  -2.716  -1.214  0.00  0.00    +0.006 A 
ATOM      3  C   UNL     1      -4.791  -3.249  -1.056  0.00  0.00    -0.016 A 
ATOM      4  S   UNL     1      -4.977  -3.336   0.712  0.00  0.00    -0.079 S 
ATOM      5  C   UNL     1      -3.499  -2.710   1.200  0.00  0.00    +0.087 A 
ENDROOT
BRANCH   2   6
ATOM      6  C   UNL     1      -2.966  -2.457  -2.551  0.00  0.00    -0.016 A 
ATOM      7  C   UNL     1      -3.540  -1.508  -3.395  0.00  0.00    +0.009 A 
ATOM      8  C   UNL     1      -2.991  -1.271  -4.638  0.00  0.00    +0.016 A 
ATOM      9  C   UNL     1      -1.872  -1.975  -5.048  0.00  0.00    +0.018 A 
ATOM     10  C   UNL     1      -1.298  -2.919  -4.214  0.00  0.00    +0.016 A 
ATOM     11  C   UNL     1      -1.836  -3.159  -2.966  0.00  0.00    +0.009 A 
ATOM     12 BR   UNL     1      -1.124  -1.646  -6.754  0.00  0.00    -0.050 Br
ENDBRANCH   2   6
BRANCH   5  13
ATOM     13  N   UNL     1      -3.042  -2.527   2.494  0.00  0.00    -0.275 N 
ATOM     14  C   UNL     1      -3.820  -2.871   3.539  0.00  0.00    +0.249 C 
ATOM     15  O   UNL     1      -4.923  -3.343   3.346  0.00  0.00    -0.270 OA
ATOM     16  H   UNL     1      -2.161  -2.150   2.648  0.00  0.00    +0.156 HD
BRANCH  14  17
ATOM     17  C   UNL     1      -3.331  -2.675   4.920  0.00  0.00    +0.037 A 
ATOM     18  C   UNL     1      -2.067  -2.128   5.146  0.00  0.00    +0.013 A 
ATOM     19  C   UNL     1      -1.617  -1.948   6.437  0.00  0.00    +0.001 A 
ATOM     20  C   UNL     1      -2.416  -2.308   7.508  0.00  0.00    +0.000 A 
ATOM     21  C   UNL     1      -3.670  -2.851   7.292  0.00  0.00    +0.001 A 
ATOM     22  C   UNL     1      -4.135  -3.031   6.005  0.00  0.00    +0.013 A 
ENDBRANCH  14  17
ENDBRANCH   5  13
BRANCH   1  23
ATOM     23  C   UNL     1      -1.497  -1.838   0.006  0.00  0.00    +0.342 C 
ATOM     24  O   UNL     1      -0.522  -2.566  -0.007  0.00  0.00    -0.245 OA
BRANCH  23  25
ATOM     25  O   UNL     1      -1.339  -0.499   0.012  0.00  0.00    -0.461 OA
BRANCH  25  27
ATOM     26  C   UNL     1      -0.019   1.526   0.010  0.00  0.00    +0.048 C 
ATOM     27  C   UNL     1       0.002  -0.004   0.002  0.00  0.00    +0.229 C 
ENDBRANCH  25  27
ENDBRANCH  23  25
ENDBRANCH   1  23
BRANCH   3  28
ATOM     28  C   UNL     1      -5.773  -3.665  -2.120  0.00  0.00    -0.036 C 
BRANCH  28  29
ATOM     29  N   UNL     1      -5.546  -5.073  -2.473  0.00  0.00    +0.379 N 
ATOM     30  C   UNL     1      -5.847  -5.923  -1.313  0.00  0.00    -0.096 C 
ATOM     31  C   UNL     1      -6.421  -5.444  -3.593  0.00  0.00    -0.096 C 
ATOM     32  H   UNL     1      -4.582  -5.200  -2.743  0.00  0.00    -0.082 HD
ENDBRANCH  28  29
ENDBRANCH   3  28
TORSDOF 8
