REMARK  Name = ZINC66649515
REMARK  4 active torsions:
REMARK  status: ('A' for Active; 'I' for Inactive)
REMARK    1  A    between atoms: C_1  and  N_2
REMARK    2  A    between atoms: N_2  and  C_3
REMARK    3  A    between atoms: C_4  and  C_6
REMARK    4  A    between atoms: C_12  and  C_14
REMARK                            x       y       z     vdW  Elec       q    Type
REMARK                         _______ _______ _______ _____ _____    ______ ____
ROOT
ATOM      1  C   UNL     1       0.076  -1.993  -1.227  0.00  0.00    +0.173 C 
ATOM      2  C   UNL     1       1.433  -2.258  -0.529  0.00  0.00    +0.102 C 
ATOM      3  S   UNL     1       2.080  -3.621  -1.596  0.00  0.00    -0.139 S 
ATOM      4  C   UNL     1       1.227  -3.092  -3.147  0.00  0.00    +0.178 C 
ATOM      5  N   UNL     1       0.011  -2.458  -2.602  0.00  0.00    -0.278 N 
ATOM      6  C   UNL     1      -1.105  -2.318  -3.346  0.00  0.00    +0.248 C 
ATOM      7  O   UNL     1      -2.116  -1.874  -2.845  0.00  0.00    -0.273 OA
ENDROOT
BRANCH   6   8
ATOM      8  C   UNL     1      -1.095  -2.714  -4.800  0.00  0.00    +0.229 C 
ATOM      9  C   UNL     1      -1.247  -4.234  -4.917  0.00  0.00    +0.201 C 
ATOM     10  O   UNL     1      -1.349  -4.590  -6.299  0.00  0.00    -0.374 OA
ATOM     11  C   UNL     1      -2.440  -3.956  -6.974  0.00  0.00    +0.188 C 
ATOM     12  C   UNL     1      -2.289  -2.436  -6.857  0.00  0.00    +0.189 C 
ATOM     13  O   UNL     1      -2.185  -2.079  -5.475  0.00  0.00    -0.363 OA
ENDBRANCH   6   8
BRANCH   1  17
ATOM     14  C   UNL     1      -0.501   1.595  -0.022  0.00  0.00    +0.131 C 
ATOM     15  N   UNL     1      -0.244   0.152  -0.038  0.00  0.00    -0.306 N 
ATOM     16  C   UNL     1      -0.047  -0.571   1.221  0.00  0.00    +0.131 C 
ATOM     17  C   UNL     1      -0.188  -0.509  -1.210  0.00  0.00    +0.236 C 
ATOM     18  O   UNL     1      -0.351   0.089  -2.253  0.00  0.00    -0.274 OA
ENDBRANCH   1  17
TORSDOF 2
