REMARK  Name = ZINC33620102
REMARK  7 active torsions:
REMARK  status: ('A' for Active; 'I' for Inactive)
REMARK    1  A    between atoms: C_4  and  C_7
REMARK    2  A    between atoms: C_10  and  S_12
REMARK    3  A    between atoms: S_12  and  C_13
REMARK    4  A    between atoms: C_13  and  C_14
REMARK    5  A    between atoms: N_16  and  C_17
REMARK    6  A    between atoms: C_20  and  N_23
REMARK    7  A    between atoms: C_29  and  C_31
REMARK                            x       y       z     vdW  Elec       q    Type
REMARK                         _______ _______ _______ _____ _____    ______ ____
ROOT
ATOM      1  C   UNL     1      10.629  -5.794  -0.097  0.00  0.00    +0.034 A 
ATOM      2  C   UNL     1       9.941  -6.995  -0.208  0.00  0.00    +0.025 A 
ATOM      3  C   UNL     1      10.638  -8.180  -0.336  0.00  0.00    +0.025 A 
ATOM      4  C   UNL     1      12.027  -8.171  -0.352  0.00  0.00    +0.030 A 
ATOM      5  C   UNL     1      12.714  -6.970  -0.241  0.00  0.00    +0.025 A 
ATOM      6  C   UNL     1      12.017  -5.784  -0.118  0.00  0.00    +0.025 A 
ENDROOT
BRANCH   4   7
ATOM      7  N   UNL     1      12.733  -9.372  -0.481  0.00  0.00    -0.327 N 
ATOM      8  C   UNL     1      14.198  -9.393  -0.371  0.00  0.00    +0.124 C 
ATOM      9  C   UNL     1      14.593 -10.399   0.718  0.00  0.00    +0.127 C 
ATOM     10  N   UNL     1      13.882 -11.662   0.470  0.00  0.00    -0.294 N 
ATOM     11  C   UNL     1      12.417 -11.640   0.360  0.00  0.00    +0.127 C 
ATOM     12  C   UNL     1      12.022 -10.635  -0.723  0.00  0.00    +0.124 C 
ATOM     13  C   UNL     1      14.563 -12.819   0.346  0.00  0.00    +0.249 C 
ATOM     14  O   UNL     1      15.778 -12.811   0.334  0.00  0.00    -0.270 OA
BRANCH  13  15
ATOM     15  C   UNL     1      13.831 -14.096   0.225  0.00  0.00    +0.072 A 
ATOM     16  C   UNL     1      12.877 -14.452   1.181  0.00  0.00    +0.016 A 
ATOM     17  C   UNL     1      12.198 -15.645   1.063  0.00  0.00    +0.001 A 
ATOM     18  C   UNL     1      12.459 -16.493  -0.001  0.00  0.00    +0.003 A 
ATOM     19  C   UNL     1      13.401 -16.150  -0.952  0.00  0.00    +0.039 A 
ATOM     20  C   UNL     1      14.087 -14.953  -0.850  0.00  0.00    +0.135 A 
ATOM     21  F   UNL     1      15.004 -14.616  -1.782  0.00  0.00    -0.205 F 
ENDBRANCH  13  15
ENDBRANCH   4   7
BRANCH   1  24
ATOM     22  C   UNL     1      10.394  -3.467  -0.541  0.00  0.00    +0.228 C 
ATOM     23  O   UNL     1      11.470  -3.477  -1.099  0.00  0.00    -0.275 OA
ATOM     24  N   UNL     1       9.921  -4.591   0.032  0.00  0.00    -0.285 N 
ATOM     25  H   UNL     1       9.091  -4.568   0.534  0.00  0.00    +0.155 HD
BRANCH  22  26
ATOM     26  C   UNL     1       9.585  -2.196  -0.488  0.00  0.00    +0.175 C 
BRANCH  26  27
ATOM     27  S   UNL     1      10.483  -0.871  -1.341  0.00  0.00    -0.056 S 
BRANCH  27  31
ATOM     28  C   UNL     1       8.587   2.514  -1.335  0.00  0.00    +0.249 A 
ATOM     29  N   UNL     1       7.758   1.740  -0.678  0.00  0.00    -0.106 NA
ATOM     30  N   UNL     1       8.254   0.556  -0.592  0.00  0.00    -0.101 NA
ATOM     31  C   UNL     1       9.421   0.527  -1.193  0.00  0.00    +0.278 A 
ATOM     32  O   UNL     1       9.655   1.761  -1.680  0.00  0.00    -0.411 OA
BRANCH  28  36
ATOM     33  C   UNL     1       8.015   6.625  -2.233  0.00  0.00    +0.000 A 
ATOM     34  C   UNL     1       7.050   5.935  -1.522  0.00  0.00    +0.001 A 
ATOM     35  C   UNL     1       7.229   4.599  -1.227  0.00  0.00    +0.013 A 
ATOM     36  C   UNL     1       8.388   3.944  -1.648  0.00  0.00    +0.039 A 
ATOM     37  C   UNL     1       9.358   4.646  -2.366  0.00  0.00    +0.013 A 
ATOM     38  C   UNL     1       9.166   5.982  -2.654  0.00  0.00    +0.001 A 
ENDBRANCH  28  36
ENDBRANCH  27  31
ENDBRANCH  26  27
ENDBRANCH  22  26
ENDBRANCH   1  24
TORSDOF 7
