REMARK  Name = ZINC02973149
REMARK  8 active torsions:
REMARK  status: ('A' for Active; 'I' for Inactive)
REMARK    1  A    between atoms: C_1  and  C_2
REMARK    2  A    between atoms: C_2  and  C_3
REMARK    3  A    between atoms: C_2  and  C_4
REMARK    4  A    between atoms: C_7  and  N_10
REMARK    5  A    between atoms: C_11  and  C_13
REMARK    6  A    between atoms: N_19  and  C_22
REMARK    7  A    between atoms: C_25  and  O_28
REMARK    8  A    between atoms: O_28  and  C_29
REMARK                            x       y       z     vdW  Elec       q    Type
REMARK                         _______ _______ _______ _____ _____    ______ ____
ROOT
ATOM      1  C   UNL     1      -0.065   3.777   0.589  0.00  0.00    +0.118 A 
ATOM      2  C   UNL     1      -1.114   2.908   0.817  0.00  0.00    +0.106 A 
ATOM      3  N   UNL     1      -0.890   1.569   0.772  0.00  0.00    -0.313 N 
ATOM      4  H   UNL     1      -1.652   0.941   0.929  0.00  0.00    +0.170 HD
ATOM      5  C   UNL     1       0.330   1.070   0.520  0.00  0.00    +0.334 A 
ATOM      6  O   UNL     1       0.478  -0.136   0.495  0.00  0.00    -0.246 OA
ATOM      7  N   UNL     1       1.392   1.861   0.288  0.00  0.00    -0.229 N 
ATOM      8  C   UNL     1       1.261   3.204   0.309  0.00  0.00    +0.273 A 
ATOM      9  O   UNL     1       2.219   3.925   0.101  0.00  0.00    -0.266 OA
ENDROOT
BRANCH   7  10
ATOM     10  C   UNL     1       2.644   1.286   0.024  0.00  0.00    +0.055 A 
ATOM     11  C   UNL     1       3.327   0.618   1.031  0.00  0.00    +0.030 A 
ATOM     12  C   UNL     1       4.558   0.048   0.769  0.00  0.00    +0.047 A 
ATOM     13  C   UNL     1       5.116   0.153  -0.497  0.00  0.00    +0.120 A 
ATOM     14  C   UNL     1       4.435   0.826  -1.502  0.00  0.00    +0.047 A 
ATOM     15  C   UNL     1       3.203   1.391  -1.242  0.00  0.00    +0.030 A 
BRANCH  13  16
ATOM     16  O   UNL     1       6.330  -0.403  -0.752  0.00  0.00    -0.495 OA
ATOM     17  C   UNL     1       6.974  -1.080   0.329  0.00  0.00    +0.277 C 
ENDBRANCH  13  16
ENDBRANCH   7  10
BRANCH   1  19
ATOM     18  N   UNL     1       0.718   6.061   0.221  0.00  0.00    -0.281 N 
ATOM     19  C   UNL     1      -0.267   5.233   0.624  0.00  0.00    +0.255 C 
ATOM     20  O   UNL     1      -1.324   5.691   1.016  0.00  0.00    -0.270 OA
ATOM     21  H   UNL     1       1.510   5.699  -0.206  0.00  0.00    +0.155 HD
BRANCH  18  25
ATOM     22  C   UNL     1       0.359  10.168   0.811  0.00  0.00    -0.045 A 
ATOM     23  C   UNL     1       1.612   9.594   0.706  0.00  0.00    +0.006 A 
ATOM     24  C   UNL     1       1.734   8.232   0.511  0.00  0.00    +0.023 A 
ATOM     25  C   UNL     1       0.597   7.440   0.419  0.00  0.00    +0.034 A 
ATOM     26  C   UNL     1      -0.660   8.021   0.520  0.00  0.00    +0.023 A 
ATOM     27  C   UNL     1      -0.776   9.383   0.721  0.00  0.00    +0.006 A 
BRANCH  22  29
ATOM     28  C   UNL     1      -0.557  12.270  -0.134  0.00  0.00    +0.012 C 
ATOM     29  C   UNL     1       0.229  11.655   1.026  0.00  0.00    +0.013 C 
ATOM     30  C   UNL     1      -0.510  11.918   2.339  0.00  0.00    +0.012 C 
ENDBRANCH  22  29
ENDBRANCH  18  25
ENDBRANCH   1  19
TORSDOF 5
