REMARK  Name = ZINC59271072
REMARK  10 active torsions:
REMARK  status: ('A' for Active; 'I' for Inactive)
REMARK    1  A    between atoms: C_1  and  C_2
REMARK    2  A    between atoms: C_7  and  N_8
REMARK    3  A    between atoms: C_9  and  C_34
REMARK    4  A    between atoms: C_11  and  C_14
REMARK    5  A    between atoms: C_12  and  C_13
REMARK    6  A    between atoms: C_14  and  C_16
REMARK    7  A    between atoms: C_16  and  N_17
REMARK    8  A    between atoms: C_20  and  C_24
REMARK    9  A    between atoms: C_20  and  C_25
REMARK   10  A    between atoms: C_29  and  N_31
REMARK                            x       y       z     vdW  Elec       q    Type
REMARK                         _______ _______ _______ _____ _____    ______ ____
ROOT
ATOM      1  N   UNL     1       2.072   2.813   7.314  0.00  0.00    -0.216 N 
ATOM      2  C   UNL     1       2.652   2.107   8.305  0.00  0.00    +0.251 C 
ATOM      3  O   UNL     1       2.398   0.970   8.640  0.00  0.00    -0.272 OA
ATOM      4  C   UNL     1       3.691   3.030   8.912  0.00  0.00    +0.135 C 
ATOM      5  N   UNL     1       3.562   4.264   8.118  0.00  0.00    -0.281 N 
ATOM      6  C   UNL     1       2.597   4.039   7.209  0.00  0.00    +0.310 C 
ATOM      7  O   UNL     1       2.239   4.859   6.386  0.00  0.00    -0.252 OA
ATOM      8  C   UNL     1       5.093   2.436   8.761  0.00  0.00    +0.047 C 
ATOM      9  H   UNL     1       4.076   5.080   8.229  0.00  0.00    +0.152 HD
ENDROOT
BRANCH   4  10
ATOM     10  C   UNL     1       3.380   3.296  10.362  0.00  0.00    -0.013 A 
ATOM     11  C   UNL     1       2.732   2.337  11.118  0.00  0.00    +0.006 A 
ATOM     12  C   UNL     1       2.447   2.581  12.448  0.00  0.00    +0.003 A 
ATOM     13  C   UNL     1       2.810   3.785  13.023  0.00  0.00    +0.033 A 
ATOM     14  C   UNL     1       3.458   4.744  12.267  0.00  0.00    +0.127 A 
ATOM     15  C   UNL     1       3.747   4.498  10.938  0.00  0.00    +0.039 A 
BRANCH  14  16
ATOM     16  N   UNL     1       3.845   6.034  12.882  0.00  0.00    +0.056 N 
ATOM     17  O   UNL     1       3.595   6.248  14.045  0.00  0.00    -0.126 OA
ATOM     18  O   UNL     1       4.412   6.873  12.221  0.00  0.00    -0.126 OA
ENDBRANCH  14  16
ENDBRANCH   4  10
BRANCH   1  19
ATOM     19  C   UNL     1       1.002   2.299   6.455  0.00  0.00    +0.197 C 
BRANCH  19  20
ATOM     20  C   UNL     1       1.606   1.630   5.247  0.00  0.00    +0.183 C 
ATOM     21  O   UNL     1       2.812   1.586   5.117  0.00  0.00    -0.290 OA
BRANCH  20  25
ATOM     22  N   UNL     1       0.025  -0.013   2.419  0.00  0.00    -0.317 N 
ATOM     23  C   UNL     1      -1.096   0.352   3.111  0.00  0.00    +0.022 A 
ATOM     24  C   UNL     1      -0.731   0.996   4.232  0.00  0.00    +0.034 A 
ATOM     25  C   UNL     1       0.738   1.032   4.231  0.00  0.00    +0.040 A 
ATOM     26  C   UNL     1       1.132   0.382   3.077  0.00  0.00    +0.031 A 
ATOM     27  C   UNL     1       2.554   0.155   2.631  0.00  0.00    +0.064 C 
ATOM     28  C   UNL     1      -2.514   0.075   2.684  0.00  0.00    +0.064 C 
BRANCH  22  35
ATOM     29  C   UNL     1      -0.018   1.503   0.010  0.00  0.00    +0.046 C 
ATOM     30  C   UNL     1       0.002  -0.004   0.002  0.00  0.00    -0.027 A 
ATOM     31  C   UNL     1       0.006  -0.689  -1.198  0.00  0.00    +0.005 A 
ATOM     32  C   UNL     1       0.024  -2.071  -1.206  0.00  0.00    +0.000 A 
ATOM     33  C   UNL     1       0.039  -2.773  -0.014  0.00  0.00    +0.002 A 
ATOM     34  C   UNL     1       0.036  -2.094   1.188  0.00  0.00    +0.026 A 
ATOM     35  C   UNL     1       0.023  -0.705   1.200  0.00  0.00    +0.049 A 
ENDBRANCH  22  35
ENDBRANCH  20  25
ENDBRANCH  19  20
ENDBRANCH   1  19
TORSDOF 6
