REMARK  Name = ZINC09204746
REMARK  6 active torsions:
REMARK  status: ('A' for Active; 'I' for Inactive)
REMARK    1  A    between atoms: C_1  and  C_2
REMARK    2  A    between atoms: C_4  and  C_7
REMARK    3  A    between atoms: N_9  and  C_10
REMARK    4  A    between atoms: C_11  and  C_19
REMARK    5  A    between atoms: C_22  and  O_24
REMARK    6  A    between atoms: O_24  and  C_25
REMARK                            x       y       z     vdW  Elec       q    Type
REMARK                         _______ _______ _______ _____ _____    ______ ____
ROOT
ATOM      1  C   UNL     1      -1.220   1.642   0.017  0.00  0.00    +0.085 A 
ATOM      2  C   UNL     1      -2.504   1.114   0.014  0.00  0.00    +0.069 A 
ATOM      3  C   UNL     1      -3.615   2.050   0.030  0.00  0.00    -0.023 A 
ATOM      4  C   UNL     1      -3.267   3.355   0.035  0.00  0.00    -0.004 A 
ATOM      5  S   UNL     1      -1.497   3.352   0.027  0.00  0.00    -0.077 S 
ATOM      6  C   UNL     1      -4.189   4.536   0.044  0.00  0.00    +0.043 C 
ATOM      7  C   UNL     1      -5.597   4.053  -0.331  0.00  0.00    +0.005 C 
ATOM      8  C   UNL     1      -5.930   2.811   0.501  0.00  0.00    +0.005 C 
ATOM      9  C   UNL     1      -5.079   1.629   0.035  0.00  0.00    +0.037 C 
ENDROOT
BRANCH   2  10
ATOM     10  C   UNL     1      -2.731  -0.334   0.000  0.00  0.00    +0.255 C 
ATOM     11  O   UNL     1      -2.823  -0.945   1.048  0.00  0.00    -0.270 OA
ATOM     12  N   UNL     1      -2.837  -0.988  -1.173  0.00  0.00    -0.217 N 
ATOM     13  C   UNL     1      -3.046  -2.319  -1.187  0.00  0.00    +0.407 C 
ATOM     14  O   UNL     1      -3.138  -2.930  -0.140  0.00  0.00    -0.226 OA
ATOM     15  H   UNL     1      -2.764  -0.500  -2.009  0.00  0.00    +0.161 HD
BRANCH  13  16
ATOM     16  O   UNL     1      -3.152  -2.972  -2.359  0.00  0.00    -0.453 OA
ATOM     17  C   UNL     1      -3.376  -4.406  -2.297  0.00  0.00    +0.282 C 
ENDBRANCH  13  16
ENDBRANCH   2  10
BRANCH   1  20
ATOM     18  C   UNL     1       1.147   1.655   0.000  0.00  0.00    +0.270 C 
ATOM     19  O   UNL     1       1.130   2.870   0.007  0.00  0.00    -0.268 OA
ATOM     20  N   UNL     1      -0.011   0.966   0.007  0.00  0.00    -0.274 N 
ATOM     21  H   UNL     1       0.002  -0.004   0.002  0.00  0.00    +0.156 HD
BRANCH  18  25
ATOM     22  C   UNL     1       6.077   0.466  -0.052  0.00  0.00    +0.089 C 
ATOM     23  C   UNL     1       4.571   0.437  -0.039  0.00  0.00    +0.135 A 
ATOM     24  C   UNL     1       3.742   1.507  -0.026  0.00  0.00    +0.080 A 
ATOM     25  C   UNL     1       2.441   0.932  -0.016  0.00  0.00    +0.168 A 
ATOM     26  N   UNL     1       2.617  -0.366  -0.019  0.00  0.00    -0.073 NA
ATOM     27  O   UNL     1       3.791  -0.653  -0.037  0.00  0.00    -0.359 OA
ENDBRANCH  18  25
ENDBRANCH   1  20
TORSDOF 4
