REMARK  Name = ZINC09286439
REMARK  11 active torsions:
REMARK  status: ('A' for Active; 'I' for Inactive)
REMARK    1  A    between atoms: C_1  and  C_2
REMARK    2  A    between atoms: C_2  and  O_3
REMARK    3  A    between atoms: O_3  and  C_4
REMARK    4  A    between atoms: C_4  and  C_6
REMARK    5  A    between atoms: C_10  and  N_11
REMARK    6  A    between atoms: C_12  and  C_14
REMARK    7  A    between atoms: C_14  and  C_16
REMARK    8  A    between atoms: C_14  and  O_17
REMARK    9  A    between atoms: O_17  and  C_18
REMARK   10  A    between atoms: C_21  and  C_25
REMARK   11  A    between atoms: C_25  and  N_26
REMARK                            x       y       z     vdW  Elec       q    Type
REMARK                         _______ _______ _______ _____ _____    ______ ____
ROOT
ATOM      1  C   UNL     1      -2.300   1.228  -0.677  0.00  0.00    +0.256 C 
ATOM      2  C   UNL     1      -3.006   0.916   0.644  0.00  0.00    +0.062 C 
ENDROOT
BRANCH   1   4
ATOM      3  N   UNL     1      -4.409   1.519  -1.938  0.00  0.00    -0.276 N 
ATOM      4  C   UNL     1      -3.221   2.031  -1.560  0.00  0.00    +0.258 C 
ATOM      5  O   UNL     1      -2.893   3.138  -1.931  0.00  0.00    -0.271 OA
ATOM      6  H   UNL     1      -4.671   0.633  -1.642  0.00  0.00    +0.155 HD
BRANCH   3  11
ATOM      7  C   UNL     1      -6.501   1.904  -3.243  0.00  0.00    +0.091 A 
ATOM      8  C   UNL     1      -7.197   2.877  -4.085  0.00  0.00    -0.021 A 
ATOM      9  C   UNL     1      -6.532   4.027  -4.297  0.00  0.00    -0.004 A 
ATOM     10  S   UNL     1      -5.010   3.842  -3.401  0.00  0.00    -0.077 S 
ATOM     11  C   UNL     1      -5.255   2.257  -2.750  0.00  0.00    +0.086 A 
ATOM     12  C   UNL     1      -7.309   4.974  -5.172  0.00  0.00    +0.043 C 
ATOM     13  C   UNL     1      -8.757   4.438  -5.135  0.00  0.00    +0.010 C 
ATOM     14  C   UNL     1      -8.532   2.945  -4.828  0.00  0.00    +0.037 C 
BRANCH   7  15
ATOM     15  C   UNL     1      -7.100   0.605  -2.931  0.00  0.00    +0.342 C 
ATOM     16  O   UNL     1      -7.805   0.481  -1.947  0.00  0.00    -0.245 OA
BRANCH  15  17
ATOM     17  O   UNL     1      -6.870  -0.455  -3.733  0.00  0.00    -0.461 OA
BRANCH  17  19
ATOM     18  C   UNL     1      -7.123  -2.788  -4.382  0.00  0.00    +0.048 C 
ATOM     19  C   UNL     1      -7.496  -1.711  -3.362  0.00  0.00    +0.229 C 
ENDBRANCH  17  19
ENDBRANCH  15  17
ENDBRANCH   7  15
ENDBRANCH   3  11
ENDBRANCH   1   4
BRANCH   1  20
ATOM     20  O   UNL     1      -1.113   1.980  -0.418  0.00  0.00    -0.473 OA
BRANCH  20  21
ATOM     21  C   UNL     1       0.010   1.276  -0.112  0.00  0.00    +0.203 A 
ATOM     22  C   UNL     1      -0.041  -0.065   0.042  0.00  0.00    +0.244 A 
ATOM     23  O   UNL     1       1.062  -0.766   0.338  0.00  0.00    -0.462 OA
ATOM     24  C   UNL     1       2.255  -0.180   0.494  0.00  0.00    +0.126 A 
ATOM     25  C   UNL     1       2.397   1.154   0.357  0.00  0.00    +0.098 A 
ATOM     26  C   UNL     1       1.259   1.938   0.044  0.00  0.00    +0.227 A 
ATOM     27  O   UNL     1       1.348   3.150  -0.087  0.00  0.00    -0.284 OA
BRANCH  24  28
ATOM     28  C   UNL     1       3.458  -1.024   0.827  0.00  0.00    +0.179 C 
BRANCH  28  29
ATOM     29  N   UNL     1       3.591  -1.133   2.285  0.00  0.00    -0.322 N 
ATOM     30  C   UNL     1       2.316  -1.499   2.903  0.00  0.00    +0.106 C 
ATOM     31  C   UNL     1       2.522  -1.625   4.418  0.00  0.00    +0.024 C 
ATOM     32  C   UNL     1       3.409  -2.846   4.672  0.00  0.00    +0.038 C 
ATOM     33  C   UNL     1       4.596  -2.813   3.744  0.00  0.00    -0.026 A 
ATOM     34  C   UNL     1       4.633  -1.993   2.629  0.00  0.00    +0.033 A 
ATOM     35  C   UNL     1       5.757  -2.013   1.801  0.00  0.00    +0.023 A 
ATOM     36  C   UNL     1       6.822  -2.838   2.090  0.00  0.00    +0.002 A 
ATOM     37  C   UNL     1       6.782  -3.652   3.208  0.00  0.00    +0.000 A 
ATOM     38  C   UNL     1       5.673  -3.638   4.030  0.00  0.00    +0.005 A 
ENDBRANCH  28  29
ENDBRANCH  24  28
ENDBRANCH  20  21
ENDBRANCH   1  20
TORSDOF 9
