REMARK  Name = ZINC39504907
REMARK  3 active torsions:
REMARK  status: ('A' for Active; 'I' for Inactive)
REMARK    1  A    between atoms: C_1  and  S_2
REMARK    2  A    between atoms: S_2  and  C_3
REMARK    3  A    between atoms: N_13  and  O_15
REMARK                            x       y       z     vdW  Elec       q    Type
REMARK                         _______ _______ _______ _____ _____    ______ ____
ROOT
ATOM      1  C   UNL     1       0.873  -0.423  -1.533  0.00  0.00    +0.064 C 
ATOM      2  C   UNL     1       1.029  -1.960  -1.682  0.00  0.00    +0.040 C 
ATOM      3  C   UNL     1       1.113  -2.149  -3.206  0.00  0.00    +0.049 C 
ATOM      4  C   UNL     1       0.388  -3.434  -3.625  0.00  0.00    +0.026 C 
ATOM      5  C   UNL     1       1.446  -4.330  -4.303  0.00  0.00    +0.021 C 
ATOM      6  C   UNL     1       2.532  -3.337  -4.787  0.00  0.00    +0.082 C 
ATOM      7  C   UNL     1       2.580  -2.294  -3.641  0.00  0.00    +0.044 C 
ATOM      8 CL   UNL     1       4.122  -4.167  -4.968  0.00  0.00    -0.122 Cl
ATOM      9  N   UNL     1       0.500  -0.974  -3.840  0.00  0.00    -0.184 NA
ATOM     10  C   UNL     1       0.013  -0.070  -2.773  0.00  0.00    +0.129 C 
ENDROOT
BRANCH   1  12
ATOM     11  C   UNL     1      -0.022   1.810   0.012  0.00  0.00    +0.084 C 
ATOM     12  S   UNL     1       0.002  -0.004   0.002  0.00  0.00    -0.159 S 
ENDBRANCH   1  12
BRANCH   9  13
ATOM     13  O   UNL     1      -0.590  -1.368  -4.732  0.00  0.00    -0.312 OA
ATOM     14  H   UNL     1      -1.025  -0.626  -5.173  0.00  0.00    +0.237 HD
ENDBRANCH   9  13
TORSDOF 2
