REMARK  Name = ZINC29238642
REMARK  9 active torsions:
REMARK  status: ('A' for Active; 'I' for Inactive)
REMARK    1  A    between atoms: C_6  and  N_7
REMARK    2  A    between atoms: N_11  and  C_14
REMARK    3  A    between atoms: C_14  and  C_15
REMARK    4  A    between atoms: C_15  and  C_16
REMARK    5  A    between atoms: C_16  and  C_17
REMARK    6  A    between atoms: C_17  and  C_18
REMARK    7  A    between atoms: C_18  and  C_19
REMARK    8  A    between atoms: C_19  and  N_20
REMARK    9  A    between atoms: N_24  and  C_25
REMARK                            x       y       z     vdW  Elec       q    Type
REMARK                         _______ _______ _______ _____ _____    ______ ____
ROOT
ATOM      1  C   UNL     1      -2.539  -6.815  -5.187  0.00  0.00    +0.002 C 
ENDROOT
BRANCH   1   2
ATOM      2  C   UNL     1      -2.380  -5.546  -4.348  0.00  0.00    +0.021 C 
BRANCH   2   3
ATOM      3  C   UNL     1      -2.946  -4.351  -5.118  0.00  0.00    +0.121 C 
BRANCH   3   8
ATOM      4  N   UNL     1      -2.372   0.240  -2.083  0.00  0.00    -0.355 N 
ATOM      5  C   UNL     1      -2.510  -0.865  -2.813  0.00  0.00    +0.042 A 
ATOM      6  C   UNL     1      -1.490  -1.270  -3.714  0.00  0.00    +0.043 A 
ATOM      7  C   UNL     1      -1.660  -2.394  -4.438  0.00  0.00    +0.087 A 
ATOM      8  N   UNL     1      -2.794  -3.136  -4.314  0.00  0.00    -0.353 N 
ATOM      9  C   UNL     1      -3.790  -2.774  -3.461  0.00  0.00    +0.087 A 
ATOM     10  C   UNL     1      -3.678  -1.664  -2.703  0.00  0.00    +0.043 A 
ATOM     11  H   UNL     1      -3.032   0.461  -1.408  0.00  0.00    +0.166 HD
BRANCH   4  17
ATOM     12  C   UNL     1      -1.042   1.580  -3.555  0.00  0.00    +0.027 A 
ATOM     13  C   UNL     1       0.043   2.409  -3.750  0.00  0.00    +0.022 A 
ATOM     14  C   UNL     1       0.875   2.728  -2.690  0.00  0.00    +0.041 A 
ATOM     15  C   UNL     1       0.625   2.217  -1.427  0.00  0.00    +0.022 A 
ATOM     16  C   UNL     1      -0.456   1.387  -1.217  0.00  0.00    +0.027 A 
ATOM     17  C   UNL     1      -1.300   1.060  -2.283  0.00  0.00    +0.040 A 
ATOM     18 CL   UNL     1       2.238   3.772  -2.945  0.00  0.00    -0.084 Cl
ENDBRANCH   4  17
ENDBRANCH   3   8
ENDBRANCH   2   3
ENDBRANCH   1   2
BRANCH   1  19
ATOM     19  C   UNL     1      -1.972  -8.010  -4.418  0.00  0.00    +0.002 C 
BRANCH  19  20
ATOM     20  C   UNL     1      -2.131  -9.279  -5.257  0.00  0.00    +0.021 C 
BRANCH  20  21
ATOM     21  C   UNL     1      -1.565 -10.474  -4.487  0.00  0.00    +0.121 C 
BRANCH  21  22
ATOM     22  N   UNL     1      -1.717 -11.689  -5.291  0.00  0.00    -0.353 N 
ATOM     23  C   UNL     1      -2.853 -12.428  -5.171  0.00  0.00    +0.087 A 
ATOM     24  C   UNL     1      -3.024 -13.551  -5.896  0.00  0.00    +0.043 A 
ATOM     25  C   UNL     1      -2.002 -13.960  -6.793  0.00  0.00    +0.042 A 
ATOM     26  N   UNL     1      -2.140 -15.064  -7.524  0.00  0.00    -0.355 N 
ATOM     27  C   UNL     1      -0.828 -13.166  -6.894  0.00  0.00    +0.043 A 
ATOM     28  C   UNL     1      -0.721 -12.051  -6.144  0.00  0.00    +0.087 A 
ATOM     29  H   UNL     1      -2.977 -15.554  -7.508  0.00  0.00    +0.166 HD
BRANCH  26  30
ATOM     30  C   UNL     1      -1.106 -15.506  -8.295  0.00  0.00    +0.040 A 
ATOM     31  C   UNL     1       0.142 -15.760  -7.718  0.00  0.00    +0.027 A 
ATOM     32  C   UNL     1       1.184 -16.206  -8.504  0.00  0.00    +0.022 A 
ATOM     33  C   UNL     1       0.996 -16.403  -9.862  0.00  0.00    +0.041 A 
ATOM     34  C   UNL     1      -0.237 -16.153 -10.440  0.00  0.00    +0.022 A 
ATOM     35  C   UNL     1      -1.290 -15.712  -9.666  0.00  0.00    +0.027 A 
ATOM     36 CL   UNL     1       2.313 -16.965 -10.843  0.00  0.00    -0.084 Cl
ENDBRANCH  26  30
ENDBRANCH  21  22
ENDBRANCH  20  21
ENDBRANCH  19  20
ENDBRANCH   1  19
TORSDOF 9
