REMARK  Name = ZINC10260211
REMARK  10 active torsions:
REMARK  status: ('A' for Active; 'I' for Inactive)
REMARK    1  A    between atoms: C_1  and  C_2
REMARK    2  A    between atoms: C_2  and  C_3
REMARK    3  A    between atoms: C_2  and  C_4
REMARK    4  A    between atoms: C_4  and  C_6
REMARK    5  A    between atoms: C_4  and  N_14
REMARK    6  A    between atoms: C_9  and  O_12
REMARK    7  A    between atoms: O_12  and  C_13
REMARK    8  A    between atoms: N_17  and  N_18
REMARK    9  A    between atoms: C_19  and  C_21
REMARK   10  A    between atoms: N_23  and  C_30
REMARK                            x       y       z     vdW  Elec       q    Type
REMARK                         _______ _______ _______ _____ _____    ______ ____
ROOT
ATOM      1  N   UNL     1      -2.105  -0.148  -1.230  0.00  0.00    -0.291 N 
ATOM      2  C   UNL     1      -1.970  -0.910  -2.334  0.00  0.00    +0.316 C 
ATOM      3  O   UNL     1      -1.290  -1.917  -2.297  0.00  0.00    -0.251 OA
ATOM      4  N   UNL     1      -2.588  -0.556  -3.478  0.00  0.00    -0.218 N 
ATOM      5  H   UNL     1      -2.648   0.655  -1.260  0.00  0.00    +0.151 HD
ATOM      6  H   UNL     1      -2.491  -1.104  -4.272  0.00  0.00    +0.174 HD
ENDROOT
BRANCH   4   7
ATOM      7  N   UNL     1      -3.372   0.605  -3.520  0.00  0.00    -0.229 N 
ATOM      8  C   UNL     1      -3.990   0.959  -4.664  0.00  0.00    +0.262 C 
ATOM      9  O   UNL     1      -3.868   0.271  -5.660  0.00  0.00    -0.269 OA
ATOM     10  H   UNL     1      -3.469   1.153  -2.726  0.00  0.00    +0.173 HD
BRANCH   8  11
ATOM     11  C   UNL     1      -4.812   2.176  -4.708  0.00  0.00    +0.063 A 
ATOM     12  C   UNL     1      -5.038   3.046  -3.682  0.00  0.00    +0.099 A 
ATOM     13  N   UNL     1      -5.846   4.049  -4.102  0.00  0.00    -0.349 N 
ATOM     14  C   UNL     1      -6.183   3.873  -5.428  0.00  0.00    +0.050 A 
ATOM     15  C   UNL     1      -5.550   2.701  -5.872  0.00  0.00    +0.012 A 
ATOM     16  C   UNL     1      -5.710   2.276  -7.188  0.00  0.00    +0.011 A 
ATOM     17  C   UNL     1      -6.489   3.013  -8.053  0.00  0.00    +0.001 A 
ATOM     18  C   UNL     1      -7.113   4.173  -7.617  0.00  0.00    +0.002 A 
ATOM     19  C   UNL     1      -6.970   4.601  -6.315  0.00  0.00    +0.026 A 
ATOM     20  C   UNL     1      -6.299   5.163  -3.265  0.00  0.00    +0.149 C 
ENDBRANCH   8  11
ENDBRANCH   4   7
BRANCH   1  21
ATOM     21  C   UNL     1      -1.433  -0.534   0.013  0.00  0.00    +0.107 C 
BRANCH  21  22
ATOM     22  C   UNL     1      -2.175   0.051   1.187  0.00  0.00    -0.027 A 
ATOM     23  C   UNL     1      -2.690   1.332   1.110  0.00  0.00    +0.009 A 
ATOM     24  C   UNL     1      -3.371   1.870   2.185  0.00  0.00    +0.046 A 
ATOM     25  C   UNL     1      -3.538   1.124   3.343  0.00  0.00    +0.120 A 
ATOM     26  C   UNL     1      -3.020  -0.161   3.417  0.00  0.00    +0.046 A 
ATOM     27  C   UNL     1      -2.345  -0.697   2.338  0.00  0.00    +0.009 A 
BRANCH  25  28
ATOM     28  O   UNL     1      -4.206   1.651   4.402  0.00  0.00    -0.495 OA
ATOM     29  C   UNL     1      -4.340   0.826   5.561  0.00  0.00    +0.277 C 
ENDBRANCH  25  28
ENDBRANCH  21  22
BRANCH  21  31
ATOM     30  C   UNL     1      -0.019   1.526   0.010  0.00  0.00    +0.009 C 
ATOM     31  C   UNL     1       0.002  -0.004   0.002  0.00  0.00    +0.008 C 
ATOM     32  C   UNL     1       0.742  -0.511   1.242  0.00  0.00    +0.009 C 
ENDBRANCH  21  31
ENDBRANCH   1  21
TORSDOF 6
