REMARK  Name = ZINC40680810
REMARK  8 active torsions:
REMARK  status: ('A' for Active; 'I' for Inactive)
REMARK    1  A    between atoms: C_1  and  C_2
REMARK    2  A    between atoms: C_4  and  C_24
REMARK    3  A    between atoms: C_7  and  N_8
REMARK    4  A    between atoms: C_10  and  N_22
REMARK    5  A    between atoms: C_11  and  N_15
REMARK    6  A    between atoms: C_18  and  C_21
REMARK    7  A    between atoms: C_24  and  C_26
REMARK    8  A    between atoms: C_24  and  C_28
REMARK                            x       y       z     vdW  Elec       q    Type
REMARK                         _______ _______ _______ _____ _____    ______ ____
ROOT
ATOM      1  N   UNL     1      -0.465  -1.192   3.082  0.00  0.00    -0.298 N 
ATOM      2  C   UNL     1      -0.748  -2.058   4.132  0.00  0.00    +0.149 A 
ATOM      3  C   UNL     1      -0.928  -1.567   5.427  0.00  0.00    +0.106 A 
ATOM      4  C   UNL     1      -1.210  -2.479   6.445  0.00  0.00    +0.150 A 
ATOM      5  N   UNL     1      -1.297  -3.773   6.145  0.00  0.00    -0.219 NA
ATOM      6  C   UNL     1      -1.120  -4.195   4.909  0.00  0.00    +0.225 A 
ATOM      7  N   UNL     1      -0.858  -3.367   3.918  0.00  0.00    -0.219 NA
ATOM      8  H   UNL     1      -0.477  -0.233   3.227  0.00  0.00    +0.154 HD
ENDROOT
BRANCH   1  15
ATOM      9  C   UNL     1      -1.081   0.402   0.807  0.00  0.00    +0.045 C 
ATOM     10  C   UNL     1      -0.447  -0.959   0.679  0.00  0.00    -0.029 A 
ATOM     11  C   UNL     1      -0.142  -1.464  -0.570  0.00  0.00    +0.011 A 
ATOM     12  C   UNL     1       0.440  -2.713  -0.689  0.00  0.00    -0.008 A 
ATOM     13  C   UNL     1       0.719  -3.460   0.442  0.00  0.00    +0.047 A 
ATOM     14  C   UNL     1       0.416  -2.960   1.694  0.00  0.00    +0.043 A 
ATOM     15  C   UNL     1      -0.163  -1.703   1.817  0.00  0.00    +0.037 A 
ATOM     16 CL   UNL     1       1.449  -5.027   0.288  0.00  0.00    -0.083 Cl
BRANCH  12  17
ATOM     17  C   UNL     1       0.770  -3.261  -2.053  0.00  0.00    +0.153 C 
BRANCH  17  18
ATOM     18  C   UNL     1      -0.504  -3.493  -2.824  0.00  0.00    -0.026 A 
ATOM     19  C   UNL     1      -1.250  -2.416  -3.265  0.00  0.00    +0.006 A 
ATOM     20  C   UNL     1      -2.419  -2.628  -3.972  0.00  0.00    +0.020 A 
ATOM     21  C   UNL     1      -2.842  -3.918  -4.237  0.00  0.00    +0.041 A 
ATOM     22  C   UNL     1      -2.095  -4.996  -3.795  0.00  0.00    +0.020 A 
ATOM     23  C   UNL     1      -0.923  -4.782  -3.094  0.00  0.00    +0.006 A 
ATOM     24 CL   UNL     1      -4.310  -4.186  -5.124  0.00  0.00    -0.084 Cl
ENDBRANCH  17  18
BRANCH  17  25
ATOM     25  C   UNL     1       1.614  -2.297  -2.778  0.00  0.00    +0.075 C 
ATOM     26  N   UNL     1       2.264  -1.552  -3.338  0.00  0.00    -0.196 NA
ENDBRANCH  17  25
ENDBRANCH  12  17
ENDBRANCH   1  15
BRANCH   4  27
ATOM     27  N   UNL     1      -1.397  -2.044   7.753  0.00  0.00    -0.280 N 
ATOM     28  C   UNL     1      -1.679  -2.963   8.759  0.00  0.00    +0.167 A 
ATOM     29  C   UNL     1      -1.796  -4.363   8.599  0.00  0.00    +0.091 A 
ATOM     30  C   UNL     1      -2.072  -4.899   9.801  0.00  0.00    +0.136 A 
ATOM     31  O   UNL     1      -2.132  -3.904  10.700  0.00  0.00    -0.358 OA
ATOM     32  N   UNL     1      -1.875  -2.686  10.024  0.00  0.00    -0.063 NA
ATOM     33  C   UNL     1      -2.279  -6.364  10.088  0.00  0.00    +0.089 C 
ATOM     34  H   UNL     1      -1.332  -1.099   7.963  0.00  0.00    +0.155 HD
ENDBRANCH   4  27
BRANCH   3  35
ATOM     35  N   UNL     1      -0.827  -0.193   5.698  0.00  0.00    -0.353 N 
ATOM     36  H   UNL     1      -0.630   0.429   4.981  0.00  0.00    +0.143 HD
ATOM     37  H   UNL     1      -0.954   0.134   6.603  0.00  0.00    +0.143 HD
ENDBRANCH   3  35
TORSDOF 6
