REMARK  Name = ZINC18016401
REMARK  9 active torsions:
REMARK  status: ('A' for Active; 'I' for Inactive)
REMARK    1  A    between atoms: C_1  and  C_2
REMARK    2  A    between atoms: C_5  and  S_8
REMARK    3  A    between atoms: S_8  and  N_11
REMARK    4  A    between atoms: N_11  and  C_12
REMARK    5  A    between atoms: N_11  and  C_13
REMARK    6  A    between atoms: C_13  and  C_14
REMARK    7  A    between atoms: N_16  and  C_17
REMARK    8  A    between atoms: C_17  and  C_19
REMARK    9  A    between atoms: C_17  and  C_20
REMARK                            x       y       z     vdW  Elec       q    Type
REMARK                         _______ _______ _______ _____ _____    ______ ____
ROOT
ATOM      1  C   UNL     1      -4.466   0.915   1.476  0.00  0.00    +0.229 C 
ATOM      2  O   UNL     1      -4.568  -0.270   1.240  0.00  0.00    -0.274 OA
ATOM      3  N   UNL     1      -3.471   1.631   0.916  0.00  0.00    -0.308 N 
ATOM      4  H   UNL     1      -3.389   2.578   1.105  0.00  0.00    +0.149 HD
ENDROOT
BRANCH   3   5
ATOM      5  C   UNL     1      -2.513   0.977   0.020  0.00  0.00    +0.100 C 
ATOM      6  C   UNL     1      -3.087   0.938  -1.398  0.00  0.00    +0.033 C 
BRANCH   5   7
ATOM      7  C   UNL     1      -1.220   1.750   0.017  0.00  0.00    -0.025 A 
ATOM      8  C   UNL     1      -0.013   1.076   0.008  0.00  0.00    +0.008 A 
ATOM      9  C   UNL     1       1.175   1.782   0.000  0.00  0.00    +0.041 A 
ATOM     10  C   UNL     1       1.157   3.166   0.008  0.00  0.00    +0.158 A 
ATOM     11  C   UNL     1      -0.053   3.842   0.022  0.00  0.00    +0.159 A 
ATOM     12  C   UNL     1      -1.241   3.132   0.030  0.00  0.00    +0.046 A 
ATOM     13  F   UNL     1      -0.073   5.193   0.029  0.00  0.00    -0.202 F 
ATOM     14  F   UNL     1       2.318   3.858   0.001  0.00  0.00    -0.202 F 
ENDBRANCH   5   7
ENDBRANCH   3   5
BRANCH   1  15
ATOM     15  C   UNL     1      -5.450   1.587   2.398  0.00  0.00    +0.204 C 
BRANCH  15  16
ATOM     16  N   UNL     1      -6.426   0.602   2.873  0.00  0.00    -0.171 NA
ATOM     17  C   UNL     1      -6.118  -0.231   4.038  0.00  0.00    +0.132 C 
BRANCH  16  18
ATOM     18  S   UNL     1      -7.876   0.430   2.092  0.00  0.00    +0.061 S 
ATOM     19  O   UNL     1      -8.782  -0.124   3.036  0.00  0.00    -0.153 OA
ATOM     20  O   UNL     1      -8.127   1.661   1.426  0.00  0.00    -0.153 OA
BRANCH  18  25
ATOM     21  C   UNL     1      -7.106  -3.732  -2.208  0.00  0.00    +0.044 C 
ATOM     22  C   UNL     1      -7.299  -2.692  -1.134  0.00  0.00    -0.050 A 
ATOM     23  C   UNL     1      -7.701  -3.073   0.133  0.00  0.00    +0.005 A 
ATOM     24  C   UNL     1      -7.878  -2.119   1.118  0.00  0.00    +0.029 A 
ATOM     25  C   UNL     1      -7.651  -0.785   0.837  0.00  0.00    +0.105 A 
ATOM     26  C   UNL     1      -7.253  -0.404  -0.431  0.00  0.00    +0.029 A 
ATOM     27  C   UNL     1      -7.073  -1.358  -1.415  0.00  0.00    +0.005 A 
ENDBRANCH  18  25
ENDBRANCH  16  18
ENDBRANCH  15  16
ENDBRANCH   1  15
TORSDOF 6
