REMARK  Name = ZINC39715690
REMARK  10 active torsions:
REMARK  status: ('A' for Active; 'I' for Inactive)
REMARK    1  A    between atoms: C_1  and  C_2
REMARK    2  A    between atoms: C_3  and  C_28
REMARK    3  A    between atoms: C_4  and  C_27
REMARK    4  A    between atoms: C_9  and  S_11
REMARK    5  A    between atoms: S_11  and  C_12
REMARK    6  A    between atoms: C_12  and  C_14
REMARK    7  A    between atoms: C_12  and  C_15
REMARK    8  A    between atoms: N_17  and  C_18
REMARK    9  A    between atoms: C_24  and  C_26
REMARK   10  A    between atoms: C_28  and  C_29
REMARK                            x       y       z     vdW  Elec       q    Type
REMARK                         _______ _______ _______ _____ _____    ______ ____
ROOT
ATOM      1  C   UNL     1      -0.018   1.503   0.010  0.00  0.00    +0.066 C 
ATOM      2  C   UNL     1       0.002  -0.004   0.002  0.00  0.00    +0.047 A 
ATOM      3  C   UNL     1      -1.202  -0.717   0.004  0.00  0.00    +0.006 A 
ATOM      4  C   UNL     1      -1.169  -2.075  -0.004  0.00  0.00    +0.049 A 
ATOM      5  N   UNL     1       0.035  -2.706  -0.014  0.00  0.00    -0.200 N 
ATOM      6  C   UNL     1       1.192  -1.980  -0.015  0.00  0.00    +0.254 A 
ATOM      7  N   UNL     1       1.151  -0.643  -0.012  0.00  0.00    -0.216 NA
ATOM      8  N   UNL     1       2.202  -2.844  -0.025  0.00  0.00    -0.183 NA
ATOM      9  C   UNL     1       1.728  -4.088  -0.030  0.00  0.00    +0.212 A 
ATOM     10  N   UNL     1       0.410  -4.055  -0.023  0.00  0.00    -0.137 NA
ATOM     11  C   UNL     1      -2.449  -2.871  -0.002  0.00  0.00    +0.066 C 
ENDROOT
BRANCH   9  12
ATOM     12  S   UNL     1       2.710  -5.551  -0.044  0.00  0.00    -0.072 S 
BRANCH  12  13
ATOM     13  C   UNL     1       4.416  -4.935  -0.049  0.00  0.00    +0.137 C 
ATOM     14  C   UNL     1       4.695  -4.196   1.262  0.00  0.00    +0.029 C 
BRANCH  13  15
ATOM     15  C   UNL     1       5.369  -6.095  -0.184  0.00  0.00    +0.226 C 
ATOM     16  O   UNL     1       5.000  -7.217   0.090  0.00  0.00    -0.275 OA
ATOM     17  N   UNL     1       6.630  -5.885  -0.610  0.00  0.00    -0.311 N 
ATOM     18  H   UNL     1       6.924  -4.987  -0.830  0.00  0.00    +0.149 HD
BRANCH  17  19
ATOM     19  C   UNL     1       7.556  -7.012  -0.742  0.00  0.00    +0.076 C 
ATOM     20  C   UNL     1       8.215  -7.291   0.610  0.00  0.00    +0.022 C 
ATOM     21  C   UNL     1       8.984  -6.050   1.068  0.00  0.00    +0.002 C 
ATOM     22  C   UNL     1      10.061  -5.708   0.036  0.00  0.00    +0.000 C 
ATOM     23  C   UNL     1       9.402  -5.429  -1.316  0.00  0.00    +0.005 C 
ATOM     24  C   UNL     1       8.633  -6.670  -1.774  0.00  0.00    +0.006 C 
ATOM     25  C   UNL     1       7.973  -6.390  -3.126  0.00  0.00    +0.009 C 
ENDBRANCH  17  19
ENDBRANCH  13  15
ENDBRANCH  12  13
ENDBRANCH   9  12
BRANCH   3  26
ATOM     26  C   UNL     1      -2.520   0.013   0.015  0.00  0.00    +0.163 C 
BRANCH  26  27
ATOM     27  C   UNL     1      -2.893   0.356   1.435  0.00  0.00    +0.360 C 
ATOM     28  O   UNL     1      -2.156   0.037   2.352  0.00  0.00    -0.246 OA
ATOM     29  O   UNL     1      -3.930   0.953   1.665  0.00  0.00    -0.246 OA
ENDBRANCH  26  27
ENDBRANCH   3  26
TORSDOF 6
