REMARK  Name = ZINC01592886
REMARK  4 active torsions:
REMARK  status: ('A' for Active; 'I' for Inactive)
REMARK    1  A    between atoms: C_1  and  C_2
REMARK    2  A    between atoms: C_2  and  C_11
REMARK    3  A    between atoms: P_5  and  N_9
REMARK    4  A    between atoms: N_9  and  N_10
REMARK                            x       y       z     vdW  Elec       q    Type
REMARK                         _______ _______ _______ _____ _____    ______ ____
ROOT
ATOM      1  C   UNL     1      -4.614   3.953  -2.106  0.00  0.00    +0.017 C 
ATOM      2  C   UNL     1      -3.450   3.204  -1.453  0.00  0.00    +0.029 C 
ATOM      3  C   UNL     1      -3.474   1.744  -1.906  0.00  0.00    +0.181 C 
ATOM      4  O   UNL     1      -2.427   1.025  -1.227  0.00  0.00    -0.295 OA
ATOM      5  P   UNL     1      -0.910   1.603  -1.284  0.00  0.00    +0.421 P 
ATOM      6  O   UNL     1      -0.269   1.232  -2.566  0.00  0.00    -0.239 OA
ATOM      7  O   UNL     1      -1.046   3.218  -1.172  0.00  0.00    -0.295 OA
ATOM      8  C   UNL     1      -2.135   3.874  -1.851  0.00  0.00    +0.181 C 
ENDROOT
BRANCH   5   9
ATOM      9  N   UNL     1      -0.012   1.005   0.008  0.00  0.00    -0.161 NA
ATOM     10  H   UNL     1       0.002  -0.004   0.002  0.00  0.00    +0.153 HD
BRANCH   9  11
ATOM     11  N   UNL     1       1.339   1.544  -0.002  0.00  0.00    -0.261 NA
ATOM     12  H   UNL     1       1.877   1.186   0.772  0.00  0.00    +0.137 HD
ATOM     13  H   UNL     1       1.797   1.354  -0.881  0.00  0.00    +0.137 HD
ENDBRANCH   9  11
ENDBRANCH   5   9
BRANCH   2  14
ATOM     14  C   UNL     1      -3.605   3.262   0.068  0.00  0.00    +0.119 C 
ATOM     15 CL   UNL     1      -2.247   2.366   0.845  0.00  0.00    -0.125 Cl
ENDBRANCH   2  14
TORSDOF 3
