REMARK  Name = ZINC09135516
REMARK  8 active torsions:
REMARK  status: ('A' for Active; 'I' for Inactive)
REMARK    1  A    between atoms: C_1  and  C_2
REMARK    2  A    between atoms: C_6  and  N_8
REMARK    3  A    between atoms: C_9  and  C_11
REMARK    4  A    between atoms: N_13  and  C_14
REMARK    5  A    between atoms: C_14  and  C_15
REMARK    6  A    between atoms: C_15  and  C_17
REMARK    7  A    between atoms: C_15  and  N_63
REMARK    8  A    between atoms: N_26  and  C_27
REMARK                            x       y       z     vdW  Elec       q    Type
REMARK                         _______ _______ _______ _____ _____    ______ ____
ROOT
ATOM      1  C   UNL     1       2.572  10.727   0.579  0.00  0.00    -0.020 C 
ENDROOT
BRANCH   1   2
ATOM      2  C   UNL     1       2.890  12.177   0.320  0.00  0.00    -0.059 A 
ATOM      3  C   UNL     1       2.726  12.707  -0.947  0.00  0.00    +0.004 A 
ATOM      4  C   UNL     1       3.014  14.034  -1.180  0.00  0.00    +0.023 A 
ATOM      5  C   UNL     1       3.484  14.848  -0.148  0.00  0.00    +0.033 A 
ATOM      6  C   UNL     1       3.648  14.312   1.118  0.00  0.00    -0.026 A 
ATOM      7  C   UNL     1       3.351  12.978   1.346  0.00  0.00    +0.007 A 
ATOM      8  C   UNL     1       4.141  15.139   2.278  0.00  0.00    +0.038 C 
ATOM      9  C   UNL     1       4.765  16.436   1.758  0.00  0.00    +0.024 C 
ATOM     10  C   UNL     1       3.803  17.044   0.729  0.00  0.00    +0.105 C 
ATOM     11  N   UNL     1       3.772  16.178  -0.451  0.00  0.00    -0.333 N 
ATOM     12  C   UNL     1       2.844  16.700  -1.463  0.00  0.00    +0.129 C 
ENDBRANCH   1   2
BRANCH   1  17
ATOM     13  C   UNL     1       4.489  10.068  -0.770  0.00  0.00    -0.078 C 
ATOM     14  C   UNL     1       4.861   8.810  -1.593  0.00  0.00    -0.020 C 
ATOM     15  C   UNL     1       3.962   7.714  -0.977  0.00  0.00    -0.020 C 
ATOM     16  C   UNL     1       2.804   8.476  -0.305  0.00  0.00    -0.078 C 
ATOM     17  N   UNL     1       3.042   9.895  -0.570  0.00  0.00    +0.385 N 
ATOM     18  H   UNL     1       2.538  10.178  -1.419  0.00  0.00    -0.081 HD
ENDBRANCH   1  17
BRANCH   1  19
ATOM     19  C   UNL     1       1.061  10.559   0.753  0.00  0.00    +0.094 C 
BRANCH  19  22
ATOM     20  C   UNL     1      -0.657  11.193   2.360  0.00  0.00    +0.299 C 
ATOM     21  O   UNL     1      -1.452  10.528   1.728  0.00  0.00    -0.265 OA
ATOM     22  N   UNL     1       0.626  11.274   1.955  0.00  0.00    -0.309 N 
ATOM     23  H   UNL     1       1.261  11.806   2.460  0.00  0.00    +0.149 HD
BRANCH  20  25
ATOM     24  N   UNL     1      -2.384  11.840   3.991  0.00  0.00    -0.278 N 
ATOM     25  C   UNL     1      -1.101  11.921   3.586  0.00  0.00    +0.303 C 
ATOM     26  O   UNL     1      -0.306  12.586   4.218  0.00  0.00    -0.265 OA
ATOM     27  H   UNL     1      -3.003  11.256   3.526  0.00  0.00    +0.155 HD
BRANCH  24  33
ATOM     28  C   UNL     1      -2.216  16.012   6.584  0.00  0.00    +0.044 C 
ATOM     29  C   UNL     1      -2.757  14.623   6.362  0.00  0.00    -0.049 A 
ATOM     30  C   UNL     1      -3.689  14.096   7.238  0.00  0.00    +0.003 A 
ATOM     31  C   UNL     1      -4.192  12.825   7.035  0.00  0.00    +0.002 A 
ATOM     32  C   UNL     1      -3.762  12.073   5.959  0.00  0.00    +0.023 A 
ATOM     33  C   UNL     1      -2.822  12.597   5.080  0.00  0.00    +0.034 A 
ATOM     34  C   UNL     1      -2.318  13.875   5.288  0.00  0.00    +0.026 A 
ENDBRANCH  24  33
ENDBRANCH  20  25
ENDBRANCH  19  22
ENDBRANCH   1  19
TORSDOF 6
