REMARK  Name = ZINC53274098
REMARK  7 active torsions:
REMARK  status: ('A' for Active; 'I' for Inactive)
REMARK    1  A    between atoms: C_1  and  C_2
REMARK    2  A    between atoms: C_5  and  C_7
REMARK    3  A    between atoms: C_10  and  C_12
REMARK    4  A    between atoms: C_12  and  C_13
REMARK    5  A    between atoms: C_13  and  C_14
REMARK    6  A    between atoms: N_16  and  N_17
REMARK    7  A    between atoms: C_23  and  C_26
REMARK                            x       y       z     vdW  Elec       q    Type
REMARK                         _______ _______ _______ _____ _____    ______ ____
ROOT
ATOM      1  C   UNL     1       1.071  -7.775   0.297  0.00  0.00    +0.230 C 
ATOM      2  O   UNL     1       1.193  -7.990  -0.891  0.00  0.00    -0.274 OA
ATOM      3  N   UNL     1       0.750  -8.781   1.134  0.00  0.00    -0.224 N 
ATOM      4  H   UNL     1       0.653  -8.609   2.084  0.00  0.00    +0.174 HD
ENDROOT
BRANCH   3   5
ATOM      5  N   UNL     1       0.557 -10.075   0.633  0.00  0.00    -0.137 N 
ATOM      6  C   UNL     1      -0.651 -10.655   0.478  0.00  0.00    +0.263 C 
ATOM      7  O   UNL     1      -1.734 -10.175   0.736  0.00  0.00    -0.271 OA
ATOM      8  C   UNL     1      -0.369 -12.029  -0.085  0.00  0.00    +0.114 C 
ATOM      9  C   UNL     1      -0.869 -13.107   0.871  0.00  0.00    +0.035 C 
ATOM     10  C   UNL     1      -2.391 -13.011   1.000  0.00  0.00    +0.006 C 
ATOM     11  C   UNL     1      -3.031 -13.191  -0.379  0.00  0.00    -0.014 C 
ATOM     12  C   UNL     1      -2.537 -12.091  -1.320  0.00  0.00    +0.006 C 
ATOM     13  C   UNL     1      -1.015 -12.184  -1.457  0.00  0.00    +0.035 C 
ATOM     14  C   UNL     1      -4.553 -13.105  -0.249  0.00  0.00    +0.007 C 
ATOM     15  N   UNL     1       1.094 -12.076  -0.195  0.00  0.00    -0.284 N 
ATOM     16  C   UNL     1       1.548 -10.886   0.243  0.00  0.00    +0.326 C 
ATOM     17  O   UNL     1       2.724 -10.584   0.284  0.00  0.00    -0.251 OA
ATOM     18  H   UNL     1       1.629 -12.817  -0.522  0.00  0.00    +0.151 HD
ENDBRANCH   3   5
BRANCH   1  19
ATOM     19  C   UNL     1       1.279  -6.383   0.836  0.00  0.00    +0.105 C 
BRANCH  19  20
ATOM     20  C   UNL     1       1.631  -5.438  -0.315  0.00  0.00    +0.083 C 
BRANCH  20  24
ATOM     21  C   UNL     1       1.434  -1.989   0.869  0.00  0.00    +0.109 A 
ATOM     22  C   UNL     1       2.746  -2.209   1.068  0.00  0.00    +0.045 A 
ATOM     23  C   UNL     1       3.007  -3.535   0.653  0.00  0.00    +0.045 A 
ATOM     24  C   UNL     1       1.839  -4.046   0.224  0.00  0.00    +0.106 A 
ATOM     25  O   UNL     1       0.889  -3.107   0.362  0.00  0.00    -0.464 OA
BRANCH  21  29
ATOM     26  C   UNL     1      -0.019   1.526   0.010  0.00  0.00    +0.008 C 
ATOM     27  C   UNL     1       0.002  -0.004   0.002  0.00  0.00    -0.003 C 
ATOM     28  C   UNL     1      -0.828  -0.728   1.065  0.00  0.00    +0.015 C 
ATOM     29  C   UNL     1       0.700  -0.708   1.168  0.00  0.00    +0.058 C 
ENDBRANCH  21  29
ENDBRANCH  20  24
ENDBRANCH  19  20
ENDBRANCH   1  19
TORSDOF 5
