REMARK  Name = ZINC35577560
REMARK  6 active torsions:
REMARK  status: ('A' for Active; 'I' for Inactive)
REMARK    1  A    between atoms: C_1  and  C_2
REMARK    2  A    between atoms: C_6  and  N_8
REMARK    3  A    between atoms: C_9  and  N_31
REMARK    4  A    between atoms: C_11  and  C_26
REMARK    5  A    between atoms: N_17  and  C_18
REMARK    6  A    between atoms: C_18  and  C_19
REMARK                            x       y       z     vdW  Elec       q    Type
REMARK                         _______ _______ _______ _____ _____    ______ ____
ROOT
ATOM      1  N   UNL     1      -0.197  -2.786   2.554  0.00  0.00    -0.216 N 
ATOM      2  C   UNL     1      -0.591  -4.067   2.698  0.00  0.00    +0.131 A 
ATOM      3  C   UNL     1      -0.110  -4.518   3.919  0.00  0.00    +0.087 A 
ATOM      4  C   UNL     1      -0.170  -5.731   4.648  0.00  0.00    +0.095 A 
ATOM      5  N   UNL     1       0.436  -5.784   5.831  0.00  0.00    -0.213 NA
ATOM      6  C   UNL     1       1.087  -4.743   6.338  0.00  0.00    +0.218 A 
ATOM      7  N   UNL     1       1.191  -3.580   5.728  0.00  0.00    -0.193 NA
ATOM      8  C   UNL     1       0.623  -3.390   4.521  0.00  0.00    +0.189 A 
ATOM      9  N   UNL     1       0.547  -2.390   3.671  0.00  0.00    -0.144 NA
ATOM     10  N   UNL     1       1.689  -4.888   7.575  0.00  0.00    -0.309 N 
ATOM     11  H   UNL     1       1.629  -5.733   8.048  0.00  0.00    +0.149 HD
ENDROOT
BRANCH   1  17
ATOM     12  C   UNL     1      -1.233   1.657   0.719  0.00  0.00    +0.044 C 
ATOM     13  C   UNL     1      -0.990   0.181   0.531  0.00  0.00    -0.048 A 
ATOM     14  C   UNL     1      -1.051  -0.373  -0.735  0.00  0.00    +0.003 A 
ATOM     15  C   UNL     1      -0.829  -1.727  -0.911  0.00  0.00    +0.002 A 
ATOM     16  C   UNL     1      -0.546  -2.529   0.177  0.00  0.00    +0.028 A 
ATOM     17  C   UNL     1      -0.484  -1.976   1.449  0.00  0.00    +0.068 A 
ATOM     18  C   UNL     1      -0.701  -0.615   1.622  0.00  0.00    +0.031 A 
ENDBRANCH   1  17
BRANCH   4  19
ATOM     19  C   UNL     1      -0.884  -6.900   4.111  0.00  0.00    +0.038 A 
ATOM     20  C   UNL     1      -0.854  -7.429   2.833  0.00  0.00    +0.017 A 
ATOM     21  C   UNL     1      -1.638  -8.542   2.627  0.00  0.00    +0.008 A 
ATOM     22  C   UNL     1      -2.366  -9.033   3.659  0.00  0.00    +0.046 A 
ATOM     23  S   UNL     1      -2.006  -8.008   4.941  0.00  0.00    -0.095 S 
ENDBRANCH   4  19
BRANCH   2  24
ATOM     24  N   UNL     1      -1.339  -4.799   1.794  0.00  0.00    -0.342 N 
ATOM     25  H   UNL     1      -1.526  -4.437   0.913  0.00  0.00    +0.144 HD
ATOM     26  H   UNL     1      -1.676  -5.675   2.039  0.00  0.00    +0.144 HD
ENDBRANCH   2  24
BRANCH  10  27
ATOM     27  C   UNL     1       2.417  -3.766   8.172  0.00  0.00    +0.139 C 
BRANCH  27  28
ATOM     28  C   UNL     1       2.972  -4.181   9.510  0.00  0.00    -0.028 A 
ATOM     29  C   UNL     1       2.218  -4.007  10.655  0.00  0.00    +0.005 A 
ATOM     30  C   UNL     1       2.726  -4.388  11.883  0.00  0.00    +0.003 A 
ATOM     31  C   UNL     1       3.989  -4.943  11.967  0.00  0.00    +0.038 A 
ATOM     32  C   UNL     1       4.745  -5.117  10.821  0.00  0.00    +0.124 A 
ATOM     33  C   UNL     1       4.233  -4.741   9.591  0.00  0.00    +0.043 A 
ATOM     34  F   UNL     1       5.980  -5.659  10.902  0.00  0.00    -0.205 F 
ENDBRANCH  27  28
ENDBRANCH  10  27
TORSDOF 5
