REMARK  Name = ZINC55386034
REMARK  8 active torsions:
REMARK  status: ('A' for Active; 'I' for Inactive)
REMARK    1  A    between atoms: C_1  and  C_2
REMARK    2  A    between atoms: C_2  and  N_3
REMARK    3  A    between atoms: C_7  and  C_9
REMARK    4  A    between atoms: C_9  and  N_10
REMARK    5  A    between atoms: C_11  and  C_13
REMARK    6  A    between atoms: C_13  and  N_14
REMARK    7  A    between atoms: C_17  and  C_21
REMARK    8  A    between atoms: C_17  and  C_22
REMARK                            x       y       z     vdW  Elec       q    Type
REMARK                         _______ _______ _______ _____ _____    ______ ____
ROOT
ATOM      1  N   UNL     1      -2.306  -1.690   6.168  0.00  0.00    -0.215 N 
ATOM      2  C   UNL     1      -3.408  -1.065   6.629  0.00  0.00    +0.251 C 
ATOM      3  O   UNL     1      -3.949  -0.090   6.153  0.00  0.00    -0.272 OA
ATOM      4  C   UNL     1      -3.830  -1.836   7.864  0.00  0.00    +0.135 C 
ATOM      5  N   UNL     1      -2.822  -2.906   7.966  0.00  0.00    -0.281 N 
ATOM      6  C   UNL     1      -1.980  -2.740   6.931  0.00  0.00    +0.310 C 
ATOM      7  O   UNL     1      -1.026  -3.462   6.713  0.00  0.00    -0.252 OA
ATOM      8  C   UNL     1      -3.786  -0.936   9.101  0.00  0.00    +0.047 C 
ATOM      9  H   UNL     1      -2.777  -3.596   8.646  0.00  0.00    +0.152 HD
ENDROOT
BRANCH   4  10
ATOM     10  C   UNL     1      -5.207  -2.420   7.680  0.00  0.00    -0.015 A 
ATOM     11  C   UNL     1      -6.125  -1.781   6.868  0.00  0.00    +0.009 A 
ATOM     12  C   UNL     1      -7.388  -2.316   6.698  0.00  0.00    +0.039 A 
ATOM     13  C   UNL     1      -7.733  -3.493   7.341  0.00  0.00    +0.123 A 
ATOM     14  C   UNL     1      -6.812  -4.132   8.154  0.00  0.00    +0.039 A 
ATOM     15  C   UNL     1      -5.548  -3.598   8.318  0.00  0.00    +0.009 A 
ATOM     16  F   UNL     1      -8.967  -4.016   7.176  0.00  0.00    -0.205 F 
ENDBRANCH   4  10
BRANCH   1  17
ATOM     17  C   UNL     1      -1.561  -1.275   4.977  0.00  0.00    +0.213 C 
BRANCH  17  19
ATOM     18  N   UNL     1      -1.592  -1.740   2.548  0.00  0.00    -0.316 N 
ATOM     19  C   UNL     1      -2.124  -1.971   3.765  0.00  0.00    +0.231 C 
ATOM     20  O   UNL     1      -3.055  -2.738   3.884  0.00  0.00    -0.274 OA
ATOM     21  H   UNL     1      -0.847  -1.126   2.453  0.00  0.00    +0.149 HD
BRANCH  18  22
ATOM     22  C   UNL     1      -2.139  -2.417   1.369  0.00  0.00    +0.089 C 
BRANCH  22  27
ATOM     23  N   UNL     1      -1.376  -0.512   0.012  0.00  0.00    +0.382 N 
ATOM     24  C   UNL     1      -2.052  -0.144  -1.250  0.00  0.00    -0.078 C 
ATOM     25  C   UNL     1      -1.892  -1.386  -2.162  0.00  0.00    -0.020 C 
ATOM     26  C   UNL     1      -2.041  -2.545  -1.141  0.00  0.00    -0.016 C 
ATOM     27  C   UNL     1      -1.362  -1.983   0.125  0.00  0.00    -0.051 C 
ATOM     28  H   UNL     1      -1.879  -0.117   0.793  0.00  0.00    -0.081 HD
BRANCH  23  30
ATOM     29  C   UNL     1      -0.019   1.526   0.010  0.00  0.00    -0.017 C 
ATOM     30  C   UNL     1       0.002  -0.004   0.002  0.00  0.00    -0.082 C 
ENDBRANCH  23  30
ENDBRANCH  22  27
ENDBRANCH  18  22
ENDBRANCH  17  19
ENDBRANCH   1  17
TORSDOF 6
