REMARK  Name = ZINC10059411
REMARK  7 active torsions:
REMARK  status: ('A' for Active; 'I' for Inactive)
REMARK    1  A    between atoms: C_1  and  C_2
REMARK    2  A    between atoms: C_2  and  C_4
REMARK    3  A    between atoms: C_2  and  S_14
REMARK    4  A    between atoms: N_6  and  C_7
REMARK    5  A    between atoms: S_14  and  C_15
REMARK    6  A    between atoms: C_19  and  N_24
REMARK    7  A    between atoms: C_25  and  C_27
REMARK                            x       y       z     vdW  Elec       q    Type
REMARK                         _______ _______ _______ _____ _____    ______ ____
ROOT
ATOM      1  C   UNL     1       0.125   0.400   3.305  0.00  0.00    +0.150 A 
ATOM      2  N   UNL     1      -0.883  -0.445   3.527  0.00  0.00    -0.302 N 
ATOM      3  C   UNL     1      -1.851  -0.144   4.414  0.00  0.00    +0.277 A 
ATOM      4  O   UNL     1      -2.862  -0.999   4.632  0.00  0.00    -0.266 OA
ATOM      5  C   UNL     1      -1.790   1.067   5.104  0.00  0.00    +0.164 A 
ATOM      6  H   UNL     1       0.963   2.154   3.771  0.00  0.00    +0.171 HD
ATOM      7  C   UNL     1      -0.722   1.927   4.848  0.00  0.00    +0.277 A 
ATOM      8  N   UNL     1       0.216   1.562   3.951  0.00  0.00    -0.302 N 
ATOM      9  O   UNL     1      -0.626   3.101   5.490  0.00  0.00    -0.266 OA
ATOM     10  H   UNL     1      -0.919  -1.285   3.044  0.00  0.00    +0.171 HD
ENDROOT
BRANCH   5  11
ATOM     11  N   UNL     1      -2.785   1.414   6.039  0.00  0.00    -0.277 N 
ATOM     12  C   UNL     1      -2.449   1.669   7.319  0.00  0.00    +0.214 C 
ATOM     13  O   UNL     1      -1.281   1.687   7.647  0.00  0.00    -0.276 OA
ATOM     14  C   UNL     1      -3.523   1.930   8.343  0.00  0.00    +0.109 C 
ATOM     15  H   UNL     1      -3.713   1.470   5.761  0.00  0.00    +0.155 HD
ENDBRANCH   5  11
BRANCH   1  16
ATOM     16  S   UNL     1       1.369  -0.034   2.136  0.00  0.00    -0.077 S 
BRANCH  16  18
ATOM     17  C   UNL     1       0.043   1.335   0.174  0.00  0.00    +0.029 C 
ATOM     18  C   UNL     1       0.487  -0.080   0.552  0.00  0.00    +0.137 C 
BRANCH  18  19
ATOM     19  C   UNL     1       1.400  -0.622  -0.517  0.00  0.00    +0.230 C 
ATOM     20  O   UNL     1       2.602  -0.606  -0.353  0.00  0.00    -0.274 OA
ATOM     21  N   UNL     1       0.882  -1.124  -1.655  0.00  0.00    -0.285 N 
ATOM     22  H   UNL     1      -0.073  -1.076  -1.816  0.00  0.00    +0.155 HD
BRANCH  21  23
ATOM     23  C   UNL     1       1.723  -1.716  -2.605  0.00  0.00    +0.034 A 
ATOM     24  C   UNL     1       1.428  -1.608  -3.958  0.00  0.00    +0.025 A 
ATOM     25  C   UNL     1       2.259  -2.193  -4.893  0.00  0.00    +0.022 A 
ATOM     26  C   UNL     1       3.385  -2.886  -4.483  0.00  0.00    +0.041 A 
ATOM     27  C   UNL     1       3.680  -2.995  -3.136  0.00  0.00    +0.022 A 
ATOM     28  C   UNL     1       2.856  -2.407  -2.197  0.00  0.00    +0.025 A 
ATOM     29 CL   UNL     1       4.427  -3.621  -5.661  0.00  0.00    -0.084 Cl
ENDBRANCH  21  23
ENDBRANCH  18  19
ENDBRANCH  16  18
ENDBRANCH   1  16
TORSDOF 5
