REMARK  Name = ZINC32964349
REMARK  7 active torsions:
REMARK  status: ('A' for Active; 'I' for Inactive)
REMARK    1  A    between atoms: C_1  and  C_2
REMARK    2  A    between atoms: C_6  and  O_8
REMARK    3  A    between atoms: O_8  and  C_9
REMARK    4  A    between atoms: C_9  and  C_10
REMARK    5  A    between atoms: C_16  and  C_17
REMARK    6  A    between atoms: N_21  and  C_22
REMARK    7  A    between atoms: C_25  and  N_28
REMARK                            x       y       z     vdW  Elec       q    Type
REMARK                         _______ _______ _______ _____ _____    ______ ____
ROOT
ATOM      1  C   UNL     1      -1.942  -3.557   4.265  0.00  0.00    +0.137 C 
ATOM      2  N   UNL     1      -1.532  -3.187   5.444  0.00  0.00    -0.166 NA
ATOM      3  N   UNL     1      -1.213  -4.114   6.414  0.00  0.00    -0.152 N 
ATOM      4  C   UNL     1      -0.847  -3.823   7.745  0.00  0.00    +0.153 C 
ATOM      5  N   UNL     1      -1.158  -2.705   8.348  0.00  0.00    -0.283 NA
ATOM      6  C   UNL     1      -0.072  -4.914   8.396  0.00  0.00    +0.082 C 
ATOM      7  C   UNL     1       0.912  -4.650   9.335  0.00  0.00    +0.042 C 
ATOM      8  C   UNL     1      -0.408  -6.297   7.987  0.00  0.00    +0.273 C 
ATOM      9  O   UNL     1      -0.196  -7.241   8.732  0.00  0.00    -0.268 OA
ATOM     10  N   UNL     1      -0.955  -6.484   6.769  0.00  0.00    -0.152 NA
ATOM     11  C   UNL     1      -1.287  -5.442   6.051  0.00  0.00    +0.181 C 
ATOM     12  S   UNL     1      -1.920  -5.340   4.397  0.00  0.00    -0.035 S 
ATOM     13  H   UNL     1      -1.728  -2.057   7.905  0.00  0.00    +0.188 HD
ENDROOT
BRANCH   7  14
ATOM     14  C   UNL     1       1.293  -3.321   9.599  0.00  0.00    +0.047 A 
ATOM     15  C   UNL     1       1.191  -2.663  10.818  0.00  0.00    +0.027 A 
ATOM     16  C   UNL     1       1.682  -1.371  10.628  0.00  0.00    +0.020 A 
ATOM     17  C   UNL     1       2.069  -1.255   9.332  0.00  0.00    +0.092 A 
ATOM     18  N   UNL     1       1.845  -2.433   8.696  0.00  0.00    -0.316 N 
BRANCH  18  19
ATOM     19  C   UNL     1       2.123  -2.703   7.350  0.00  0.00    +0.047 A 
ATOM     20  C   UNL     1       2.929  -3.781   7.009  0.00  0.00    +0.028 A 
ATOM     21  C   UNL     1       3.201  -4.044   5.680  0.00  0.00    +0.035 A 
ATOM     22  C   UNL     1       2.672  -3.235   4.691  0.00  0.00    +0.126 A 
ATOM     23  C   UNL     1       1.870  -2.160   5.028  0.00  0.00    +0.035 A 
ATOM     24  C   UNL     1       1.589  -1.896   6.354  0.00  0.00    +0.028 A 
BRANCH  22  25
ATOM     25  N   UNL     1       2.967  -3.519   3.269  0.00  0.00    +0.056 N 
ATOM     26  O   UNL     1       3.595  -4.507   2.967  0.00  0.00    -0.126 OA
ATOM     27  O   UNL     1       2.579  -2.763   2.409  0.00  0.00    -0.126 OA
ENDBRANCH  22  25
ENDBRANCH  18  19
ENDBRANCH   7  14
BRANCH   1  28
ATOM     28  C   UNL     1      -2.339  -2.700   3.090  0.00  0.00    +0.293 C 
BRANCH  28  29
ATOM     29  O   UNL     1      -2.322  -1.325   3.477  0.00  0.00    -0.485 OA
BRANCH  29  35
ATOM     30  C   UNL     1      -3.012   3.335   2.197  0.00  0.00    +0.044 C 
ATOM     31  C   UNL     1      -3.006   1.865   1.865  0.00  0.00    -0.047 A 
ATOM     32  C   UNL     1      -3.343   1.443   0.593  0.00  0.00    +0.003 A 
ATOM     33  C   UNL     1      -3.339   0.095   0.285  0.00  0.00    +0.004 A 
ATOM     34  C   UNL     1      -2.998  -0.834   1.249  0.00  0.00    +0.045 A 
ATOM     35  C   UNL     1      -2.658  -0.413   2.526  0.00  0.00    +0.121 A 
ATOM     36  C   UNL     1      -2.658   0.941   2.831  0.00  0.00    +0.049 A 
ENDBRANCH  29  35
ENDBRANCH  28  29
ENDBRANCH   1  28
TORSDOF 6
