REMARK  Name = ZINC08267488
REMARK  7 active torsions:
REMARK  status: ('A' for Active; 'I' for Inactive)
REMARK    1  A    between atoms: C_1  and  C_2
REMARK    2  A    between atoms: N_5  and  S_11
REMARK    3  A    between atoms: C_7  and  C_10
REMARK    4  A    between atoms: S_11  and  C_14
REMARK    5  A    between atoms: C_17  and  C_20
REMARK    6  A    between atoms: N_22  and  C_23
REMARK    7  A    between atoms: C_26  and  N_29
REMARK                            x       y       z     vdW  Elec       q    Type
REMARK                         _______ _______ _______ _____ _____    ______ ____
ROOT
ATOM      1  C   UNL     1       2.397   0.034   0.000  0.00  0.00    +0.106 A 
ATOM      2  C   UNL     1       1.208  -0.674  -0.001  0.00  0.00    +0.029 A 
ATOM      3  C   UNL     1       0.003  -0.004   0.006  0.00  0.00    +0.015 A 
ATOM      4  C   UNL     1      -0.017   1.392   0.016  0.00  0.00    +0.037 A 
ATOM      5  C   UNL     1       1.186   2.100   0.018  0.00  0.00    +0.015 A 
ATOM      6  C   UNL     1       2.385   1.418   0.009  0.00  0.00    +0.029 A 
ENDROOT
BRANCH   4   7
ATOM      7  C   UNL     1      -1.305   2.117   0.018  0.00  0.00    +0.248 C 
ATOM      8  O   UNL     1      -2.351   1.497   0.011  0.00  0.00    -0.270 OA
ATOM      9  N   UNL     1      -1.320   3.464   0.027  0.00  0.00    -0.282 N 
ATOM     10  H   UNL     1      -0.488   3.958   0.101  0.00  0.00    +0.155 HD
BRANCH   9  11
ATOM     11  C   UNL     1      -2.534   4.151  -0.069  0.00  0.00    +0.034 A 
ATOM     12  C   UNL     1      -2.600   5.357  -0.754  0.00  0.00    +0.025 A 
ATOM     13  C   UNL     1      -3.802   6.030  -0.851  0.00  0.00    +0.034 A 
ATOM     14  C   UNL     1      -4.938   5.509  -0.259  0.00  0.00    +0.126 A 
ATOM     15  C   UNL     1      -4.875   4.310   0.428  0.00  0.00    +0.034 A 
ATOM     16  C   UNL     1      -3.677   3.630   0.525  0.00  0.00    +0.025 A 
BRANCH  14  17
ATOM     17  N   UNL     1      -6.223   6.235  -0.360  0.00  0.00    +0.056 N 
ATOM     18  O   UNL     1      -7.224   5.777   0.161  0.00  0.00    -0.126 OA
ATOM     19  O   UNL     1      -6.280   7.291  -0.965  0.00  0.00    -0.126 OA
ENDBRANCH  14  17
ENDBRANCH   9  11
ENDBRANCH   4   7
BRANCH   1  20
ATOM     20  S   UNL     1       3.933  -0.830  -0.010  0.00  0.00    +0.061 S 
ATOM     21  O   UNL     1       4.899   0.053   0.544  0.00  0.00    -0.153 OA
ATOM     22  O   UNL     1       3.677  -2.118   0.533  0.00  0.00    -0.153 OA
BRANCH  20  26
ATOM     23  C   UNL     1       3.159   1.007  -3.352  0.00  0.00    +0.039 C 
ATOM     24  C   UNL     1       4.467   0.266  -3.637  0.00  0.00    +0.131 C 
ATOM     25  C   UNL     1       5.167  -0.064  -2.314  0.00  0.00    +0.140 C 
ATOM     26  N   UNL     1       4.355  -1.059  -1.595  0.00  0.00    -0.172 NA
ATOM     27  C   UNL     1       3.935  -2.266  -2.324  0.00  0.00    +0.140 C 
ATOM     28  C   UNL     1       3.290  -1.826  -3.648  0.00  0.00    +0.131 C 
ATOM     29  O   UNL     1       4.185  -0.949  -4.336  0.00  0.00    -0.371 OA
ATOM     30  C   UNL     1       3.014  -3.057  -4.514  0.00  0.00    +0.039 C 
ENDBRANCH  20  26
ENDBRANCH   1  20
TORSDOF 5
