REMARK  Name = ZINC63681128
REMARK  7 active torsions:
REMARK  status: ('A' for Active; 'I' for Inactive)
REMARK    1  A    between atoms: C_1  and  O_2
REMARK    2  A    between atoms: O_2  and  C_3
REMARK    3  A    between atoms: C_6  and  N_9
REMARK    4  A    between atoms: C_11  and  N_16
REMARK    5  A    between atoms: N_19  and  C_20
REMARK    6  A    between atoms: C_20  and  C_21
REMARK    7  A    between atoms: C_21  and  C_22
REMARK                            x       y       z     vdW  Elec       q    Type
REMARK                         _______ _______ _______ _____ _____    ______ ____
ROOT
ATOM      1  N   UNL     1       4.981  -4.476   4.745  0.00  0.00    -0.295 N 
ATOM      2  C   UNL     1       5.947  -5.190   5.356  0.00  0.00    +0.300 C 
ATOM      3  O   UNL     1       5.773  -5.609   6.484  0.00  0.00    -0.253 OA
ATOM      4  N   UNL     1       7.106  -5.440   4.715  0.00  0.00    -0.299 N 
ATOM      5  H   UNL     1       5.119  -4.143   3.845  0.00  0.00    +0.151 HD
ATOM      6  H   UNL     1       7.245  -5.106   3.815  0.00  0.00    +0.150 HD
ENDROOT
BRANCH   1   9
ATOM      7  N   UNL     1       2.540  -2.503   4.231  0.00  0.00    -0.270 N 
ATOM      8  C   UNL     1       2.575  -3.957   4.434  0.00  0.00    +0.136 C 
ATOM      9  C   UNL     1       3.720  -4.205   5.441  0.00  0.00    +0.101 C 
ATOM     10  C   UNL     1       3.781  -2.853   6.189  0.00  0.00    +0.120 C 
ATOM     11  C   UNL     1       3.210  -1.859   5.202  0.00  0.00    +0.222 C 
ATOM     12  O   UNL     1       3.336  -0.654   5.277  0.00  0.00    -0.275 OA
BRANCH   7  16
ATOM     13  C   UNL     1       0.626  -0.619   1.042  0.00  0.00    +0.120 A 
ATOM     14  C   UNL     1       1.190   0.139   2.058  0.00  0.00    +0.047 A 
ATOM     15  C   UNL     1       1.824  -0.484   3.115  0.00  0.00    +0.027 A 
ATOM     16  C   UNL     1       1.897  -1.870   3.160  0.00  0.00    +0.037 A 
ATOM     17  C   UNL     1       1.333  -2.628   2.142  0.00  0.00    +0.027 A 
ATOM     18  C   UNL     1       0.694  -2.003   1.089  0.00  0.00    +0.047 A 
BRANCH  13  20
ATOM     19  C   UNL     1      -0.030   1.425   0.018  0.00  0.00    +0.277 C 
ATOM     20  O   UNL     1       0.002  -0.004   0.002  0.00  0.00    -0.495 OA
ENDBRANCH  13  20
ENDBRANCH   7  16
ENDBRANCH   1   9
BRANCH   4  21
ATOM     21  C   UNL     1       8.157  -6.216   5.379  0.00  0.00    +0.110 C 
BRANCH  21  22
ATOM     22  C   UNL     1       9.358  -6.354   4.442  0.00  0.00    +0.052 C 
BRANCH  22  23
ATOM     23  C   UNL     1      10.439  -7.152   5.124  0.00  0.00    -0.040 C 
ATOM     24  C   UNL     1      10.663  -8.482   5.011  0.00  0.00    -0.001 A 
ATOM     25  C   UNL     1       9.992  -9.541   4.248  0.00  0.00    +0.010 A 
ATOM     26  C   UNL     1      10.456 -10.809   4.339  0.00  0.00    +0.001 A 
ATOM     27  C   UNL     1      11.558 -11.135   5.142  0.00  0.00    +0.002 A 
ATOM     28  C   UNL     1      12.226 -10.216   5.872  0.00  0.00    +0.026 A 
ATOM     29  C   UNL     1      11.825  -8.852   5.851  0.00  0.00    +0.043 A 
ATOM     30  N   UNL     1      12.300  -7.793   6.459  0.00  0.00    -0.380 N 
ATOM     31  C   UNL     1      11.497  -6.628   6.069  0.00  0.00    +0.144 C 
ATOM     32  H   UNL     1      13.059  -7.780   7.064  0.00  0.00    +0.160 HD
ENDBRANCH  22  23
ENDBRANCH  21  22
ENDBRANCH   4  21
TORSDOF 6
