REMARK  Name = ZINC56786934
REMARK  11 active torsions:
REMARK  status: ('A' for Active; 'I' for Inactive)
REMARK    1  A    between atoms: C_1  and  C_2
REMARK    2  A    between atoms: C_2  and  C_3
REMARK    3  A    between atoms: C_3  and  C_5
REMARK    4  A    between atoms: C_3  and  N_6
REMARK    5  A    between atoms: C_7  and  C_9
REMARK    6  A    between atoms: C_9  and  N_10
REMARK    7  A    between atoms: N_18  and  C_19
REMARK    8  A    between atoms: C_19  and  C_21
REMARK    9  A    between atoms: C_19  and  C_22
REMARK   10  A    between atoms: C_22  and  N_23
REMARK   11  A    between atoms: C_27  and  C_30
REMARK                            x       y       z     vdW  Elec       q    Type
REMARK                         _______ _______ _______ _____ _____    ______ ____
ROOT
ATOM      1  N   UNL     1       0.662   0.512  -6.008  0.00  0.00    -0.291 NA
ATOM      2  C   UNL     1       1.635   1.601  -5.847  0.00  0.00    +0.104 C 
ATOM      3  C   UNL     1       2.655   1.542  -6.989  0.00  0.00    +0.124 C 
ATOM      4  N   UNL     1       1.927   1.543  -8.267  0.00  0.00    -0.283 N 
ATOM      5  C   UNL     1       0.842   0.567  -8.450  0.00  0.00    +0.124 C 
ATOM      6  C   UNL     1      -0.107   0.664  -7.250  0.00  0.00    +0.104 C 
ATOM      7  C   UNL     1       2.246   2.414  -9.245  0.00  0.00    +0.302 C 
ATOM      8  O   UNL     1       3.081   3.275  -9.044  0.00  0.00    -0.253 OA
ATOM      9  N   UNL     1       1.640   2.330 -10.446  0.00  0.00    -0.298 N 
ATOM     10  H   UNL     1       0.924   1.691 -10.584  0.00  0.00    +0.150 HD
ENDROOT
BRANCH   9  11
ATOM     11  C   UNL     1       2.063   3.205 -11.542  0.00  0.00    +0.055 C 
ATOM     12  C   UNL     1       1.337   4.547 -11.433  0.00  0.00    +0.026 C 
BRANCH  11  13
ATOM     13  C   UNL     1       1.720   2.548 -12.880  0.00  0.00    -0.057 C 
BRANCH  13  14
ATOM     14  N   UNL     1       2.320   1.208 -12.935  0.00  0.00    +0.381 N 
ATOM     15  C   UNL     1       3.783   1.327 -12.915  0.00  0.00    -0.079 C 
ATOM     16  C   UNL     1       4.412  -0.068 -12.890  0.00  0.00    -0.018 C 
ATOM     17  C   UNL     1       3.979  -0.839 -14.140  0.00  0.00    -0.001 C 
ATOM     18  C   UNL     1       2.449  -0.893 -14.190  0.00  0.00    -0.031 C 
ATOM     19  C   UNL     1       1.893   0.532 -14.166  0.00  0.00    -0.076 C 
ATOM     20  C   UNL     1       2.004  -1.595 -15.474  0.00  0.00    +0.005 C 
ATOM     21  H   UNL     1       2.017   0.672 -12.136  0.00  0.00    -0.082 HD
ENDBRANCH  13  14
ENDBRANCH  11  13
ENDBRANCH   9  11
BRANCH   1  22
ATOM     22  C   UNL     1      -0.230   0.428  -4.844  0.00  0.00    +0.180 C 
BRANCH  22  24
ATOM     23  N   UNL     1      -0.046  -0.111  -2.437  0.00  0.00    -0.312 N 
ATOM     24  C   UNL     1       0.567   0.029  -3.628  0.00  0.00    +0.227 C 
ATOM     25  O   UNL     1       1.761  -0.164  -3.723  0.00  0.00    -0.274 OA
ATOM     26  H   UNL     1      -1.001   0.044  -2.361  0.00  0.00    +0.149 HD
BRANCH  23  27
ATOM     27  C   UNL     1       0.729  -0.498  -1.255  0.00  0.00    +0.070 C 
ATOM     28  C   UNL     1       0.855  -2.022  -1.204  0.00  0.00    +0.028 C 
BRANCH  27  30
ATOM     29  C   UNL     1       0.001   1.527   0.015  0.00  0.00    +0.005 C 
ATOM     30  C   UNL     1       0.017  -0.003   0.006  0.00  0.00    +0.018 C 
ENDBRANCH  27  30
ENDBRANCH  23  27
ENDBRANCH  22  24
ENDBRANCH   1  22
TORSDOF 7
