REMARK  Name = ZINC45355324
REMARK  6 active torsions:
REMARK  status: ('A' for Active; 'I' for Inactive)
REMARK    1  A    between atoms: C_1  and  N_2
REMARK    2  A    between atoms: N_2  and  C_3
REMARK    3  A    between atoms: C_6  and  C_11
REMARK    4  A    between atoms: C_11  and  S_12
REMARK    5  A    between atoms: S_12  and  C_15
REMARK    6  A    between atoms: C_15  and  C_16
REMARK                            x       y       z     vdW  Elec       q    Type
REMARK                         _______ _______ _______ _____ _____    ______ ____
ROOT
ATOM      1  S   UNL     1      -2.255  -4.833   1.722  0.00  0.00    -0.020 S 
ATOM      2  O   UNL     1      -1.032  -4.433   2.325  0.00  0.00    -0.174 OA
ATOM      3  O   UNL     1      -3.482  -4.472   2.342  0.00  0.00    -0.174 OA
ENDROOT
BRANCH   1   4
ATOM      4  C   UNL     1      -2.277  -4.225   0.012  0.00  0.00    +0.242 C 
BRANCH   4  10
ATOM      5  C   UNL     1      -0.018   1.461   0.010  0.00  0.00    +0.132 C 
ATOM      6  N   UNL     1       0.002  -0.004   0.002  0.00  0.00    -0.306 N 
ATOM      7  C   UNL     1       1.281  -0.719  -0.014  0.00  0.00    +0.132 C 
ATOM      8  C   UNL     1      -1.183  -0.710   0.009  0.00  0.00    +0.222 A 
ATOM      9  N   UNL     1      -1.166  -2.041   0.008  0.00  0.00    -0.198 NA
ATOM     10  C   UNL     1      -2.301  -2.718   0.015  0.00  0.00    +0.157 A 
ATOM     11  N   UNL     1      -3.457  -2.078   0.024  0.00  0.00    -0.198 NA
ATOM     12  C   UNL     1      -3.482  -0.747   0.026  0.00  0.00    +0.217 A 
ATOM     13  N   UNL     1      -2.343  -0.063   0.024  0.00  0.00    -0.181 NA
ATOM     14  N   UNL     1      -4.690  -0.079   0.035  0.00  0.00    -0.327 N 
ATOM     15  H   UNL     1      -5.521  -0.579   0.040  0.00  0.00    +0.145 HD
ATOM     16  H   UNL     1      -4.707   0.891   0.036  0.00  0.00    +0.145 HD
ENDBRANCH   4  10
ENDBRANCH   1   4
BRANCH   1  17
ATOM     17  C   UNL     1      -2.228  -6.634   1.506  0.00  0.00    +0.202 C 
BRANCH  17  18
ATOM     18  C   UNL     1      -2.208  -7.301   2.858  0.00  0.00    -0.019 A 
ATOM     19  C   UNL     1      -1.022  -7.580   3.465  0.00  0.00    +0.006 A 
ATOM     20  C   UNL     1      -0.983  -8.196   4.714  0.00  0.00    +0.001 A 
ATOM     21  C   UNL     1      -2.130  -8.537   5.363  0.00  0.00    +0.008 A 
ATOM     22  C   UNL     1      -3.373  -8.265   4.768  0.00  0.00    -0.018 A 
ATOM     23  C   UNL     1      -3.413  -7.632   3.500  0.00  0.00    -0.013 A 
ATOM     24  C   UNL     1      -4.656  -7.355   2.907  0.00  0.00    +0.009 A 
ATOM     25  C   UNL     1      -5.803  -7.691   3.558  0.00  0.00    +0.001 A 
ATOM     26  C   UNL     1      -5.764  -8.307   4.808  0.00  0.00    +0.001 A 
ATOM     27  C   UNL     1      -4.578  -8.603   5.407  0.00  0.00    +0.008 A 
ENDBRANCH  17  18
ENDBRANCH   1  17
TORSDOF 4
