REMARK  Name = ZINC63579908
REMARK  8 active torsions:
REMARK  status: ('A' for Active; 'I' for Inactive)
REMARK    1  A    between atoms: C_1  and  C_2
REMARK    2  A    between atoms: C_11  and  C_12
REMARK    3  A    between atoms: C_12  and  C_14
REMARK    4  A    between atoms: C_14  and  C_15
REMARK    5  A    between atoms: C_22  and  O_29
REMARK    6  A    between atoms: C_23  and  O_27
REMARK    7  A    between atoms: O_27  and  C_28
REMARK    8  A    between atoms: O_29  and  C_30
REMARK                            x       y       z     vdW  Elec       q    Type
REMARK                         _______ _______ _______ _____ _____    ______ ____
ROOT
ATOM      1  C   UNL     1       0.104  -7.674  -1.227  0.00  0.00    +0.118 A 
ATOM      2  N   UNL     1       0.118  -9.006  -0.957  0.00  0.00    -0.310 N 
ATOM      3  H   UNL     1       0.123  -9.309  -0.035  0.00  0.00    +0.170 HD
ATOM      4  C   UNL     1       0.125  -9.913  -1.961  0.00  0.00    +0.259 A 
ATOM      5  O   UNL     1       0.137 -11.109  -1.732  0.00  0.00    -0.267 OA
ATOM      6  C   UNL     1       0.117  -9.400  -3.337  0.00  0.00    +0.068 A 
ATOM      7  C   UNL     1       0.124 -10.253  -4.441  0.00  0.00    +0.064 A 
ATOM      8  C   UNL     1       0.116  -9.721  -5.713  0.00  0.00    +0.162 A 
ATOM      9  C   UNL     1       0.103  -8.334  -5.900  0.00  0.00    +0.164 A 
ATOM     10  C   UNL     1       0.096  -7.478  -4.816  0.00  0.00    +0.078 A 
ATOM     11  C   UNL     1       0.103  -7.999  -3.522  0.00  0.00    +0.082 A 
ATOM     12  N   UNL     1       0.091  -7.191  -2.431  0.00  0.00    -0.233 NA
ENDROOT
BRANCH   9  13
ATOM     13  O   UNL     1       0.096  -7.826  -7.159  0.00  0.00    -0.491 OA
ATOM     14  C   UNL     1       0.082  -6.402  -7.284  0.00  0.00    +0.277 C 
ENDBRANCH   9  13
BRANCH   8  15
ATOM     15  O   UNL     1       0.123 -10.548  -6.792  0.00  0.00    -0.491 OA
ATOM     16  C   UNL     1       0.137 -11.953  -6.532  0.00  0.00    +0.277 C 
ENDBRANCH   8  15
BRANCH   1  17
ATOM     17  C   UNL     1       0.095  -6.710  -0.069  0.00  0.00    +0.154 C 
BRANCH  17  18
ATOM     18  C   UNL     1       0.073  -5.296  -0.593  0.00  0.00    +0.172 C 
ATOM     19  O   UNL     1       0.065  -5.093  -1.789  0.00  0.00    -0.292 OA
BRANCH  18  30
ATOM     20  C   UNL     1      -0.018   1.503   0.010  0.00  0.00    +0.044 C 
ATOM     21  C   UNL     1       0.002  -0.004   0.002  0.00  0.00    -0.048 A 
ATOM     22  C   UNL     1       0.006  -0.684  -1.207  0.00  0.00    +0.004 A 
ATOM     23  C   UNL     1       0.025  -2.062  -1.229  0.00  0.00    +0.011 A 
ATOM     24  C   UNL     1       0.040  -2.770  -0.030  0.00  0.00    +0.010 A 
ATOM     25  C   UNL     1       0.037  -2.084   1.194  0.00  0.00    +0.047 A 
ATOM     26  C   UNL     1       0.023  -0.693   1.195  0.00  0.00    +0.029 A 
ATOM     27  N   UNL     1       0.055  -3.027   2.202  0.00  0.00    -0.360 N 
ATOM     28  H   UNL     1       0.056  -2.821   3.150  0.00  0.00    +0.165 HD
ATOM     29  C   UNL     1       0.070  -4.272   1.689  0.00  0.00    +0.095 A 
ATOM     30  C   UNL     1       0.062  -4.206   0.312  0.00  0.00    +0.043 A 
ENDBRANCH  18  30
ENDBRANCH  17  18
ENDBRANCH   1  17
TORSDOF 5
