REMARK  Name = ZINC16199968
REMARK  5 active torsions:
REMARK  status: ('A' for Active; 'I' for Inactive)
REMARK    1  A    between atoms: C_1  and  C_2
REMARK    2  A    between atoms: C_5  and  N_11
REMARK    3  A    between atoms: C_7  and  N_8
REMARK    4  A    between atoms: C_12  and  C_14
REMARK    5  A    between atoms: N_18  and  C_19
REMARK                            x       y       z     vdW  Elec       q    Type
REMARK                         _______ _______ _______ _____ _____    ______ ____
ROOT
ATOM      1  N   UNL     1      -0.428   1.489  -0.417  0.00  0.00    -0.280 N 
ATOM      2  C   UNL     1      -0.856   2.714  -0.053  0.00  0.00    +0.265 C 
ATOM      3  O   UNL     1      -0.080   3.505   0.450  0.00  0.00    -0.268 OA
ATOM      4  H   UNL     1      -1.062   0.831  -0.744  0.00  0.00    +0.155 HD
ENDROOT
BRANCH   1   9
ATOM      5  C   UNL     1       5.078   0.175  -0.054  0.00  0.00    +0.046 C 
ATOM      6  C   UNL     1       3.615   0.524  -0.149  0.00  0.00    -0.020 A 
ATOM      7  C   UNL     1       3.233   1.824  -0.426  0.00  0.00    +0.007 A 
ATOM      8  C   UNL     1       1.893   2.148  -0.514  0.00  0.00    +0.024 A 
ATOM      9  C   UNL     1       0.929   1.166  -0.323  0.00  0.00    +0.036 A 
ATOM     10  C   UNL     1       1.317  -0.138  -0.045  0.00  0.00    +0.056 A 
ATOM     11  C   UNL     1       2.658  -0.455   0.042  0.00  0.00    +0.131 A 
BRANCH  11  12
ATOM     12  N   UNL     1       3.072  -1.845   0.339  0.00  0.00    +0.057 N 
ATOM     13  O   UNL     1       2.235  -2.680   0.631  0.00  0.00    -0.126 OA
ATOM     14  O   UNL     1       4.249  -2.153   0.291  0.00  0.00    -0.126 OA
ENDBRANCH  11  12
ENDBRANCH   1   9
BRANCH   2  15
ATOM     15  C   UNL     1      -2.256   3.094  -0.264  0.00  0.00    +0.106 A 
ATOM     16  C   UNL     1      -3.262   2.275  -0.733  0.00  0.00    +0.047 A 
ATOM     17  C   UNL     1      -4.431   3.041  -0.775  0.00  0.00    +0.036 A 
ATOM     18  C   UNL     1      -4.124   4.290  -0.348  0.00  0.00    +0.101 A 
ATOM     19  N   UNL     1      -2.806   4.335  -0.035  0.00  0.00    -0.345 N 
ATOM     20  C   UNL     1      -2.086   5.509   0.464  0.00  0.00    +0.149 C 
ATOM     21 BR   UNL     1      -6.135   2.442  -1.334  0.00  0.00    -0.049 Br
ENDBRANCH   2  15
TORSDOF 3
