REMARK  Name = ZINC12904518
REMARK  8 active torsions:
REMARK  status: ('A' for Active; 'I' for Inactive)
REMARK    1  A    between atoms: C_1  and  C_2
REMARK    2  A    between atoms: C_2  and  C_26
REMARK    3  A    between atoms: N_5  and  C_9
REMARK    4  A    between atoms: C_9  and  C_10
REMARK    5  A    between atoms: C_10  and  C_11
REMARK    6  A    between atoms: N_13  and  C_14
REMARK    7  A    between atoms: C_14  and  C_15
REMARK    8  A    between atoms: C_15  and  N_61
REMARK                            x       y       z     vdW  Elec       q    Type
REMARK                         _______ _______ _______ _____ _____    ______ ____
ROOT
ATOM      1  C   UNL     1       0.251   0.906  -2.284  0.00  0.00    +0.214 C 
ATOM      2  O   UNL     1       1.271   0.253  -2.204  0.00  0.00    -0.276 OA
ATOM      3  N   UNL     1      -0.397   1.283  -1.164  0.00  0.00    -0.317 N 
ATOM      4  H   UNL     1      -1.212   1.804  -1.228  0.00  0.00    +0.149 HD
ENDROOT
BRANCH   1   5
ATOM      5  C   UNL     1      -0.290   1.294  -3.635  0.00  0.00    +0.115 C 
BRANCH   5   6
ATOM      6  C   UNL     1       0.627   0.745  -4.730  0.00  0.00    +0.127 C 
BRANCH   6  11
ATOM      7  C   UNL     1      -2.506   1.533  -8.140  0.00  0.00    +0.041 C 
ATOM      8  C   UNL     1      -1.027   1.154  -8.030  0.00  0.00    +0.107 C 
ATOM      9  C   UNL     1      -0.766   0.376  -6.755  0.00  0.00    +0.246 C 
ATOM     10  O   UNL     1      -1.239  -0.695  -6.441  0.00  0.00    -0.273 OA
ATOM     11  N   UNL     1       0.101   1.123  -6.044  0.00  0.00    -0.224 N 
ATOM     12  C   UNL     1       0.426   2.250  -6.688  0.00  0.00    +0.309 C 
ATOM     13  O   UNL     1       1.195   3.082  -6.248  0.00  0.00    -0.252 OA
ATOM     14  N   UNL     1      -0.194   2.359  -7.877  0.00  0.00    -0.285 N 
ATOM     15  C   UNL     1      -0.585   0.345  -9.250  0.00  0.00    +0.041 C 
ATOM     16  H   UNL     1      -0.107   3.089  -8.510  0.00  0.00    +0.151 HD
ENDBRANCH   6  11
ENDBRANCH   5   6
ENDBRANCH   1   5
BRANCH   3  17
ATOM     17  C   UNL     1       0.129   0.905   0.150  0.00  0.00    +0.092 C 
BRANCH  17  18
ATOM     18  C   UNL     1      -0.867   1.315   1.236  0.00  0.00    -0.050 C 
ATOM     19  C   UNL     1      -1.215   2.796   1.076  0.00  0.00    -0.010 C 
ATOM     20  C   UNL     1       0.057   3.636   1.208  0.00  0.00    -0.001 C 
ATOM     21  C   UNL     1       0.680   3.404   2.586  0.00  0.00    -0.000 C 
ATOM     22  C   UNL     1       1.028   1.922   2.746  0.00  0.00    -0.001 C 
ATOM     23  C   UNL     1      -0.244   1.083   2.614  0.00  0.00    -0.010 C 
BRANCH  18  29
ATOM     24  C   UNL     1      -1.788  -0.924   1.222  0.00  0.00    -0.078 C 
ATOM     25  C   UNL     1      -3.094  -1.722   1.232  0.00  0.00    -0.019 C 
ATOM     26  C   UNL     1      -3.865  -1.444  -0.061  0.00  0.00    -0.004 C 
ATOM     27  C   UNL     1      -4.124   0.061  -0.180  0.00  0.00    -0.019 C 
ATOM     28  C   UNL     1      -2.788   0.806  -0.148  0.00  0.00    -0.078 C 
ATOM     29  N   UNL     1      -2.107   0.517   1.132  0.00  0.00    +0.384 N 
ATOM     30  H   UNL     1      -2.732   0.769   1.906  0.00  0.00    -0.081 HD
ENDBRANCH  18  29
ENDBRANCH  17  18
ENDBRANCH   3  17
TORSDOF 6
