REMARK  Name = ZINC36875874
REMARK  6 active torsions:
REMARK  status: ('A' for Active; 'I' for Inactive)
REMARK    1  A    between atoms: C_1  and  C_2
REMARK    2  A    between atoms: C_2  and  O_3
REMARK    3  A    between atoms: O_3  and  C_4
REMARK    4  A    between atoms: C_7  and  C_10
REMARK    5  A    between atoms: C_10  and  C_12
REMARK    6  A    between atoms: C_12  and  N_13
REMARK                            x       y       z     vdW  Elec       q    Type
REMARK                         _______ _______ _______ _____ _____    ______ ____
ROOT
ATOM      1  N   UNL     1      -3.284  -8.108  -0.014  0.00  0.00    -0.216 N 
ATOM      2  C   UNL     1      -3.234  -8.861  -1.135  0.00  0.00    +0.251 C 
ATOM      3  O   UNL     1      -3.259  -8.473  -2.283  0.00  0.00    -0.272 OA
ATOM      4  C   UNL     1      -3.140 -10.285  -0.653  0.00  0.00    +0.138 C 
ATOM      5  C   UNL     1      -4.321 -11.123  -1.159  0.00  0.00    +0.045 C 
ATOM      6  C   UNL     1      -3.680 -12.518  -1.331  0.00  0.00    +0.038 C 
ATOM      7  C   UNL     1      -2.205 -12.254  -1.553  0.00  0.00    -0.042 A 
ATOM      8  C   UNL     1      -1.896 -10.962  -1.159  0.00  0.00    -0.012 A 
ATOM      9  C   UNL     1      -0.594 -10.504  -1.273  0.00  0.00    +0.006 A 
ATOM     10  C   UNL     1       0.393 -11.326  -1.778  0.00  0.00    +0.000 A 
ATOM     11  C   UNL     1       0.084 -12.614  -2.172  0.00  0.00    +0.000 A 
ATOM     12  C   UNL     1      -1.213 -13.076  -2.059  0.00  0.00    +0.004 A 
ATOM     13  N   UNL     1      -3.147 -10.181   0.807  0.00  0.00    -0.281 N 
ATOM     14  C   UNL     1      -3.228  -8.865   1.090  0.00  0.00    +0.310 C 
ATOM     15  O   UNL     1      -3.252  -8.417   2.219  0.00  0.00    -0.252 OA
ATOM     16  H   UNL     1      -3.099 -10.912   1.443  0.00  0.00    +0.152 HD
ENDROOT
BRANCH   1  17
ATOM     17  C   UNL     1      -3.381  -6.647  -0.006  0.00  0.00    +0.197 C 
BRANCH  17  18
ATOM     18  C   UNL     1      -1.996  -6.052  -0.011  0.00  0.00    +0.181 C 
ATOM     19  O   UNL     1      -1.024  -6.777  -0.019  0.00  0.00    -0.290 OA
BRANCH  18  23
ATOM     20  C   UNL     1      -1.498  -1.846   0.006  0.00  0.00    +0.121 A 
ATOM     21  C   UNL     1      -0.382  -2.676  -0.003  0.00  0.00    +0.046 A 
ATOM     22  C   UNL     1      -0.538  -4.038  -0.008  0.00  0.00    +0.015 A 
ATOM     23  C   UNL     1      -1.823  -4.593  -0.004  0.00  0.00    +0.019 A 
ATOM     24  C   UNL     1      -2.944  -3.753   0.005  0.00  0.00    +0.015 A 
ATOM     25  C   UNL     1      -2.777  -2.392   0.016  0.00  0.00    +0.046 A 
BRANCH  20  26
ATOM     26  O   UNL     1      -1.339  -0.499   0.012  0.00  0.00    -0.492 OA
BRANCH  26  28
ATOM     27  C   UNL     1      -0.019   1.526   0.010  0.00  0.00    +0.048 C 
ATOM     28  C   UNL     1       0.002  -0.004   0.002  0.00  0.00    +0.225 C 
ENDBRANCH  26  28
ENDBRANCH  20  26
ENDBRANCH  18  23
ENDBRANCH  17  18
ENDBRANCH   1  17
TORSDOF 5
