REMARK  Name = ZINC41437274
REMARK  6 active torsions:
REMARK  status: ('A' for Active; 'I' for Inactive)
REMARK    1  A    between atoms: C_1  and  C_2
REMARK    2  A    between atoms: C_3  and  O_22
REMARK    3  A    between atoms: C_10  and  C_11
REMARK    4  A    between atoms: O_22  and  C_23
REMARK    5  A    between atoms: C_23  and  C_24
REMARK    6  A    between atoms: C_24  and  C_26
REMARK                            x       y       z     vdW  Elec       q    Type
REMARK                         _______ _______ _______ _____ _____    ______ ____
ROOT
ATOM      1  C   UNL     1       0.076   1.497   0.006  0.00  0.00    +0.051 C 
ATOM      2  C   UNL     1       0.089  -0.010   0.000  0.00  0.00    +0.034 A 
ATOM      3  C   UNL     1       0.111  -0.698  -1.202  0.00  0.00    +0.128 A 
ATOM      4  C   UNL     1       0.124  -2.090  -1.222  0.00  0.00    +0.047 A 
ATOM      5  C   UNL     1       0.115  -2.793  -0.050  0.00  0.00    +0.019 A 
ATOM      6  C   UNL     1       0.094  -2.114   1.168  0.00  0.00    +0.068 A 
ATOM      7  C   UNL     1       0.086  -0.710   1.200  0.00  0.00    +0.146 A 
ATOM      8  O   UNL     1       0.072  -0.284   2.482  0.00  0.00    -0.451 OA
ATOM      9  C   UNL     1       0.074  -1.318   3.356  0.00  0.00    +0.176 C 
ATOM     10  C   UNL     1       0.063  -1.224   4.710  0.00  0.00    +0.058 C 
ATOM     11  C   UNL     1       0.080  -2.562   2.572  0.00  0.00    +0.231 C 
ATOM     12  O   UNL     1       0.085  -3.707   2.990  0.00  0.00    -0.283 OA
ENDROOT
BRANCH  10  13
ATOM     13  C   UNL     1       0.162   0.091   5.355  0.00  0.00    -0.018 A 
ATOM     14  C   UNL     1       0.285   0.184   6.748  0.00  0.00    +0.012 A 
ATOM     15  C   UNL     1       0.378   1.419   7.349  0.00  0.00    +0.050 A 
ATOM     16  C   UNL     1       0.350   2.575   6.581  0.00  0.00    +0.166 A 
ATOM     17  C   UNL     1       0.228   2.492   5.193  0.00  0.00    +0.167 A 
ATOM     18  C   UNL     1       0.139   1.258   4.580  0.00  0.00    +0.057 A 
ATOM     19  O   UNL     1       0.225   3.757   4.679  0.00  0.00    -0.453 OA
ATOM     20  C   UNL     1      -0.065   4.622   5.792  0.00  0.00    +0.466 C 
ATOM     21  O   UNL     1       0.425   3.892   6.932  0.00  0.00    -0.453 OA
ENDBRANCH  10  13
BRANCH   3  22
ATOM     22  O   UNL     1       0.118  -0.009  -2.372  0.00  0.00    -0.484 OA
BRANCH  22  23
ATOM     23  C   UNL     1       0.141  -0.776  -3.577  0.00  0.00    +0.308 C 
BRANCH  23  24
ATOM     24  C   UNL     1       0.146   0.153  -4.764  0.00  0.00    +0.200 C 
ATOM     25  O   UNL     1       0.133   1.353  -4.594  0.00  0.00    -0.288 OA
BRANCH  24  26
ATOM     26  C   UNL     1       0.168  -0.397  -6.128  0.00  0.00    +0.021 A 
ATOM     27  C   UNL     1       0.178  -1.782  -6.328  0.00  0.00    +0.012 A 
ATOM     28  C   UNL     1       0.198  -2.289  -7.609  0.00  0.00    +0.016 A 
ATOM     29  C   UNL     1       0.209  -1.433  -8.697  0.00  0.00    +0.018 A 
ATOM     30  C   UNL     1       0.199  -0.060  -8.507  0.00  0.00    +0.016 A 
ATOM     31  C   UNL     1       0.173   0.462  -7.232  0.00  0.00    +0.012 A 
ATOM     32 BR   UNL     1       0.238  -2.139 -10.451  0.00  0.00    -0.050 Br
ENDBRANCH  24  26
ENDBRANCH  23  24
ENDBRANCH  22  23
ENDBRANCH   3  22
TORSDOF 5
