REMARK  Name = ZINC65829275
REMARK  5 active torsions:
REMARK  status: ('A' for Active; 'I' for Inactive)
REMARK    1  A    between atoms: C_1  and  C_2
REMARK    2  A    between atoms: C_2  and  C_3
REMARK    3  A    between atoms: C_2  and  N_15
REMARK    4  A    between atoms: C_7  and  N_9
REMARK    5  A    between atoms: N_18  and  C_19
REMARK                            x       y       z     vdW  Elec       q    Type
REMARK                         _______ _______ _______ _____ _____    ______ ____
ROOT
ATOM      1  N   UNL     1      -1.565  -0.432   0.410  0.00  0.00    -0.293 N 
ATOM      2  C   UNL     1      -2.284  -0.616   1.535  0.00  0.00    +0.304 C 
ATOM      3  O   UNL     1      -1.833  -0.267   2.609  0.00  0.00    -0.252 OA
ATOM      4  N   UNL     1      -3.503  -1.188   1.470  0.00  0.00    -0.269 N 
ATOM      5  H   UNL     1      -1.925  -0.710  -0.446  0.00  0.00    +0.151 HD
ATOM      6  H   UNL     1      -3.830  -1.538   0.627  0.00  0.00    +0.156 HD
ENDROOT
BRANCH   4   7
ATOM      7  C   UNL     1      -4.298  -1.275   2.621  0.00  0.00    +0.036 A 
ATOM      8  C   UNL     1      -4.263  -0.254   3.568  0.00  0.00    +0.027 A 
ATOM      9  C   UNL     1      -5.038  -0.326   4.705  0.00  0.00    +0.049 A 
ATOM     10  C   UNL     1      -5.865  -1.422   4.916  0.00  0.00    +0.139 A 
ATOM     11  C   UNL     1      -5.904  -2.455   3.963  0.00  0.00    +0.019 A 
ATOM     12  C   UNL     1      -5.118  -2.372   2.810  0.00  0.00    +0.035 A 
ATOM     13  C   UNL     1      -6.780  -3.607   4.198  0.00  0.00    +0.018 A 
ATOM     14  C   UNL     1      -7.522  -3.627   5.334  0.00  0.00    +0.092 A 
ATOM     15  C   UNL     1      -7.433  -2.555   6.248  0.00  0.00    +0.337 A 
ATOM     16  O   UNL     1      -8.104  -2.586   7.265  0.00  0.00    -0.245 OA
ATOM     17  O   UNL     1      -6.629  -1.504   6.027  0.00  0.00    -0.422 OA
ENDBRANCH   4   7
BRANCH   1  19
ATOM     18  C   UNL     1      -0.390   1.712   0.460  0.00  0.00    +0.033 C 
ATOM     19  C   UNL     1      -0.240   0.190   0.481  0.00  0.00    +0.102 C 
BRANCH  19  20
ATOM     20  C   UNL     1       0.584  -0.250  -0.701  0.00  0.00    -0.026 A 
ATOM     21  C   UNL     1       0.001  -0.353  -1.951  0.00  0.00    +0.005 A 
ATOM     22  C   UNL     1       0.754  -0.756  -3.038  0.00  0.00    +0.002 A 
ATOM     23  C   UNL     1       2.093  -1.058  -2.878  0.00  0.00    +0.023 A 
ATOM     24  C   UNL     1       2.682  -0.955  -1.625  0.00  0.00    +0.037 A 
ATOM     25  C   UNL     1       1.923  -0.545  -0.536  0.00  0.00    +0.029 A 
BRANCH  24  26
ATOM     26  N   UNL     1       4.038  -1.260  -1.460  0.00  0.00    -0.271 N 
ATOM     27  C   UNL     1       4.780  -1.082  -0.207  0.00  0.00    +0.114 C 
ATOM     28  C   UNL     1       6.061  -1.931  -0.363  0.00  0.00    +0.029 C 
ATOM     29  C   UNL     1       6.227  -1.971  -1.900  0.00  0.00    +0.098 C 
ATOM     30  C   UNL     1       4.826  -1.758  -2.428  0.00  0.00    +0.220 C 
ATOM     31  O   UNL     1       4.467  -1.999  -3.562  0.00  0.00    -0.275 OA
ENDBRANCH  24  26
ENDBRANCH  19  20
ENDBRANCH   1  19
TORSDOF 4
