REMARK  Name = ZINC63358400
REMARK  5 active torsions:
REMARK  status: ('A' for Active; 'I' for Inactive)
REMARK    1  A    between atoms: C_4  and  N_25
REMARK    2  A    between atoms: C_5  and  C_7
REMARK    3  A    between atoms: C_7  and  N_8
REMARK    4  A    between atoms: N_11  and  C_12
REMARK    5  A    between atoms: C_12  and  C_13
REMARK                            x       y       z     vdW  Elec       q    Type
REMARK                         _______ _______ _______ _____ _____    ______ ____
ROOT
ATOM      1  N   UNL     1       1.444  -2.767   1.272  0.00  0.00    -0.295 N 
ATOM      2  C   UNL     1       1.525  -4.088   1.528  0.00  0.00    +0.300 C 
ATOM      3  O   UNL     1       1.379  -4.891   0.627  0.00  0.00    -0.253 OA
ATOM      4  N   UNL     1       1.768  -4.518   2.782  0.00  0.00    -0.295 N 
ATOM      5  H   UNL     1       1.560  -2.126   1.991  0.00  0.00    +0.151 HD
ATOM      6  H   UNL     1       1.884  -3.876   3.501  0.00  0.00    +0.151 HD
ENDROOT
BRANCH   1   7
ATOM      7  C   UNL     1       1.180  -2.300  -0.091  0.00  0.00    +0.143 C 
BRANCH   7  12
ATOM      8  C   UNL     1      -0.114   1.247  -0.120  0.00  0.00    +0.000 A 
ATOM      9  C   UNL     1       1.062   1.974  -0.136  0.00  0.00    +0.002 A 
ATOM     10  C   UNL     1       2.279   1.322  -0.139  0.00  0.00    +0.028 A 
ATOM     11  C   UNL     1       2.321  -0.066  -0.124  0.00  0.00    +0.070 A 
ATOM     12  C   UNL     1       1.139  -0.793  -0.107  0.00  0.00    -0.005 A 
ATOM     13  C   UNL     1      -0.075  -0.135  -0.105  0.00  0.00    +0.007 A 
BRANCH  11  14
ATOM     14  N   UNL     1       3.555  -0.732  -0.127  0.00  0.00    -0.240 N 
ATOM     15  C   UNL     1       4.774  -0.147  -0.137  0.00  0.00    +0.114 A 
ATOM     16  C   UNL     1       5.703  -1.131  -0.136  0.00  0.00    +0.041 A 
ATOM     17  C   UNL     1       5.030  -2.358  -0.124  0.00  0.00    +0.135 A 
ATOM     18  N   UNL     1       3.743  -2.120  -0.112  0.00  0.00    -0.175 NA
ENDBRANCH  11  14
ENDBRANCH   7  12
ENDBRANCH   1   7
BRANCH   4  19
ATOM     19  C   UNL     1       1.855  -5.953   3.060  0.00  0.00    +0.141 C 
BRANCH  19  20
ATOM     20  C   UNL     1       2.132  -6.165   4.527  0.00  0.00    -0.026 A 
ATOM     21  C   UNL     1       3.436  -6.229   5.001  0.00  0.00    +0.023 A 
ATOM     22  C   UNL     1       3.655  -6.423   6.350  0.00  0.00    +0.084 A 
ATOM     23  N   UNL     1       2.644  -6.548   7.189  0.00  0.00    -0.350 N 
ATOM     24  C   UNL     1       1.388  -6.493   6.776  0.00  0.00    +0.099 A 
ATOM     25  C   UNL     1       1.093  -6.294   5.431  0.00  0.00    +0.047 A 
ATOM     26  N   UNL     1       0.354  -6.630   7.694  0.00  0.00    -0.317 N 
ATOM     27  C   UNL     1       0.637  -6.965   9.097  0.00  0.00    +0.106 C 
ATOM     28  C   UNL     1      -0.033  -5.923   9.998  0.00  0.00    +0.019 C 
ATOM     29  C   UNL     1      -1.524  -5.845   9.659  0.00  0.00    +0.003 C 
ATOM     30  C   UNL     1      -1.696  -5.407   8.203  0.00  0.00    +0.019 C 
ATOM     31  C   UNL     1      -1.044  -6.437   7.283  0.00  0.00    +0.106 C 
ATOM     32  H   UNL     1       2.826  -6.684   8.132  0.00  0.00    +0.166 HD
ENDBRANCH  19  20
ENDBRANCH   4  19
TORSDOF 5
