REMARK  Name = ZINC39696128
REMARK  10 active torsions:
REMARK  status: ('A' for Active; 'I' for Inactive)
REMARK    1  A    between atoms: C_1  and  C_2
REMARK    2  A    between atoms: C_2  and  C_3
REMARK    3  A    between atoms: C_6  and  C_9
REMARK    4  A    between atoms: C_9  and  C_11
REMARK    5  A    between atoms: C_9  and  N_12
REMARK    6  A    between atoms: C_13  and  C_15
REMARK    7  A    between atoms: C_26  and  C_28
REMARK    8  A    between atoms: C_32  and  N_34
REMARK    9  A    between atoms: N_34  and  C_35
REMARK   10  A    between atoms: N_34  and  C_36
REMARK                            x       y       z     vdW  Elec       q    Type
REMARK                         _______ _______ _______ _____ _____    ______ ____
ROOT
ATOM      1  C   UNL     1       1.199  -5.271   7.075  0.00  0.00    +0.100 C 
ATOM      2  C   UNL     1       0.638  -5.914   5.787  0.00  0.00    +0.121 C 
ATOM      3  N   UNL     1       1.527  -7.071   5.529  0.00  0.00    -0.296 N 
ATOM      4  C   UNL     1       1.796  -7.637   6.872  0.00  0.00    +0.115 C 
ATOM      5  C   UNL     1       1.955  -6.406   7.786  0.00  0.00    -0.004 C 
ATOM      6  C   UNL     1       1.334  -6.678   9.153  0.00  0.00    -0.010 C 
ATOM      7  C   UNL     1       2.138  -7.770   9.865  0.00  0.00    -0.082 C 
ATOM      8  N   UNL     1       3.532  -7.334  10.017  0.00  0.00    +0.379 N 
ATOM      9  C   UNL     1       4.149  -7.163   8.696  0.00  0.00    -0.082 C 
ATOM     10  C   UNL     1       3.430  -6.046   7.934  0.00  0.00    -0.010 C 
ATOM     11  C   UNL     1       1.987  -7.510   4.340  0.00  0.00    +0.247 C 
ATOM     12  O   UNL     1       1.783  -6.862   3.332  0.00  0.00    -0.270 OA
ATOM     13  H   UNL     1       3.556  -6.456  10.513  0.00  0.00    -0.086 HD
ATOM     14  H   UNL     1       4.045  -8.028  10.539  0.00  0.00    -0.086 HD
ENDROOT
BRANCH  11  15
ATOM     15  C   UNL     1       2.740  -8.780   4.263  0.00  0.00    +0.039 A 
ATOM     16  C   UNL     1       2.626  -9.726   5.283  0.00  0.00    +0.013 A 
ATOM     17  C   UNL     1       3.329 -10.911   5.209  0.00  0.00    +0.003 A 
ATOM     18  C   UNL     1       4.150 -11.165   4.126  0.00  0.00    +0.023 A 
ATOM     19  C   UNL     1       4.272 -10.230   3.105  0.00  0.00    +0.030 A 
ATOM     20  C   UNL     1       3.563  -9.040   3.167  0.00  0.00    +0.036 A 
BRANCH  19  21
ATOM     21  N   UNL     1       5.103 -10.493   2.013  0.00  0.00    -0.336 N 
ATOM     22  C   UNL     1       5.954 -11.685   2.010  0.00  0.00    +0.129 C 
ATOM     23  C   UNL     1       5.123  -9.575   0.871  0.00  0.00    +0.129 C 
ENDBRANCH  19  21
ENDBRANCH  11  15
BRANCH   1  25
ATOM     24  N   UNL     1       2.282  -3.104   7.575  0.00  0.00    -0.308 N 
ATOM     25  C   UNL     1       2.142  -4.146   6.732  0.00  0.00    +0.219 C 
ATOM     26  O   UNL     1       2.776  -4.180   5.699  0.00  0.00    -0.275 OA
ATOM     27  H   UNL     1       1.775  -3.077   8.401  0.00  0.00    +0.149 HD
BRANCH  24  28
ATOM     28  C   UNL     1       3.199  -2.011   7.242  0.00  0.00    +0.100 C 
ATOM     29  C   UNL     1       4.614  -2.376   7.694  0.00  0.00    +0.033 C 
BRANCH  28  33
ATOM     30  C   UNL     1       1.943   1.555   9.230  0.00  0.00    -0.048 A 
ATOM     31  C   UNL     1       2.413   1.617   7.931  0.00  0.00    +0.004 A 
ATOM     32  C   UNL     1       2.819   0.463   7.288  0.00  0.00    +0.006 A 
ATOM     33  C   UNL     1       2.757  -0.752   7.943  0.00  0.00    -0.027 A 
ATOM     34  C   UNL     1       2.288  -0.814   9.242  0.00  0.00    +0.006 A 
ATOM     35  C   UNL     1       1.886   0.341   9.887  0.00  0.00    +0.004 A 
BRANCH  30  37
ATOM     36  C   UNL     1       2.693   3.440  10.658  0.00  0.00    +0.009 C 
ATOM     37  C   UNL     1       1.500   2.813   9.932  0.00  0.00    +0.032 C 
ENDBRANCH  30  37
ENDBRANCH  28  33
ENDBRANCH  24  28
ENDBRANCH   1  25
TORSDOF 6
