REMARK  Name = ZINC67138611
REMARK  7 active torsions:
REMARK  status: ('A' for Active; 'I' for Inactive)
REMARK    1  A    between atoms: C_1  and  C_2
REMARK    2  A    between atoms: C_2  and  C_3
REMARK    3  A    between atoms: C_2  and  C_4
REMARK    4  A    between atoms: C_2  and  C_5
REMARK    5  A    between atoms: C_11  and  C_13
REMARK    6  A    between atoms: C_13  and  N_14
REMARK    7  A    between atoms: C_15  and  C_17
REMARK                            x       y       z     vdW  Elec       q    Type
REMARK                         _______ _______ _______ _____ _____    ______ ____
ROOT
ATOM      1  C   UNL     1       0.707  -0.490  -1.238  0.00  0.00    +0.109 A 
ATOM      2  N   UNL     1       1.944  -0.281  -1.644  0.00  0.00    -0.144 NA
ATOM      3  N   UNL     1       2.329  -0.794  -2.732  0.00  0.00    -0.126 NA
ATOM      4  C   UNL     1       1.528  -1.534  -3.475  0.00  0.00    +0.188 A 
ATOM      5  S   UNL     1       0.106  -1.520  -2.570  0.00  0.00    -0.035 S 
ATOM      6  N   UNL     1       1.791  -2.166  -4.686  0.00  0.00    -0.262 N 
ATOM      7  C   UNL     1       3.010  -2.059  -5.251  0.00  0.00    +0.236 C 
ATOM      8  O   UNL     1       3.878  -1.413  -4.704  0.00  0.00    -0.274 OA
ATOM      9  H   UNL     1       1.097  -2.683  -5.123  0.00  0.00    +0.157 HD
ENDROOT
BRANCH   1  11
ATOM     10  C   UNL     1      -0.019   1.526   0.010  0.00  0.00    +0.018 C 
ATOM     11  C   UNL     1       0.002  -0.004   0.002  0.00  0.00    +0.013 C 
ATOM     12  C   UNL     1       0.742  -0.511   1.242  0.00  0.00    +0.018 C 
ATOM     13  C   UNL     1      -1.433  -0.534   0.013  0.00  0.00    +0.018 C 
ENDBRANCH   1  11
BRANCH   7  14
ATOM     14  C   UNL     1       3.294  -2.744  -6.563  0.00  0.00    +0.200 C 
BRANCH  14  15
ATOM     15  N   UNL     1       4.678  -2.478  -6.963  0.00  0.00    -0.303 N 
ATOM     16  C   UNL     1       5.159  -2.993  -8.112  0.00  0.00    +0.245 C 
ATOM     17  O   UNL     1       4.444  -3.678  -8.817  0.00  0.00    -0.270 OA
ATOM     18  H   UNL     1       5.249  -1.931  -6.401  0.00  0.00    +0.150 HD
BRANCH  16  19
ATOM     19  C   UNL     1       6.556  -2.724  -8.516  0.00  0.00    +0.042 A 
ATOM     20  C   UNL     1       7.380  -1.942  -7.706  0.00  0.00    +0.051 A 
ATOM     21  C   UNL     1       8.685  -1.694  -8.088  0.00  0.00    +0.127 A 
ATOM     22  C   UNL     1       9.175  -2.220  -9.272  0.00  0.00    +0.076 A 
ATOM     23  C   UNL     1       8.360  -2.997 -10.080  0.00  0.00    +0.127 A 
ATOM     24  C   UNL     1       7.056  -3.256  -9.705  0.00  0.00    +0.051 A 
ATOM     25  F   UNL     1       8.844  -3.506 -11.234  0.00  0.00    -0.205 F 
ATOM     26  F   UNL     1       9.485  -0.937  -7.305  0.00  0.00    -0.205 F 
ENDBRANCH  16  19
ENDBRANCH  14  15
ENDBRANCH   7  14
TORSDOF 4
