REMARK  Name = ZINC13090206
REMARK  7 active torsions:
REMARK  status: ('A' for Active; 'I' for Inactive)
REMARK    1  A    between atoms: C_1  and  C_2
REMARK    2  A    between atoms: C_4  and  C_25
REMARK    3  A    between atoms: C_5  and  S_9
REMARK    4  A    between atoms: C_6  and  C_8
REMARK    5  A    between atoms: S_9  and  N_12
REMARK    6  A    between atoms: N_12  and  C_13
REMARK    7  A    between atoms: C_18  and  C_19
REMARK                            x       y       z     vdW  Elec       q    Type
REMARK                         _______ _______ _______ _____ _____    ______ ____
ROOT
ATOM      1  N   UNL     1       4.423  -1.222  -0.294  0.00  0.00    -0.215 N 
ATOM      2  H   UNL     1       4.542  -2.158  -0.517  0.00  0.00    +0.174 HD
ENDROOT
BRANCH   1   3
ATOM      3  C   UNL     1       4.876  -0.237  -1.165  0.00  0.00    +0.066 A 
ATOM      4  C   UNL     1       4.007   0.337  -2.080  0.00  0.00    +0.074 A 
ATOM      5  C   UNL     1       4.455   1.323  -2.945  0.00  0.00    +0.164 A 
ATOM      6  C   UNL     1       5.787   1.739  -2.906  0.00  0.00    +0.163 A 
ATOM      7  C   UNL     1       6.663   1.172  -2.003  0.00  0.00    +0.066 A 
ATOM      8  C   UNL     1       6.218   0.178  -1.123  0.00  0.00    +0.089 A 
ATOM      9  O   UNL     1       6.238   2.708  -3.751  0.00  0.00    -0.485 OA
ATOM     10  C   UNL     1       5.426   2.994  -4.894  0.00  0.00    +0.270 C 
ATOM     11  C   UNL     1       3.968   3.115  -4.430  0.00  0.00    +0.270 C 
ATOM     12  O   UNL     1       3.583   1.872  -3.833  0.00  0.00    -0.485 OA
BRANCH   8  13
ATOM     13  C   UNL     1       7.149  -0.430  -0.162  0.00  0.00    +0.388 C 
ATOM     14  O   UNL     1       6.760  -1.293   0.600  0.00  0.00    -0.241 OA
ATOM     15  O   UNL     1       8.436  -0.029  -0.126  0.00  0.00    -0.241 OA
ENDBRANCH   8  13
ENDBRANCH   1   3
BRANCH   1  16
ATOM     16  S   UNL     1       3.679  -0.796   1.123  0.00  0.00    +0.073 S 
ATOM     17  O   UNL     1       4.514   0.170   1.746  0.00  0.00    -0.150 OA
ATOM     18  O   UNL     1       3.305  -2.007   1.765  0.00  0.00    -0.150 OA
BRANCH  16  23
ATOM     19  C   UNL     1      -1.446   2.039  -0.326  0.00  0.00    +0.044 C 
ATOM     20  C   UNL     1      -0.165   1.330   0.031  0.00  0.00    -0.050 A 
ATOM     21  C   UNL     1      -0.153  -0.045   0.175  0.00  0.00    +0.008 A 
ATOM     22  C   UNL     1       1.021  -0.694   0.509  0.00  0.00    -0.023 A 
ATOM     23  C   UNL     1       2.183   0.032   0.698  0.00  0.00    +0.114 A 
ATOM     24  C   UNL     1       2.170   1.406   0.553  0.00  0.00    -0.023 A 
ATOM     25  C   UNL     1       0.997   2.055   0.219  0.00  0.00    +0.008 A 
ATOM     26  C   UNL     1       3.437   2.197   0.759  0.00  0.00    +0.046 C 
ATOM     27  C   UNL     1       1.035  -2.193   0.666  0.00  0.00    +0.046 C 
ENDBRANCH  16  23
ENDBRANCH   1  16
TORSDOF 4
