REMARK  Name = ZINC12515398
REMARK  6 active torsions:
REMARK  status: ('A' for Active; 'I' for Inactive)
REMARK    1  A    between atoms: C_1  and  C_2
REMARK    2  A    between atoms: C_9  and  N_14
REMARK    3  A    between atoms: N_14  and  C_15
REMARK    4  A    between atoms: C_15  and  C_17
REMARK    5  A    between atoms: C_15  and  C_18
REMARK    6  A    between atoms: N_23  and  C_26
REMARK                            x       y       z     vdW  Elec       q    Type
REMARK                         _______ _______ _______ _____ _____    ______ ____
ROOT
ATOM      1  C   UNL     1       3.955  -4.683  -0.576  0.00  0.00    +0.154 C 
ATOM      2  C   UNL     1       3.823  -5.030   0.908  0.00  0.00    +0.038 C 
ENDROOT
BRANCH   1   3
ATOM      3  C   UNL     1       3.935  -5.949  -1.393  0.00  0.00    +0.236 C 
ATOM      4  O   UNL     1       2.903  -6.320  -1.911  0.00  0.00    -0.274 OA
ATOM      5  N   UNL     1       5.063  -6.670  -1.547  0.00  0.00    -0.297 N 
ATOM      6  C   UNL     1       5.092  -7.849  -2.425  0.00  0.00    +0.126 C 
ATOM      7  C   UNL     1       6.283  -7.707  -3.386  0.00  0.00    +0.124 C 
ATOM      8  N   UNL     1       7.509  -7.483  -2.607  0.00  0.00    -0.327 N 
ATOM      9  C   UNL     1       7.440  -6.223  -1.856  0.00  0.00    +0.124 C 
ATOM     10  C   UNL     1       6.298  -6.301  -0.838  0.00  0.00    +0.126 C 
BRANCH   8  11
ATOM     11  C   UNL     1       8.637  -7.514  -3.430  0.00  0.00    +0.030 A 
ATOM     12  C   UNL     1       9.509  -6.433  -3.458  0.00  0.00    +0.023 A 
ATOM     13  C   UNL     1      10.626  -6.469  -4.269  0.00  0.00    +0.002 A 
ATOM     14  C   UNL     1      10.871  -7.575  -5.061  0.00  0.00    +0.000 A 
ATOM     15  C   UNL     1      10.003  -8.651  -5.040  0.00  0.00    +0.002 A 
ATOM     16  C   UNL     1       8.887  -8.624  -4.228  0.00  0.00    +0.023 A 
ENDBRANCH   8  11
ENDBRANCH   1   3
BRANCH   1  17
ATOM     17  N   UNL     1       2.838  -3.825  -0.978  0.00  0.00    -0.333 N 
ATOM     18  H   UNL     1       2.046  -4.216  -1.378  0.00  0.00    +0.147 HD
BRANCH  17  26
ATOM     19  C   UNL     1       2.360   3.891  -0.658  0.00  0.00    +0.062 C 
ATOM     20  C   UNL     1       2.474   2.460  -1.186  0.00  0.00    +0.256 C 
ATOM     21  C   UNL     1       1.096   1.909  -1.447  0.00  0.00    +0.258 C 
ATOM     22  O   UNL     1       0.188   2.655  -1.747  0.00  0.00    -0.271 OA
ATOM     23  N   UNL     1       0.876   0.579  -1.350  0.00  0.00    -0.279 N 
ATOM     24  C   UNL     1       1.935  -0.259  -0.973  0.00  0.00    +0.077 A 
ATOM     25  C   UNL     1       1.855  -1.628  -1.166  0.00  0.00    +0.050 A 
ATOM     26  C   UNL     1       2.914  -2.441  -0.785  0.00  0.00    +0.030 A 
ATOM     27  C   UNL     1       4.049  -1.881  -0.213  0.00  0.00    +0.026 A 
ATOM     28  C   UNL     1       4.129  -0.514  -0.021  0.00  0.00    +0.049 A 
ATOM     29  C   UNL     1       3.076   0.300  -0.399  0.00  0.00    +0.143 A 
ATOM     30  O   UNL     1       3.141   1.647  -0.217  0.00  0.00    -0.478 OA
ATOM     31  H   UNL     1      -0.001   0.210  -1.539  0.00  0.00    +0.155 HD
ENDBRANCH  17  26
ENDBRANCH   1  17
TORSDOF 4
