REMARK  Name = ZINC36752126
REMARK  5 active torsions:
REMARK  status: ('A' for Active; 'I' for Inactive)
REMARK    1  A    between atoms: C_1  and  N_2
REMARK    2  A    between atoms: N_2  and  C_3
REMARK    3  A    between atoms: C_3  and  C_4
REMARK    4  A    between atoms: C_15  and  C_17
REMARK    5  A    between atoms: C_17  and  N_18
REMARK                            x       y       z     vdW  Elec       q    Type
REMARK                         _______ _______ _______ _____ _____    ______ ____
ROOT
ATOM      1  C   UNL     1      -0.018   1.461   0.010  0.00  0.00    +0.132 C 
ATOM      2  N   UNL     1       0.002  -0.004   0.002  0.00  0.00    -0.300 N 
ATOM      3  C   UNL     1       0.000  -0.672  -1.169  0.00  0.00    +0.235 C 
ATOM      4  O   UNL     1       0.017  -1.884  -1.175  0.00  0.00    -0.274 OA
ENDROOT
BRANCH   2   5
ATOM      5  C   UNL     1       0.024  -0.743   1.267  0.00  0.00    +0.155 C 
BRANCH   5   6
ATOM      6  C   UNL     1      -1.411  -1.020   1.720  0.00  0.00    +0.228 C 
ATOM      7  C   UNL     1      -1.394  -1.782   3.053  0.00  0.00    +0.275 C 
ATOM      8  O   UNL     1      -2.749  -2.012   3.454  0.00  0.00    -0.485 OA
ATOM      9  C   UNL     1      -3.599  -0.953   3.372  0.00  0.00    +0.162 A 
ATOM     10  C   UNL     1      -4.800  -0.987   4.066  0.00  0.00    +0.049 A 
ATOM     11  C   UNL     1      -5.675   0.079   3.989  0.00  0.00    +0.004 A 
ATOM     12  C   UNL     1      -5.357   1.184   3.221  0.00  0.00    +0.004 A 
ATOM     13  C   UNL     1      -4.162   1.225   2.528  0.00  0.00    +0.049 A 
ATOM     14  C   UNL     1      -3.278   0.159   2.602  0.00  0.00    +0.163 A 
ATOM     15  O   UNL     1      -2.101   0.218   1.920  0.00  0.00    -0.480 OA
ENDBRANCH   5   6
ENDBRANCH   2   5
BRANCH   3  16
ATOM     16  C   UNL     1      -0.023   0.089  -2.470  0.00  0.00    +0.227 C 
BRANCH  16  17
ATOM     17  N   UNL     1      -0.020  -0.857  -3.588  0.00  0.00    -0.194 N 
ATOM     18  C   UNL     1       1.096  -1.470  -4.182  0.00  0.00    +0.061 A 
ATOM     19  C   UNL     1       2.438  -1.314  -3.840  0.00  0.00    +0.025 A 
ATOM     20  C   UNL     1       3.432  -1.996  -4.531  0.00  0.00    +0.002 A 
ATOM     21  C   UNL     1       3.155  -2.842  -5.564  0.00  0.00    +0.009 A 
ATOM     22  C   UNL     1       1.816  -3.032  -5.945  0.00  0.00    -0.014 A 
ATOM     23  C   UNL     1       0.815  -2.335  -5.237  0.00  0.00    +0.031 A 
ATOM     24  C   UNL     1      -0.530  -2.497  -5.587  0.00  0.00    +0.118 A 
ATOM     25  C   UNL     1      -0.881  -3.315  -6.596  0.00  0.00    +0.029 A 
ATOM     26  C   UNL     1       0.105  -4.013  -7.304  0.00  0.00    +0.003 A 
ATOM     27  C   UNL     1       1.427  -3.880  -6.995  0.00  0.00    +0.009 A 
ATOM     28  S   UNL     1      -1.350  -1.442  -4.426  0.00  0.00    +0.076 S 
ATOM     29  O   UNL     1      -2.093  -2.266  -3.538  0.00  0.00    -0.150 OA
ATOM     30  O   UNL     1      -1.917  -0.359  -5.150  0.00  0.00    -0.150 OA
ENDBRANCH  16  17
ENDBRANCH   3  16
TORSDOF 4
