REMARK  Name = ZINC17640512
REMARK  10 active torsions:
REMARK  status: ('A' for Active; 'I' for Inactive)
REMARK    1  A    between atoms: C_1  and  C_2
REMARK    2  A    between atoms: C_14  and  C_15
REMARK    3  A    between atoms: N_17  and  C_18
REMARK    4  A    between atoms: C_18  and  C_19
REMARK    5  A    between atoms: C_19  and  C_21
REMARK    6  A    between atoms: C_19  and  N_56
REMARK    7  A    between atoms: C_26  and  O_27
REMARK    8  A    between atoms: O_27  and  C_28
REMARK    9  A    between atoms: C_29  and  N_56
REMARK   10  A    between atoms: C_30  and  N_56
REMARK                            x       y       z     vdW  Elec       q    Type
REMARK                         _______ _______ _______ _____ _____    ______ ____
ROOT
ATOM      1  C   UNL     1       1.755   4.558   2.108  0.00  0.00    +0.251 C 
ATOM      2  O   UNL     1       2.951   4.333   2.084  0.00  0.00    -0.270 OA
ATOM      3  N   UNL     1       1.237   5.533   1.334  0.00  0.00    -0.312 N 
ATOM      4  H   UNL     1       0.284   5.712   1.353  0.00  0.00    +0.149 HD
ENDROOT
BRANCH   1  18
ATOM      5  C   UNL     1       2.646   2.311   3.949  0.00  0.00    +0.046 C 
ATOM      6  C   UNL     1       1.210   2.752   3.825  0.00  0.00    -0.017 A 
ATOM      7  C   UNL     1       0.216   2.119   4.575  0.00  0.00    +0.076 A 
ATOM      8  C   UNL     1      -1.099   2.604   4.388  0.00  0.00    +0.116 A 
ATOM      9  N   UNL     1      -2.128   2.087   5.040  0.00  0.00    -0.226 NA
ATOM     10  C   UNL     1      -1.993   1.101   5.894  0.00  0.00    +0.114 A 
ATOM     11  N   UNL     1      -0.779   0.555   6.160  0.00  0.00    -0.296 N 
ATOM     12  C   UNL     1       0.337   1.010   5.544  0.00  0.00    +0.263 A 
ATOM     13  O   UNL     1       1.423   0.513   5.784  0.00  0.00    -0.267 OA
ATOM     14  C   UNL     1      -0.900  -0.526   7.156  0.00  0.00    +0.127 C 
ATOM     15  C   UNL     1      -2.393  -0.912   7.173  0.00  0.00    +0.029 C 
ATOM     16  C   UNL     1      -3.064   0.399   6.710  0.00  0.00    +0.076 C 
ATOM     17  S   UNL     1      -0.889   3.899   3.192  0.00  0.00    -0.064 S 
ATOM     18  C   UNL     1       0.878   3.768   2.978  0.00  0.00    +0.079 A 
ENDBRANCH   1  18
BRANCH   3  19
ATOM     19  C   UNL     1       2.114   6.322   0.465  0.00  0.00    +0.094 C 
BRANCH  19  20
ATOM     20  C   UNL     1       1.263   7.156  -0.495  0.00  0.00    -0.017 C 
BRANCH  20  21
ATOM     21  C   UNL     1       2.156   8.074  -1.289  0.00  0.00    -0.018 A 
ATOM     22  C   UNL     1       2.443   7.786  -2.610  0.00  0.00    +0.005 A 
ATOM     23  C   UNL     1       3.259   8.629  -3.341  0.00  0.00    +0.000 A 
ATOM     24  C   UNL     1       3.797   9.758  -2.750  0.00  0.00    +0.004 A 
ATOM     25  C   UNL     1       3.517  10.047  -1.429  0.00  0.00    +0.046 A 
ATOM     26  C   UNL     1       2.695   9.205  -0.694  0.00  0.00    +0.122 A 
BRANCH  26  27
ATOM     27  O   UNL     1       2.417   9.488   0.606  0.00  0.00    -0.495 OA
ATOM     28  C   UNL     1       3.007  10.669   1.153  0.00  0.00    +0.277 C 
ENDBRANCH  26  27
ENDBRANCH  20  21
BRANCH  20  31
ATOM     29  C   UNL     1       1.382   5.132  -1.818  0.00  0.00    -0.096 C 
ATOM     30  C   UNL     1      -0.715   5.795  -0.806  0.00  0.00    -0.096 C 
ATOM     31  N   UNL     1       0.532   6.279  -1.433  0.00  0.00    +0.382 N 
ATOM     32  H   UNL     1       0.296   6.816  -2.276  0.00  0.00    -0.082 HD
ENDBRANCH  20  31
ENDBRANCH  19  20
ENDBRANCH   3  19
TORSDOF 6
