REMARK  Name = ZINC40680252
REMARK  7 active torsions:
REMARK  status: ('A' for Active; 'I' for Inactive)
REMARK    1  A    between atoms: C_1  and  C_2
REMARK    2  A    between atoms: C_2  and  C_3
REMARK    3  A    between atoms: C_3  and  C_4
REMARK    4  A    between atoms: C_4  and  C_5
REMARK    5  A    between atoms: C_8  and  N_11
REMARK    6  A    between atoms: C_13  and  N_30
REMARK    7  A    between atoms: C_14  and  N_18
REMARK                            x       y       z     vdW  Elec       q    Type
REMARK                         _______ _______ _______ _____ _____    ______ ____
ROOT
ATOM      1  N   UNL     1      -6.727  -4.069   0.043  0.00  0.00    -0.298 N 
ATOM      2  C   UNL     1      -7.427  -4.196  -1.152  0.00  0.00    +0.149 A 
ATOM      3  C   UNL     1      -8.771  -4.573  -1.149  0.00  0.00    +0.106 A 
ATOM      4  C   UNL     1      -9.427  -4.686  -2.377  0.00  0.00    +0.147 A 
ATOM      5  N   UNL     1      -8.751  -4.430  -3.494  0.00  0.00    -0.219 NA
ATOM      6  C   UNL     1      -7.482  -4.076  -3.453  0.00  0.00    +0.225 A 
ATOM      7  N   UNL     1      -6.828  -3.954  -2.315  0.00  0.00    -0.219 NA
ATOM      8  H   UNL     1      -7.143  -4.332   0.879  0.00  0.00    +0.154 HD
ENDROOT
BRANCH   4   9
ATOM      9  N   UNL     1     -10.764  -5.059  -2.431  0.00  0.00    -0.311 N 
ATOM     10  C   UNL     1     -11.828  -4.054  -2.285  0.00  0.00    +0.125 C 
ATOM     11  C   UNL     1     -12.754  -4.141  -3.505  0.00  0.00    +0.125 C 
ATOM     12  N   UNL     1     -13.131  -5.547  -3.709  0.00  0.00    -0.314 N 
ATOM     13  C   UNL     1     -12.068  -6.551  -3.854  0.00  0.00    +0.125 C 
ATOM     14  C   UNL     1     -11.141  -6.464  -2.640  0.00  0.00    +0.125 C 
ATOM     15  C   UNL     1     -14.469  -5.920  -3.763  0.00  0.00    +0.099 A 
ATOM     16  C   UNL     1     -15.459  -4.943  -3.746  0.00  0.00    +0.042 A 
ATOM     17  C   UNL     1     -16.786  -5.328  -3.800  0.00  0.00    +0.005 A 
ATOM     18  C   UNL     1     -17.080  -6.684  -3.870  0.00  0.00    +0.018 A 
ATOM     19  C   UNL     1     -16.047  -7.600  -3.883  0.00  0.00    +0.084 A 
ATOM     20  N   UNL     1     -14.790  -7.203  -3.835  0.00  0.00    -0.350 N 
ATOM     21  H   UNL     1     -14.083  -7.867  -3.849  0.00  0.00    +0.166 HD
ENDBRANCH   4   9
BRANCH   1  25
ATOM     22  C   UNL     1      -2.846  -2.558   0.032  0.00  0.00    -0.047 A 
ATOM     23  C   UNL     1      -3.727  -2.204  -0.973  0.00  0.00    +0.005 A 
ATOM     24  C   UNL     1      -5.015  -2.703  -0.972  0.00  0.00    +0.023 A 
ATOM     25  C   UNL     1      -5.425  -3.562   0.039  0.00  0.00    +0.032 A 
ATOM     26  C   UNL     1      -4.537  -3.917   1.047  0.00  0.00    +0.023 A 
ATOM     27  C   UNL     1      -3.249  -3.418   1.038  0.00  0.00    +0.005 A 
BRANCH  22  28
ATOM     28  C   UNL     1      -1.442  -2.012   0.029  0.00  0.00    +0.035 C 
BRANCH  28  29
ATOM     29  C   UNL     1      -0.530  -2.953  -0.761  0.00  0.00    +0.004 C 
BRANCH  29  31
ATOM     30  C   UNL     1       1.807  -3.339  -1.554  0.00  0.00    +0.004 C 
ATOM     31  C   UNL     1       0.895  -2.397  -0.765  0.00  0.00    -0.003 C 
ENDBRANCH  29  31
ENDBRANCH  28  29
ENDBRANCH  22  28
ENDBRANCH   1  25
BRANCH   3  32
ATOM     32  N   UNL     1      -9.445  -4.834   0.055  0.00  0.00    -0.353 N 
ATOM     33  H   UNL     1      -8.999  -4.682   0.903  0.00  0.00    +0.143 HD
ATOM     34  H   UNL     1     -10.356  -5.166   0.039  0.00  0.00    +0.143 HD
ENDBRANCH   3  32
TORSDOF 6
