REMARK  Name = ZINC63425351
REMARK  6 active torsions:
REMARK  status: ('A' for Active; 'I' for Inactive)
REMARK    1  A    between atoms: C_1  and  C_2
REMARK    2  A    between atoms: C_2  and  N_18
REMARK    3  A    between atoms: N_9  and  C_12
REMARK    4  A    between atoms: N_18  and  C_19
REMARK    5  A    between atoms: C_19  and  C_20
REMARK    6  A    between atoms: C_20  and  C_21
REMARK                            x       y       z     vdW  Elec       q    Type
REMARK                         _______ _______ _______ _____ _____    ______ ____
ROOT
ATOM      1  C   UNL     1      -0.007   1.502  -0.060  0.00  0.00    +0.061 C 
ATOM      2  C   UNL     1       0.002  -0.004   0.002  0.00  0.00    +0.018 C 
ATOM      3  C   UNL     1       0.144  -0.645   1.219  0.00  0.00    +0.116 C 
ATOM      4  C   UNL     1       0.313  -2.107   1.303  0.00  0.00    +0.258 C 
ATOM      5  O   UNL     1       0.334  -2.792   0.298  0.00  0.00    -0.270 OA
ATOM      6  N   UNL     1       0.446  -2.664   2.524  0.00  0.00    -0.235 N 
ATOM      7  C   UNL     1       0.425  -1.921   3.639  0.00  0.00    +0.316 C 
ATOM      8  O   UNL     1       0.549  -2.484   4.709  0.00  0.00    -0.252 OA
ATOM      9  N   UNL     1       0.274  -0.589   3.638  0.00  0.00    -0.218 N 
ATOM     10  C   UNL     1       0.137   0.104   2.488  0.00  0.00    +0.261 C 
ATOM     11  O   UNL     1       0.007   1.313   2.499  0.00  0.00    -0.269 OA
ATOM     12  H   UNL     1       0.558  -3.625   2.597  0.00  0.00    +0.159 HD
ENDROOT
BRANCH   9  13
ATOM     13  C   UNL     1       0.264   0.132   4.913  0.00  0.00    +0.086 C 
ATOM     14  C   UNL     1       1.590  -0.100   5.640  0.00  0.00    +0.023 C 
ATOM     15  C   UNL     1       1.579   0.653   6.972  0.00  0.00    +0.002 C 
ATOM     16  C   UNL     1       0.427   0.142   7.838  0.00  0.00    +0.000 C 
ATOM     17  C   UNL     1      -0.899   0.373   7.111  0.00  0.00    +0.002 C 
ATOM     18  C   UNL     1      -0.889  -0.380   5.779  0.00  0.00    +0.023 C 
ENDBRANCH   9  13
BRANCH   2  19
ATOM     19  N   UNL     1      -0.128  -0.726  -1.129  0.00  0.00    -0.346 N 
ATOM     20  H   UNL     1      -0.207  -1.692  -1.082  0.00  0.00    +0.146 HD
BRANCH  19  21
ATOM     21  C   UNL     1      -0.150  -0.052  -2.430  0.00  0.00    +0.105 C 
BRANCH  21  22
ATOM     22  C   UNL     1      -0.306  -1.092  -3.541  0.00  0.00    +0.052 C 
BRANCH  22  23
ATOM     23  C   UNL     1      -0.329  -0.399  -4.878  0.00  0.00    -0.040 C 
ATOM     24  C   UNL     1       0.719  -0.204  -5.711  0.00  0.00    -0.001 A 
ATOM     25  C   UNL     1       2.139  -0.563  -5.623  0.00  0.00    +0.010 A 
ATOM     26  C   UNL     1       2.966  -0.224  -6.638  0.00  0.00    +0.001 A 
ATOM     27  C   UNL     1       2.501   0.461  -7.770  0.00  0.00    +0.002 A 
ATOM     28  C   UNL     1       1.211   0.825  -7.922  0.00  0.00    +0.026 A 
ATOM     29  C   UNL     1       0.254   0.519  -6.916  0.00  0.00    +0.043 A 
ATOM     30  N   UNL     1      -1.032   0.761  -6.832  0.00  0.00    -0.380 N 
ATOM     31  C   UNL     1      -1.529   0.213  -5.565  0.00  0.00    +0.144 C 
ATOM     32  H   UNL     1      -1.566   1.222  -7.498  0.00  0.00    +0.160 HD
ENDBRANCH  22  23
ENDBRANCH  21  22
ENDBRANCH  19  21
ENDBRANCH   2  19
TORSDOF 5
