REMARK  Name = ZINC08780585
REMARK  11 active torsions:
REMARK  status: ('A' for Active; 'I' for Inactive)
REMARK    1  A    between atoms: C_1  and  C_2
REMARK    2  A    between atoms: C_3  and  C_30
REMARK    3  A    between atoms: C_4  and  C_23
REMARK    4  A    between atoms: C_10  and  C_15
REMARK    5  A    between atoms: C_18  and  O_21
REMARK    6  A    between atoms: O_21  and  C_22
REMARK    7  A    between atoms: C_30  and  O_32
REMARK    8  A    between atoms: O_32  and  C_33
REMARK    9  A    between atoms: C_33  and  C_34
REMARK   10  A    between atoms: C_34  and  O_35
REMARK   11  A    between atoms: O_35  and  C_36
REMARK                            x       y       z     vdW  Elec       q    Type
REMARK                         _______ _______ _______ _____ _____    ______ ____
ROOT
ATOM      1  C   UNL     1      -2.667   7.535   2.559  0.00  0.00    +0.061 C 
ATOM      2  C   UNL     1      -2.021   7.077   1.277  0.00  0.00    +0.031 C 
ATOM      3  C   UNL     1      -0.755   6.627   1.290  0.00  0.00    +0.154 C 
ATOM      4  C   UNL     1      -0.082   6.158   0.036  0.00  0.00    +0.073 C 
ATOM      5  C   UNL     1      -0.812   6.650  -1.189  0.00  0.00    +0.025 C 
ATOM      6  C   UNL     1      -2.080   7.104  -1.099  0.00  0.00    +0.049 C 
ATOM      7  N   UNL     1      -2.727   7.123   0.107  0.00  0.00    -0.260 NA
ATOM      8  C   UNL     1      -2.816   7.601  -2.319  0.00  0.00    +0.064 C 
ATOM      9  C   UNL     1      -2.318   6.858  -3.559  0.00  0.00    +0.032 C 
ATOM     10  C   UNL     1      -0.808   7.081  -3.688  0.00  0.00    +0.088 C 
ATOM     11  C   UNL     1      -0.136   6.622  -2.422  0.00  0.00    +0.162 C 
ATOM     12  O   UNL     1       1.010   6.221  -2.465  0.00  0.00    -0.292 OA
ENDROOT
BRANCH   4  13
ATOM     13  C   UNL     1      -0.061   4.651   0.027  0.00  0.00    -0.039 A 
ATOM     14  C   UNL     1       1.145   3.977   0.013  0.00  0.00    +0.005 A 
ATOM     15  C   UNL     1       1.164   2.595   0.005  0.00  0.00    +0.015 A 
ATOM     16  C   UNL     1      -0.024   1.887   0.013  0.00  0.00    +0.018 A 
ATOM     17  C   UNL     1      -1.231   2.562   0.022  0.00  0.00    +0.015 A 
ATOM     18  C   UNL     1      -1.249   3.944   0.035  0.00  0.00    +0.005 A 
ATOM     19 BR   UNL     1       0.002  -0.004   0.002  0.00  0.00    -0.050 Br
ENDBRANCH   4  13
BRANCH   9  20
ATOM     20  C   UNL     1      -3.015   7.393  -4.784  0.00  0.00    -0.043 A 
ATOM     21  C   UNL     1      -2.908   8.732  -5.109  0.00  0.00    +0.007 A 
ATOM     22  C   UNL     1      -3.541   9.224  -6.234  0.00  0.00    +0.046 A 
ATOM     23  C   UNL     1      -4.294   8.374  -7.032  0.00  0.00    +0.120 A 
ATOM     24  C   UNL     1      -4.405   7.032  -6.700  0.00  0.00    +0.046 A 
ATOM     25  C   UNL     1      -3.765   6.544  -5.577  0.00  0.00    +0.007 A 
BRANCH  23  26
ATOM     26  O   UNL     1      -4.923   8.857  -8.135  0.00  0.00    -0.495 OA
ATOM     27  C   UNL     1      -4.765  10.249  -8.416  0.00  0.00    +0.277 C 
ENDBRANCH  23  26
ENDBRANCH   9  20
BRANCH   3  28
ATOM     28  C   UNL     1      -0.042   6.597   2.512  0.00  0.00    +0.317 C 
ATOM     29  O   UNL     1      -0.576   6.978   3.537  0.00  0.00    -0.250 OA
BRANCH  28  30
ATOM     30  O   UNL     1       1.229   6.146   2.541  0.00  0.00    -0.462 OA
BRANCH  30  31
ATOM     31  C   UNL     1       1.889   6.144   3.808  0.00  0.00    +0.260 C 
BRANCH  31  32
ATOM     32  C   UNL     1       3.311   5.604   3.643  0.00  0.00    +0.200 C 
BRANCH  32  33
ATOM     33  O   UNL     1       4.068   6.498   2.825  0.00  0.00    -0.380 OA
ATOM     34  C   UNL     1       5.418   6.083   2.606  0.00  0.00    +0.194 C 
ENDBRANCH  32  33
ENDBRANCH  31  32
ENDBRANCH  30  31
ENDBRANCH  28  30
ENDBRANCH   3  28
TORSDOF 8
