REMARK  Name = ZINC32097692
REMARK  6 active torsions:
REMARK  status: ('A' for Active; 'I' for Inactive)
REMARK    1  A    between atoms: C_1  and  C_2
REMARK    2  A    between atoms: C_2  and  C_3
REMARK    3  A    between atoms: C_2  and  C_4
REMARK    4  A    between atoms: C_8  and  N_13
REMARK    5  A    between atoms: N_13  and  S_14
REMARK    6  A    between atoms: S_14  and  C_17
REMARK                            x       y       z     vdW  Elec       q    Type
REMARK                         _______ _______ _______ _____ _____    ______ ____
ROOT
ATOM      1  N   UNL     1       3.833   4.464  -0.028  0.00  0.00    -0.216 N 
ATOM      2  H   UNL     1       4.260   4.902  -0.943  0.00  0.00    +0.174 HD
ENDROOT
BRANCH   1   7
ATOM      3  C   UNL     1       0.576  -0.376  -0.047  0.00  0.00    +0.199 A 
ATOM      4  N   UNL     1       0.411   0.913  -0.063  0.00  0.00    -0.213 NA
ATOM      5  C   UNL     1       1.632   1.512  -0.044  0.00  0.00    +0.111 A 
ATOM      6  C   UNL     1       2.054   2.843  -0.048  0.00  0.00    +0.056 A 
ATOM      7  C   UNL     1       3.406   3.132  -0.024  0.00  0.00    +0.050 A 
ATOM      8  C   UNL     1       4.344   2.103   0.005  0.00  0.00    +0.028 A 
ATOM      9  C   UNL     1       3.935   0.786   0.010  0.00  0.00    +0.050 A 
ATOM     10  C   UNL     1       2.583   0.481  -0.015  0.00  0.00    +0.155 A 
ATOM     11  O   UNL     1       1.884  -0.677  -0.017  0.00  0.00    -0.439 OA
BRANCH   3  13
ATOM     12  C   UNL     1      -0.409  -2.277  -1.297  0.00  0.00    +0.017 C 
ATOM     13  C   UNL     1      -0.540  -1.388  -0.059  0.00  0.00    +0.069 C 
ATOM     14  C   UNL     1      -0.459  -2.252   1.201  0.00  0.00    +0.017 C 
ENDBRANCH   3  13
ENDBRANCH   1   7
BRANCH   1  15
ATOM     15  S   UNL     1       3.697   5.382   1.343  0.00  0.00    +0.072 S 
ATOM     16  O   UNL     1       4.260   6.651   1.040  0.00  0.00    -0.150 OA
ATOM     17  O   UNL     1       2.361   5.231   1.802  0.00  0.00    -0.150 OA
BRANCH  15  18
ATOM     18  C   UNL     1       4.735   4.650   2.565  0.00  0.00    +0.109 A 
ATOM     19  C   UNL     1       4.247   3.641   3.375  0.00  0.00    +0.030 A 
ATOM     20  C   UNL     1       5.055   3.061   4.330  0.00  0.00    +0.025 A 
ATOM     21  C   UNL     1       6.369   3.496   4.492  0.00  0.00    +0.037 A 
ATOM     22  C   UNL     1       6.846   4.514   3.677  0.00  0.00    -0.016 A 
ATOM     23  C   UNL     1       6.039   5.088   2.720  0.00  0.00    +0.034 A 
ATOM     24  C   UNL     1       8.279   4.755   4.091  0.00  0.00    +0.133 C 
ATOM     25  C   UNL     1       8.511   3.761   5.209  0.00  0.00    +0.222 C 
ATOM     26  O   UNL     1       9.538   3.609   5.837  0.00  0.00    -0.275 OA
ATOM     27  N   UNL     1       7.366   3.079   5.376  0.00  0.00    -0.285 N 
ATOM     28  H   UNL     1       7.159   2.275   6.098  0.00  0.00    +0.155 HD
ENDBRANCH  15  18
ENDBRANCH   1  15
TORSDOF 4
