REMARK  Name = ZINC09581183
REMARK  7 active torsions:
REMARK  status: ('A' for Active; 'I' for Inactive)
REMARK    1  A    between atoms: N_10  and  C_11
REMARK    2  A    between atoms: C_11  and  C_12
REMARK    3  A    between atoms: N_14  and  N_15
REMARK    4  A    between atoms: C_16  and  C_18
REMARK    5  A    between atoms: C_18  and  C_19
REMARK    6  A    between atoms: C_19  and  C_20
REMARK    7  A    between atoms: C_20  and  N_21
REMARK                            x       y       z     vdW  Elec       q    Type
REMARK                         _______ _______ _______ _____ _____    ______ ____
ROOT
ATOM      1  N   UNL     1       1.869  -1.810  -5.133  0.00  0.00    -0.234 N 
ATOM      2  C   UNL     1       2.284  -2.565  -6.170  0.00  0.00    +0.229 C 
ATOM      3  O   UNL     1       3.329  -3.176  -6.096  0.00  0.00    -0.274 OA
ATOM      4  H   UNL     1       1.034  -1.322  -5.192  0.00  0.00    +0.173 HD
ENDROOT
BRANCH   1   7
ATOM      5  C   UNL     1       2.231  -0.977  -2.932  0.00  0.00    +0.246 C 
ATOM      6  O   UNL     1       1.186  -0.366  -3.007  0.00  0.00    -0.273 OA
ATOM      7  N   UNL     1       2.646  -1.732  -3.969  0.00  0.00    -0.233 N 
ATOM      8  H   UNL     1       3.482  -2.220  -3.910  0.00  0.00    +0.173 HD
BRANCH   5   9
ATOM      9  C   UNL     1       3.066  -0.892  -1.681  0.00  0.00    +0.202 C 
BRANCH   9  19
ATOM     10  C   UNL     1      -1.264  -1.217   0.508  0.00  0.00    +0.000 A 
ATOM     11  C   UNL     1      -0.245  -2.118   0.257  0.00  0.00    +0.002 A 
ATOM     12  C   UNL     1       0.985  -1.664  -0.169  0.00  0.00    +0.023 A 
ATOM     13  C   UNL     1       1.210  -0.298  -0.349  0.00  0.00    +0.033 A 
ATOM     14  C   UNL     1       0.186   0.598  -0.102  0.00  0.00    -0.026 A 
ATOM     15  C   UNL     1      -1.048   0.134   0.328  0.00  0.00    +0.005 A 
ATOM     16  C   UNL     1       0.362   2.084  -0.287  0.00  0.00    +0.038 C 
ATOM     17  C   UNL     1       1.853   2.419  -0.377  0.00  0.00    +0.024 C 
ATOM     18  C   UNL     1       2.499   1.436  -1.361  0.00  0.00    +0.106 C 
ATOM     19  N   UNL     1       2.480   0.098  -0.767  0.00  0.00    -0.321 N 
ENDBRANCH   9  19
ENDBRANCH   5   9
ENDBRANCH   1   7
BRANCH   2  20
ATOM     20  C   UNL     1       1.449  -2.650  -7.421  0.00  0.00    +0.099 C 
BRANCH  20  21
ATOM     21  C   UNL     1       2.140  -3.564  -8.435  0.00  0.00    +0.028 C 
BRANCH  21  22
ATOM     22  C   UNL     1       1.292  -3.650  -9.705  0.00  0.00    +0.103 C 
BRANCH  22  23
ATOM     23  N   UNL     1       1.954  -4.526 -10.676  0.00  0.00    -0.327 N 
ATOM     24  C   UNL     1       1.373  -4.757 -11.903  0.00  0.00    +0.150 C 
ATOM     25  N   UNL     1       0.243  -4.203 -12.208  0.00  0.00    -0.113 NA
ATOM     26  S   UNL     1      -0.119  -4.724 -13.757  0.00  0.00    +0.101 S 
ATOM     27  O   UNL     1      -1.259  -5.569 -13.674  0.00  0.00    -0.146 OA
ATOM     28  O   UNL     1      -0.039  -3.599 -14.621  0.00  0.00    -0.146 OA
ATOM     29  C   UNL     1       1.292  -5.748 -14.070  0.00  0.00    +0.123 A 
ATOM     30  C   UNL     1       2.033  -5.630 -12.886  0.00  0.00    +0.043 A 
ATOM     31  C   UNL     1       3.238  -6.345 -12.805  0.00  0.00    +0.013 A 
ATOM     32  C   UNL     1       3.661  -7.117 -13.864  0.00  0.00    +0.001 A 
ATOM     33  C   UNL     1       2.911  -7.209 -15.022  0.00  0.00    +0.002 A 
ATOM     34  C   UNL     1       1.713  -6.513 -15.118  0.00  0.00    +0.030 A 
ATOM     35  H   UNL     1       2.801  -4.943 -10.454  0.00  0.00    +0.148 HD
ENDBRANCH  22  23
ENDBRANCH  21  22
ENDBRANCH  20  21
ENDBRANCH   2  20
TORSDOF 7
