REMARK  Name = ZINC44589287
REMARK  12 active torsions:
REMARK  status: ('A' for Active; 'I' for Inactive)
REMARK    1  A    between atoms: C_1  and  C_2
REMARK    2  A    between atoms: C_5  and  N_8
REMARK    3  A    between atoms: N_8  and  C_9
REMARK    4  A    between atoms: C_9  and  N_11
REMARK    5  A    between atoms: C_12  and  C_35
REMARK    6  A    between atoms: C_21  and  C_23
REMARK    7  A    between atoms: C_25  and  O_33
REMARK    8  A    between atoms: C_26  and  O_31
REMARK    9  A    between atoms: C_28  and  O_29
REMARK   10  A    between atoms: O_29  and  C_30
REMARK   11  A    between atoms: O_31  and  C_32
REMARK   12  A    between atoms: O_33  and  C_34
REMARK                            x       y       z     vdW  Elec       q    Type
REMARK                         _______ _______ _______ _____ _____    ______ ____
ROOT
ATOM      1  N   UNL     1      -0.402  -6.576   0.912  0.00  0.00    -0.286 N 
ATOM      2  C   UNL     1       0.552  -7.040  -0.106  0.00  0.00    +0.195 C 
ATOM      3  C   UNL     1       1.967  -7.018   0.487  0.00  0.00    +0.089 C 
ATOM      4  C   UNL     1       1.925  -7.620   1.867  0.00  0.00    +0.041 A 
ATOM      5  C   UNL     1       0.806  -7.782   2.604  0.00  0.00    +0.062 A 
ATOM      6  N   UNL     1       1.151  -8.340   3.766  0.00  0.00    -0.348 N 
ATOM      7  C   UNL     1       2.444  -8.535   3.780  0.00  0.00    +0.171 A 
ATOM      8  N   UNL     1       2.962  -8.099   2.609  0.00  0.00    -0.349 N 
ATOM      9  H   UNL     1       3.896  -8.122   2.347  0.00  0.00    +0.166 HD
ATOM     10  C   UNL     1      -0.569  -7.381   2.136  0.00  0.00    +0.158 C 
ATOM     11  H   UNL     1       0.540  -8.565   4.486  0.00  0.00    +0.167 HD
ENDROOT
BRANCH  10  12
ATOM     12  C   UNL     1      -1.382  -8.613   1.833  0.00  0.00    +0.024 A 
ATOM     13  C   UNL     1      -0.763  -9.847   1.755  0.00  0.00    +0.058 A 
ATOM     14  C   UNL     1      -1.508 -10.981   1.477  0.00  0.00    +0.162 A 
ATOM     15  C   UNL     1      -2.882 -10.877   1.276  0.00  0.00    +0.165 A 
ATOM     16  C   UNL     1      -3.500  -9.640   1.353  0.00  0.00    +0.095 A 
ATOM     17  C   UNL     1      -2.751  -8.508   1.637  0.00  0.00    +0.129 A 
BRANCH  17  18
ATOM     18  O   UNL     1      -3.358  -7.294   1.719  0.00  0.00    -0.495 OA
ATOM     19  C   UNL     1      -4.771  -7.260   1.507  0.00  0.00    +0.277 C 
ENDBRANCH  17  18
BRANCH  15  20
ATOM     20  O   UNL     1      -3.615 -11.989   1.002  0.00  0.00    -0.491 OA
ATOM     21  C   UNL     1      -5.019 -11.808   0.807  0.00  0.00    +0.277 C 
ENDBRANCH  15  20
BRANCH  14  22
ATOM     22  O   UNL     1      -0.899 -12.195   1.401  0.00  0.00    -0.491 OA
ATOM     23  C   UNL     1       0.513 -12.226   1.619  0.00  0.00    +0.277 C 
ENDBRANCH  14  22
ENDBRANCH  10  12
BRANCH   2  24
ATOM     24  C   UNL     1       0.492  -6.129  -1.305  0.00  0.00    +0.376 C 
ATOM     25  O   UNL     1       0.769  -4.947  -1.188  0.00  0.00    -0.244 OA
ATOM     26  O   UNL     1       0.167  -6.574  -2.393  0.00  0.00    -0.244 OA
ENDBRANCH   2  24
BRANCH   1  27
ATOM     27  C   UNL     1      -1.105  -5.440   0.733  0.00  0.00    +0.139 C 
ATOM     28  S   UNL     1      -1.767  -4.621   2.083  0.00  0.00    -0.018 S 
BRANCH  27  29
ATOM     29  N   UNL     1      -1.286  -4.948  -0.509  0.00  0.00    -0.297 N 
ATOM     30  H   UNL     1      -1.126  -5.512  -1.282  0.00  0.00    +0.154 HD
BRANCH  29  35
ATOM     31  C   UNL     1      -2.980   0.420  -1.214  0.00  0.00    +0.044 C 
ATOM     32  C   UNL     1      -2.530  -1.006  -1.027  0.00  0.00    -0.050 A 
ATOM     33  C   UNL     1      -3.140  -2.022  -1.740  0.00  0.00    +0.005 A 
ATOM     34  C   UNL     1      -2.730  -3.329  -1.571  0.00  0.00    +0.023 A 
ATOM     35  C   UNL     1      -1.703  -3.624  -0.683  0.00  0.00    +0.033 A 
ATOM     36  C   UNL     1      -1.092  -2.602   0.032  0.00  0.00    +0.023 A 
ATOM     37  C   UNL     1      -1.503  -1.296  -0.146  0.00  0.00    +0.005 A 
ENDBRANCH  29  35
ENDBRANCH  27  29
ENDBRANCH   1  27
TORSDOF 8
