REMARK  Name = ZINC63152730
REMARK  9 active torsions:
REMARK  status: ('A' for Active; 'I' for Inactive)
REMARK    1  A    between atoms: C_1  and  C_2
REMARK    2  A    between atoms: C_3  and  C_12
REMARK    3  A    between atoms: C_4  and  C_11
REMARK    4  A    between atoms: C_8  and  C_9
REMARK    5  A    between atoms: C_12  and  C_13
REMARK    6  A    between atoms: C_13  and  C_14
REMARK    7  A    between atoms: C_20  and  C_23
REMARK    8  A    between atoms: C_23  and  C_24
REMARK    9  A    between atoms: C_23  and  C_25
REMARK                            x       y       z     vdW  Elec       q    Type
REMARK                         _______ _______ _______ _____ _____    ______ ____
ROOT
ATOM      1  C   UNL     1      -2.891   0.344   1.455  0.00  0.00    +0.101 C 
ENDROOT
BRANCH   1   2
ATOM      2  C   UNL     1      -4.212   1.070   1.465  0.00  0.00    +0.219 C 
ATOM      3  O   UNL     1      -4.793   1.287   0.422  0.00  0.00    -0.275 OA
ATOM      4  N   UNL     1      -4.748   1.477   2.632  0.00  0.00    -0.264 N 
ATOM      5  C   UNL     1      -5.968   2.147   2.642  0.00  0.00    +0.179 C 
ATOM      6  N   UNL     1      -6.719   2.454   1.630  0.00  0.00    -0.163 NA
ATOM      7  N   UNL     1      -7.916   3.123   1.752  0.00  0.00    -0.253 N 
ATOM      8  C   UNL     1      -8.303   3.477   3.136  0.00  0.00    +0.156 C 
ATOM      9  S   UNL     1      -6.867   2.776   4.050  0.00  0.00    -0.065 S 
ATOM     10  H   UNL     1      -4.284   1.303   3.466  0.00  0.00    +0.157 HD
ATOM     11  H   UNL     1      -8.467   3.346   0.985  0.00  0.00    +0.169 HD
BRANCH   8  12
ATOM     12  C   UNL     1      -9.607   2.789   3.544  0.00  0.00    +0.015 C 
ATOM     13  C   UNL     1     -10.031   3.280   4.930  0.00  0.00    +0.010 C 
ATOM     14  C   UNL     1     -10.700   3.125   2.528  0.00  0.00    +0.010 C 
ENDBRANCH   8  12
ENDBRANCH   1   2
BRANCH   1  15
ATOM     15  C   UNL     1      -2.511  -0.004   0.014  0.00  0.00    +0.046 C 
BRANCH  15  18
ATOM     16  C   UNL     1      -0.018   1.503   0.010  0.00  0.00    +0.045 C 
ATOM     17  C   UNL     1       0.002  -0.004   0.002  0.00  0.00    -0.023 A 
ATOM     18  C   UNL     1      -1.190  -0.729   0.004  0.00  0.00    -0.024 A 
ATOM     19  C   UNL     1      -1.163  -2.086  -0.003  0.00  0.00    +0.019 A 
ATOM     20  N   UNL     1       0.010  -2.764  -0.012  0.00  0.00    -0.325 N 
ATOM     21  C   UNL     1       1.189  -2.114  -0.015  0.00  0.00    +0.267 A 
ATOM     22  O   UNL     1       2.234  -2.742  -0.023  0.00  0.00    -0.266 OA
ATOM     23  C   UNL     1       1.211  -0.695  -0.013  0.00  0.00    +0.119 A 
ATOM     24  C   UNL     1      -2.461  -2.851  -0.001  0.00  0.00    +0.063 C 
ATOM     25  H   UNL     1      -0.000  -3.734  -0.016  0.00  0.00    +0.169 HD
BRANCH  23  26
ATOM     26  C   UNL     1       2.455   0.014  -0.021  0.00  0.00    +0.105 C 
ATOM     27  N   UNL     1       3.442   0.577  -0.028  0.00  0.00    -0.191 NA
ENDBRANCH  23  26
ENDBRANCH  15  18
ENDBRANCH   1  15
TORSDOF 5
