REMARK  Name = ZINC32802404
REMARK  7 active torsions:
REMARK  status: ('A' for Active; 'I' for Inactive)
REMARK    1  A    between atoms: C_1  and  C_2
REMARK    2  A    between atoms: C_2  and  C_4
REMARK    3  A    between atoms: C_2  and  N_13
REMARK    4  A    between atoms: N_16  and  C_17
REMARK    5  A    between atoms: C_17  and  C_19
REMARK    6  A    between atoms: C_17  and  C_26
REMARK    7  A    between atoms: N_30  and  C_31
REMARK                            x       y       z     vdW  Elec       q    Type
REMARK                         _______ _______ _______ _____ _____    ______ ____
ROOT
ATOM      1  N   UNL     1      -2.263  -0.108  -0.864  0.00  0.00    -0.293 N 
ATOM      2  C   UNL     1      -3.267  -0.816  -1.417  0.00  0.00    +0.301 C 
ATOM      3  O   UNL     1      -3.370  -2.006  -1.191  0.00  0.00    -0.253 OA
ATOM      4  N   UNL     1      -4.159  -0.204  -2.222  0.00  0.00    -0.286 N 
ATOM      5  H   UNL     1      -2.170   0.968  -1.069  0.00  0.00    +0.151 HD
ATOM      6  H   UNL     1      -4.066   0.873  -2.427  0.00  0.00    +0.151 HD
ENDROOT
BRANCH   1   8
ATOM      7  C   UNL     1      -1.846  -0.826   1.437  0.00  0.00    +0.033 C 
ATOM      8  C   UNL     1      -1.294  -0.774   0.011  0.00  0.00    +0.102 C 
BRANCH   8   9
ATOM      9  C   UNL     1       0.002  -0.004   0.002  0.00  0.00    -0.024 A 
ATOM     10  C   UNL     1      -0.017   1.378   0.010  0.00  0.00    +0.009 A 
ATOM     11  C   UNL     1       1.169   2.089   0.002  0.00  0.00    +0.050 A 
ATOM     12  C   UNL     1       2.380   1.416  -0.013  0.00  0.00    +0.166 A 
ATOM     13  C   UNL     1       2.399   0.024  -0.020  0.00  0.00    +0.167 A 
ATOM     14  C   UNL     1       1.207  -0.682  -0.013  0.00  0.00    +0.055 A 
ATOM     15  O   UNL     1       3.698  -0.395  -0.035  0.00  0.00    -0.453 OA
ATOM     16  C   UNL     1       4.467   0.750  -0.448  0.00  0.00    +0.466 C 
ATOM     17  O   UNL     1       3.668   1.870  -0.022  0.00  0.00    -0.453 OA
ENDBRANCH   8   9
ENDBRANCH   1   8
BRANCH   4  18
ATOM     18  C   UNL     1      -5.251  -0.973  -2.824  0.00  0.00    +0.171 C 
BRANCH  18  19
ATOM     19  C   UNL     1      -5.708  -0.292  -4.088  0.00  0.00    -0.017 A 
ATOM     20  C   UNL     1      -5.807   1.087  -4.133  0.00  0.00    +0.006 A 
ATOM     21  C   UNL     1      -6.222   1.713  -5.293  0.00  0.00    +0.003 A 
ATOM     22  C   UNL     1      -6.548   0.962  -6.407  0.00  0.00    +0.038 A 
ATOM     23  C   UNL     1      -6.454  -0.419  -6.361  0.00  0.00    +0.124 A 
ATOM     24  C   UNL     1      -6.034  -1.045  -5.199  0.00  0.00    +0.044 A 
ATOM     25  F   UNL     1      -6.773  -1.155  -7.448  0.00  0.00    -0.205 F 
ENDBRANCH  18  19
BRANCH  18  26
ATOM     26  C   UNL     1      -6.401  -1.056  -1.853  0.00  0.00    +0.134 A 
ATOM     27  N   UNL     1      -6.878  -0.063  -1.153  0.00  0.00    -0.238 NA
ATOM     28  C   UNL     1      -7.897  -0.503  -0.400  0.00  0.00    +0.130 A 
ATOM     29  C   UNL     1      -8.058  -1.817  -0.643  0.00  0.00    +0.106 A 
ATOM     30  N   UNL     1      -7.113  -2.167  -1.569  0.00  0.00    -0.336 N 
ATOM     31  C   UNL     1      -6.909  -3.500  -2.142  0.00  0.00    +0.150 C 
ENDBRANCH  18  26
ENDBRANCH   4  18
TORSDOF 5
