REMARK  Name = ZINC13025022
REMARK  8 active torsions:
REMARK  status: ('A' for Active; 'I' for Inactive)
REMARK    1  A    between atoms: C_3  and  C_6
REMARK    2  A    between atoms: N_8  and  C_9
REMARK    3  A    between atoms: N_8  and  C_19
REMARK    4  A    between atoms: C_9  and  C_10
REMARK    5  A    between atoms: C_19  and  C_21
REMARK    6  A    between atoms: C_19  and  C_33
REMARK    7  A    between atoms: C_24  and  N_27
REMARK    8  A    between atoms: N_35  and  C_36
REMARK                            x       y       z     vdW  Elec       q    Type
REMARK                         _______ _______ _______ _____ _____    ______ ____
ROOT
ATOM      1  C   UNL     1      -2.482   1.897   0.439  0.00  0.00    +0.193 C 
ENDROOT
BRANCH   1   2
ATOM      2  C   UNL     1      -1.603   0.807   0.998  0.00  0.00    -0.018 A 
ATOM      3  C   UNL     1      -0.356   0.577   0.448  0.00  0.00    +0.008 A 
ATOM      4  C   UNL     1       0.454  -0.417   0.962  0.00  0.00    +0.023 A 
ATOM      5  C   UNL     1       0.010  -1.192   2.026  0.00  0.00    +0.030 A 
ATOM      6  C   UNL     1      -1.246  -0.961   2.573  0.00  0.00    +0.023 A 
ATOM      7  C   UNL     1      -2.049   0.038   2.057  0.00  0.00    +0.008 A 
BRANCH   5   8
ATOM      8  N   UNL     1       0.824  -2.202   2.544  0.00  0.00    -0.326 N 
ATOM      9  C   UNL     1       1.051  -2.009   3.984  0.00  0.00    +0.133 C 
ATOM     10  C   UNL     1       1.896  -3.167   4.522  0.00  0.00    +0.178 C 
ATOM     11  O   UNL     1       3.120  -3.239   3.786  0.00  0.00    -0.377 OA
ATOM     12  C   UNL     1       2.937  -3.427   2.380  0.00  0.00    +0.178 C 
ATOM     13  C   UNL     1       2.102  -2.272   1.821  0.00  0.00    +0.133 C 
ENDBRANCH   5   8
ENDBRANCH   1   2
BRANCH   1  14
ATOM     14  C   UNL     1      -3.570   1.281  -0.403  0.00  0.00    +0.238 C 
ATOM     15  O   UNL     1      -3.288   0.714  -1.437  0.00  0.00    -0.273 OA
ATOM     16  N   UNL     1      -4.855   1.362  -0.007  0.00  0.00    -0.311 N 
ATOM     17  H   UNL     1      -5.080   1.816   0.820  0.00  0.00    +0.149 HD
BRANCH  16  18
ATOM     18  C   UNL     1      -5.913   0.764  -0.826  0.00  0.00    +0.073 C 
ATOM     19  C   UNL     1      -6.402   1.778  -1.881  0.00  0.00    +0.022 C 
ATOM     20  C   UNL     1      -7.927   1.525  -1.972  0.00  0.00    +0.002 C 
ATOM     21  C   UNL     1      -8.315   1.240  -0.500  0.00  0.00    +0.002 C 
ATOM     22  C   UNL     1      -7.130   0.422   0.052  0.00  0.00    +0.022 C 
ENDBRANCH  16  18
ENDBRANCH   1  14
BRANCH   1  25
ATOM     23  C   UNL     1      -1.014   3.825   0.183  0.00  0.00    +0.283 C 
ATOM     24  O   UNL     1      -0.321   4.556  -0.499  0.00  0.00    -0.267 OA
ATOM     25  N   UNL     1      -1.675   2.798  -0.388  0.00  0.00    -0.275 N 
BRANCH  23  28
ATOM     26  C   UNL     1      -0.834   4.846   3.683  0.00  0.00    +0.042 A 
ATOM     27  C   UNL     1      -0.404   4.961   2.352  0.00  0.00    +0.054 A 
ATOM     28  C   UNL     1      -1.126   4.057   1.627  0.00  0.00    +0.189 A 
ATOM     29  O   UNL     1      -1.963   3.418   2.470  0.00  0.00    -0.458 OA
ATOM     30  C   UNL     1      -1.786   3.887   3.712  0.00  0.00    +0.196 A 
ENDBRANCH  23  28
BRANCH  25  31
ATOM     31  C   UNL     1      -1.588   2.584  -1.834  0.00  0.00    +0.144 C 
BRANCH  31  32
ATOM     32  C   UNL     1      -0.514   1.568  -2.127  0.00  0.00    -0.026 A 
ATOM     33  C   UNL     1       0.816   1.894  -1.931  0.00  0.00    +0.009 A 
ATOM     34  C   UNL     1       1.804   0.964  -2.193  0.00  0.00    +0.050 A 
ATOM     35  C   UNL     1       1.465  -0.294  -2.666  0.00  0.00    +0.166 A 
ATOM     36  C   UNL     1       0.127  -0.620  -2.869  0.00  0.00    +0.167 A 
ATOM     37  C   UNL     1      -0.859   0.315  -2.598  0.00  0.00    +0.054 A 
ATOM     38  O   UNL     1       0.056  -1.902  -3.332  0.00  0.00    -0.453 OA
ATOM     39  C   UNL     1       1.381  -2.216  -3.798  0.00  0.00    +0.466 C 
ATOM     40  O   UNL     1       2.233  -1.371  -3.002  0.00  0.00    -0.453 OA
ENDBRANCH  31  32
ENDBRANCH  25  31
ENDBRANCH   1  25
TORSDOF 8
