REMARK  Name = ZINC04711874
REMARK  6 active torsions:
REMARK  status: ('A' for Active; 'I' for Inactive)
REMARK    1  A    between atoms: C_1  and  C_2
REMARK    2  A    between atoms: C_5  and  N_9
REMARK    3  A    between atoms: C_7  and  C_8
REMARK    4  A    between atoms: C_15  and  C_16
REMARK    5  A    between atoms: N_20  and  C_21
REMARK    6  A    between atoms: C_24  and  C_27
REMARK                            x       y       z     vdW  Elec       q    Type
REMARK                         _______ _______ _______ _____ _____    ______ ____
ROOT
ATOM      1  N   UNL     1      -0.754  -4.028   0.692  0.00  0.00    -0.226 NA
ATOM      2  C   UNL     1      -1.538  -4.701  -0.121  0.00  0.00    +0.166 C 
ATOM      3  N   UNL     1      -1.816  -6.050  -0.123  0.00  0.00    -0.260 N 
ATOM      4  C   UNL     1      -2.636  -6.567  -1.021  0.00  0.00    +0.256 C 
ATOM      5  O   UNL     1      -2.893  -7.758  -1.037  0.00  0.00    -0.269 OA
ATOM      6  C   UNL     1      -3.227  -5.642  -2.001  0.00  0.00    +0.079 C 
ATOM      7  C   UNL     1      -4.092  -5.901  -3.022  0.00  0.00    +0.046 C 
ATOM      8  S   UNL     1      -2.510  -4.088  -1.488  0.00  0.00    -0.049 S 
ATOM      9  H   UNL     1      -1.405  -6.626   0.541  0.00  0.00    +0.157 HD
ENDROOT
BRANCH   1  14
ATOM     10  C   UNL     1      -0.395   1.589   0.259  0.00  0.00    +0.044 C 
ATOM     11  C   UNL     1      -0.490   0.089   0.375  0.00  0.00    -0.047 A 
ATOM     12  C   UNL     1      -0.293  -0.702  -0.744  0.00  0.00    +0.006 A 
ATOM     13  C   UNL     1      -0.380  -2.074  -0.645  0.00  0.00    +0.028 A 
ATOM     14  C   UNL     1      -0.666  -2.667   0.587  0.00  0.00    +0.067 A 
ATOM     15  C   UNL     1      -0.863  -1.862   1.712  0.00  0.00    +0.031 A 
ATOM     16  C   UNL     1      -0.769  -0.490   1.600  0.00  0.00    -0.046 A 
ATOM     17  C   UNL     1      -0.975   0.379   2.813  0.00  0.00    +0.044 C 
ENDBRANCH   1  14
BRANCH   7  18
ATOM     18  C   UNL     1      -4.447  -4.872  -3.925  0.00  0.00    +0.048 A 
ATOM     19  C   UNL     1      -4.078  -3.541  -3.837  0.00  0.00    +0.027 A 
ATOM     20  C   UNL     1      -4.647  -2.881  -4.932  0.00  0.00    +0.020 A 
ATOM     21  C   UNL     1      -5.338  -3.793  -5.656  0.00  0.00    +0.092 A 
ATOM     22  N   UNL     1      -5.221  -5.012  -5.059  0.00  0.00    -0.316 N 
BRANCH  22  23
ATOM     23  C   UNL     1      -5.791  -6.201  -5.515  0.00  0.00    +0.047 A 
ATOM     24  C   UNL     1      -4.985  -7.311  -5.751  0.00  0.00    +0.027 A 
ATOM     25  C   UNL     1      -5.543  -8.486  -6.201  0.00  0.00    +0.017 A 
ATOM     26  C   UNL     1      -6.922  -8.564  -6.421  0.00  0.00    +0.063 A 
ATOM     27  C   UNL     1      -7.729  -7.446  -6.183  0.00  0.00    +0.017 A 
ATOM     28  C   UNL     1      -7.164  -6.276  -5.727  0.00  0.00    +0.027 A 
BRANCH  26  29
ATOM     29  C   UNL     1      -7.524  -9.819  -6.903  0.00  0.00    +0.387 C 
ATOM     30  O   UNL     1      -6.833 -10.822  -7.021  0.00  0.00    -0.241 OA
ATOM     31  O   UNL     1      -8.713  -9.858  -7.185  0.00  0.00    -0.241 OA
ENDBRANCH  26  29
ENDBRANCH  22  23
ENDBRANCH   7  18
TORSDOF 4
