REMARK  Name = ZINC63083943
REMARK  9 active torsions:
REMARK  status: ('A' for Active; 'I' for Inactive)
REMARK    1  A    between atoms: C_1  and  C_2
REMARK    2  A    between atoms: N_10  and  C_14
REMARK    3  A    between atoms: C_14  and  C_15
REMARK    4  A    between atoms: N_17  and  C_18
REMARK    5  A    between atoms: C_18  and  C_19
REMARK    6  A    between atoms: C_19  and  C_21
REMARK    7  A    between atoms: C_19  and  C_29
REMARK    8  A    between atoms: C_24  and  O_27
REMARK    9  A    between atoms: O_27  and  C_28
REMARK                            x       y       z     vdW  Elec       q    Type
REMARK                         _______ _______ _______ _____ _____    ______ ____
ROOT
ATOM      1  C   UNL     1       4.112  -7.889  -3.129  0.00  0.00    +0.116 C 
ENDROOT
BRANCH   1   4
ATOM      2  C   UNL     1       3.488  -6.201  -1.487  0.00  0.00    +0.231 C 
ATOM      3  O   UNL     1       3.200  -5.459  -2.403  0.00  0.00    -0.274 OA
ATOM      4  N   UNL     1       3.954  -7.439  -1.744  0.00  0.00    -0.313 N 
ATOM      5  H   UNL     1       4.185  -8.032  -1.012  0.00  0.00    +0.149 HD
BRANCH   2   6
ATOM      6  C   UNL     1       3.325  -5.738  -0.062  0.00  0.00    +0.213 C 
BRANCH   6  16
ATOM      7  C   UNL     1      -0.019   1.526   0.010  0.00  0.00    +0.007 C 
ATOM      8  C   UNL     1       0.002  -0.004   0.002  0.00  0.00    -0.014 C 
ATOM      9  C   UNL     1       0.716  -0.497  -1.258  0.00  0.00    +0.006 C 
ATOM     10  C   UNL     1       0.727  -2.028  -1.271  0.00  0.00    +0.035 C 
ATOM     11  C   UNL     1       1.442  -2.543  -0.027  0.00  0.00    +0.113 C 
ATOM     12  C   UNL     1       0.753  -2.041   1.238  0.00  0.00    +0.035 C 
ATOM     13  C   UNL     1       0.742  -0.510   1.242  0.00  0.00    +0.006 C 
ATOM     14  C   UNL     1       1.495  -4.053  -0.035  0.00  0.00    +0.247 C 
ATOM     15  O   UNL     1       0.556  -4.821  -0.030  0.00  0.00    -0.273 OA
ATOM     16  N   UNL     1       2.807  -4.367  -0.051  0.00  0.00    -0.215 N 
ATOM     17  C   UNL     1       3.576  -3.272  -0.053  0.00  0.00    +0.310 C 
ATOM     18  O   UNL     1       4.791  -3.300  -0.065  0.00  0.00    -0.252 OA
ATOM     19  N   UNL     1       2.853  -2.136  -0.039  0.00  0.00    -0.285 N 
ATOM     20  H   UNL     1       3.196  -1.229  -0.038  0.00  0.00    +0.151 HD
ENDBRANCH   6  16
ENDBRANCH   2   6
ENDBRANCH   1   4
BRANCH   1  21
ATOM     21  C   UNL     1       4.654  -9.320  -3.142  0.00  0.00    +0.064 C 
BRANCH  21  22
ATOM     22  C   UNL     1       3.634 -10.248  -2.535  0.00  0.00    -0.033 C 
ATOM     23  C   UNL     1       3.792 -11.028  -1.441  0.00  0.00    -0.000 A 
ATOM     24  C   UNL     1       4.919 -11.237  -0.524  0.00  0.00    +0.010 A 
ATOM     25  C   UNL     1       4.776 -12.102   0.505  0.00  0.00    +0.001 A 
ATOM     26  C   UNL     1       3.580 -12.803   0.718  0.00  0.00    +0.002 A 
ATOM     27  C   UNL     1       2.501 -12.663  -0.081  0.00  0.00    +0.026 A 
ATOM     28  C   UNL     1       2.541 -11.779  -1.194  0.00  0.00    +0.043 A 
ATOM     29  N   UNL     1       1.643 -11.476  -2.100  0.00  0.00    -0.380 N 
ATOM     30  C   UNL     1       2.223 -10.492  -3.022  0.00  0.00    +0.145 C 
ATOM     31  H   UNL     1       0.745 -11.838  -2.151  0.00  0.00    +0.160 HD
ENDBRANCH  21  22
BRANCH  21  32
ATOM     32  C   UNL     1       4.933  -9.739  -4.562  0.00  0.00    -0.038 A 
ATOM     33  C   UNL     1       3.908  -9.756  -5.491  0.00  0.00    +0.008 A 
ATOM     34  C   UNL     1       4.161 -10.140  -6.793  0.00  0.00    +0.046 A 
ATOM     35  C   UNL     1       5.444 -10.510  -7.170  0.00  0.00    +0.120 A 
ATOM     36  C   UNL     1       6.470 -10.492  -6.236  0.00  0.00    +0.046 A 
ATOM     37  C   UNL     1       6.213 -10.101  -4.936  0.00  0.00    +0.008 A 
BRANCH  35  38
ATOM     38  O   UNL     1       5.695 -10.889  -8.450  0.00  0.00    -0.495 OA
ATOM     39  C   UNL     1       7.039 -11.255  -8.767  0.00  0.00    +0.277 C 
ENDBRANCH  35  38
ENDBRANCH  21  32
ENDBRANCH   1  21
TORSDOF 7
