REMARK  Name = ZINC21601297
REMARK  7 active torsions:
REMARK  status: ('A' for Active; 'I' for Inactive)
REMARK    1  A    between atoms: C_1  and  C_2
REMARK    2  A    between atoms: N_4  and  C_5
REMARK    3  A    between atoms: C_14  and  C_17
REMARK    4  A    between atoms: C_18  and  C_19
REMARK    5  A    between atoms: N_21  and  C_22
REMARK    6  A    between atoms: N_26  and  C_27
REMARK    7  A    between atoms: C_27  and  C_28
REMARK                            x       y       z     vdW  Elec       q    Type
REMARK                         _______ _______ _______ _____ _____    ______ ____
ROOT
ATOM      1  C   UNL     1      -2.457   1.424   0.019  0.00  0.00    +0.033 C 
ATOM      2  C   UNL     1      -3.503   2.283   0.028  0.00  0.00    +0.070 C 
ENDROOT
BRANCH   1   9
ATOM      3  C   UNL     1       0.353   7.489   0.038  0.00  0.00    +0.110 C 
ATOM      4  C   UNL     1      -0.107   6.054   0.035  0.00  0.00    +0.223 C 
ATOM      5  O   UNL     1      -1.293   5.797   0.045  0.00  0.00    -0.275 OA
ATOM      6  N   UNL     1       0.798   5.055   0.021  0.00  0.00    -0.216 N 
ATOM      7  C   UNL     1       0.373   3.732   0.019  0.00  0.00    +0.172 A 
ATOM      8  N   UNL     1      -0.854   3.253   0.028  0.00  0.00    -0.225 NA
ATOM      9  C   UNL     1      -1.085   1.940   0.017  0.00  0.00    +0.073 A 
ATOM     10  C   UNL     1      -0.013   1.076   0.008  0.00  0.00    +0.076 A 
ATOM     11  S   UNL     1       1.349   2.235   0.001  0.00  0.00    -0.059 S 
BRANCH   6  12
ATOM     12  C   UNL     1       2.168   5.352   0.010  0.00  0.00    +0.078 A 
ATOM     13  C   UNL     1       2.837   5.505  -1.197  0.00  0.00    +0.027 A 
ATOM     14  C   UNL     1       4.187   5.797  -1.205  0.00  0.00    +0.002 A 
ATOM     15  C   UNL     1       4.873   5.938  -0.013  0.00  0.00    +0.003 A 
ATOM     16  C   UNL     1       4.212   5.787   1.191  0.00  0.00    +0.040 A 
ATOM     17  C   UNL     1       2.859   5.498   1.207  0.00  0.00    +0.145 A 
ATOM     18  F   UNL     1       2.212   5.356   2.384  0.00  0.00    -0.204 F 
ENDBRANCH   6  12
ENDBRANCH   1   9
BRANCH   2  19
ATOM     19  C   UNL     1      -4.828   1.785   0.030  0.00  0.00    +0.242 C 
ATOM     20  O   UNL     1      -5.027   0.583   0.024  0.00  0.00    -0.270 OA
ATOM     21  N   UNL     1      -5.870   2.640   0.039  0.00  0.00    -0.267 N 
ATOM     22  H   UNL     1      -5.690   3.726   0.044  0.00  0.00    +0.157 HD
BRANCH  21  23
ATOM     23  C   UNL     1      -7.174   2.150   0.041  0.00  0.00    +0.124 A 
ATOM     24  C   UNL     1      -7.542   0.839   0.029  0.00  0.00    +0.065 A 
ATOM     25  C   UNL     1      -8.938   0.786   0.040  0.00  0.00    +0.136 A 
ATOM     26  N   UNL     1      -9.399   2.010   0.049  0.00  0.00    -0.178 NA
ATOM     27  N   UNL     1      -8.311   2.893   0.049  0.00  0.00    -0.246 N 
BRANCH  27  28
ATOM     28  C   UNL     1      -8.386   4.356   0.058  0.00  0.00    +0.180 C 
BRANCH  28  29
ATOM     29  C   UNL     1      -8.418   4.866  -1.360  0.00  0.00    -0.026 A 
ATOM     30  C   UNL     1      -7.236   5.167  -2.012  0.00  0.00    +0.007 A 
ATOM     31  C   UNL     1      -7.264   5.629  -3.314  0.00  0.00    +0.020 A 
ATOM     32  C   UNL     1      -8.474   5.801  -3.961  0.00  0.00    +0.041 A 
ATOM     33  C   UNL     1      -9.656   5.505  -3.306  0.00  0.00    +0.020 A 
ATOM     34  C   UNL     1      -9.627   5.038  -2.006  0.00  0.00    +0.007 A 
ATOM     35 CL   UNL     1      -8.510   6.388  -5.595  0.00  0.00    -0.084 Cl
ENDBRANCH  28  29
ENDBRANCH  27  28
ENDBRANCH  21  23
ENDBRANCH   2  19
TORSDOF 6
