REMARK  Name = ZINC66561009
REMARK  8 active torsions:
REMARK  status: ('A' for Active; 'I' for Inactive)
REMARK    1  A    between atoms: C_1  and  C_2
REMARK    2  A    between atoms: C_5  and  N_9
REMARK    3  A    between atoms: C_6  and  C_8
REMARK    4  A    between atoms: C_13  and  C_15
REMARK    5  A    between atoms: C_15  and  N_16
REMARK    6  A    between atoms: N_16  and  C_17
REMARK    7  A    between atoms: N_16  and  C_20
REMARK    8  A    between atoms: C_17  and  C_18
REMARK                            x       y       z     vdW  Elec       q    Type
REMARK                         _______ _______ _______ _____ _____    ______ ____
ROOT
ATOM      1  N   UNL     1      -0.253  -4.668   0.387  0.00  0.00    -0.269 N 
ATOM      2  C   UNL     1      -0.296  -5.211  -0.845  0.00  0.00    +0.310 C 
ATOM      3  O   UNL     1      -0.297  -4.493  -1.826  0.00  0.00    -0.252 OA
ATOM      4  N   UNL     1      -0.339  -6.550  -0.990  0.00  0.00    -0.241 N 
ATOM      5  C   UNL     1      -0.382  -7.093  -2.223  0.00  0.00    +0.204 C 
ATOM      6  O   UNL     1      -0.382  -6.377  -3.201  0.00  0.00    -0.277 OA
ATOM      7  H   UNL     1      -0.181  -5.240   1.167  0.00  0.00    +0.156 HD
ATOM      8  H   UNL     1      -0.338  -7.123  -0.208  0.00  0.00    +0.159 HD
ENDROOT
BRANCH   1  13
ATOM      9  C   UNL     1      -0.499   0.965   1.014  0.00  0.00    +0.044 C 
ATOM     10  C   UNL     1      -0.434  -0.531   0.848  0.00  0.00    -0.050 A 
ATOM     11  C   UNL     1       0.206  -1.076  -0.251  0.00  0.00    +0.005 A 
ATOM     12  C   UNL     1       0.267  -2.447  -0.406  0.00  0.00    +0.024 A 
ATOM     13  C   UNL     1      -0.314  -3.278   0.542  0.00  0.00    +0.038 A 
ATOM     14  C   UNL     1      -0.955  -2.728   1.644  0.00  0.00    -0.029 A 
ATOM     15  C   UNL     1      -1.009  -1.356   1.796  0.00  0.00    +0.008 A 
ATOM     16  C   UNL     1      -1.587  -3.627   2.676  0.00  0.00    +0.045 C 
ENDBRANCH   1  13
BRANCH   5  17
ATOM     17  C   UNL     1      -0.429  -8.591  -2.385  0.00  0.00    +0.020 C 
BRANCH  17  18
ATOM     18  N   UNL     1      -0.470  -8.928  -3.815  0.00  0.00    +0.391 N 
ATOM     19  H   UNL     1      -1.246  -8.451  -4.250  0.00  0.00    -0.080 HD
BRANCH  18  20
ATOM     20  C   UNL     1      -0.637 -10.379  -3.971  0.00  0.00    -0.045 C 
ATOM     21  C   UNL     1      -0.818 -10.723  -5.459  0.00  0.00    +0.009 C 
ATOM     22  C   UNL     1      -1.309 -12.183  -5.607  0.00  0.00    +0.164 C 
ATOM     23  S   UNL     1      -2.223 -12.463  -4.035  0.00  0.00    -0.033 S 
ATOM     24  O   UNL     1      -1.574 -13.492  -3.301  0.00  0.00    -0.174 OA
ATOM     25  O   UNL     1      -3.610 -12.575  -4.321  0.00  0.00    -0.174 OA
ATOM     26  C   UNL     1      -1.909 -10.847  -3.208  0.00  0.00    +0.151 C 
ENDBRANCH  18  20
BRANCH  18  27
ATOM     27  C   UNL     1       0.784  -8.507  -4.453  0.00  0.00    -0.051 C 
BRANCH  27  28
ATOM     28  C   UNL     1       1.929  -9.304  -3.884  0.00  0.00    -0.053 C 
ATOM     29  C   UNL     1       2.722  -9.975  -4.684  0.00  0.00    +0.002 C 
ENDBRANCH  27  28
ENDBRANCH  18  27
ENDBRANCH  17  18
ENDBRANCH   5  17
TORSDOF 6
