REMARK  Name = ZINC38600283
REMARK  4 active torsions:
REMARK  status: ('A' for Active; 'I' for Inactive)
REMARK    1  A    between atoms: C_1  and  C_2
REMARK    2  A    between atoms: N_13  and  N_14
REMARK    3  A    between atoms: C_15  and  C_16
REMARK    4  A    between atoms: C_21  and  C_22
REMARK                            x       y       z     vdW  Elec       q    Type
REMARK                         _______ _______ _______ _____ _____    ______ ____
ROOT
ATOM      1  C   UNL     1      -0.438  -1.865   2.814  0.00  0.00    +0.051 C 
ATOM      2  C   UNL     1       0.068  -0.456   2.498  0.00  0.00    +0.181 C 
ATOM      3  N   UNL     1      -1.065   0.478   2.494  0.00  0.00    -0.324 N 
ATOM      4  C   UNL     1      -1.925   0.475   1.402  0.00  0.00    +0.041 A 
ATOM      5  C   UNL     1      -3.261   0.815   1.520  0.00  0.00    +0.024 A 
ATOM      6  C   UNL     1      -4.074   0.791   0.403  0.00  0.00    +0.002 A 
ATOM      7  C   UNL     1      -3.562   0.429  -0.833  0.00  0.00    +0.001 A 
ATOM      8  C   UNL     1      -2.232   0.091  -0.969  0.00  0.00    +0.015 A 
ATOM      9  C   UNL     1      -1.401   0.113   0.148  0.00  0.00    +0.059 A 
ATOM     10  C   UNL     1       0.030  -0.229   0.058  0.00  0.00    +0.269 C 
ATOM     11  O   UNL     1       0.578  -0.302  -1.026  0.00  0.00    -0.268 OA
ATOM     12  N   UNL     1       0.722  -0.460   1.189  0.00  0.00    -0.169 N 
ATOM     13  H   UNL     1      -1.210   1.083   3.238  0.00  0.00    +0.148 HD
ENDROOT
BRANCH  12  14
ATOM     14  N   UNL     1       2.098  -0.709   1.109  0.00  0.00    -0.187 NA
ATOM     15  C   UNL     1       2.751  -1.037   2.159  0.00  0.00    +0.119 C 
BRANCH  15  16
ATOM     16  C   UNL     1       4.252  -1.168   2.104  0.00  0.00    +0.125 C 
ATOM     17  C   UNL     1       4.905  -0.268   3.133  0.00  0.00    +0.123 C 
ATOM     18  N   UNL     1       5.551  -1.050   3.936  0.00  0.00    -0.161 NA
ATOM     19  N   UNL     1       5.425  -2.391   3.588  0.00  0.00    -0.153 NA
ATOM     20  C   UNL     1       4.683  -2.559   2.524  0.00  0.00    +0.084 C 
BRANCH  20  21
ATOM     21  C   UNL     1       4.336  -3.831   1.871  0.00  0.00    -0.001 A 
ATOM     22  C   UNL     1       3.528  -3.838   0.730  0.00  0.00    +0.010 A 
ATOM     23  C   UNL     1       3.207  -5.035   0.124  0.00  0.00    +0.001 A 
ATOM     24  C   UNL     1       3.682  -6.226   0.643  0.00  0.00    +0.000 A 
ATOM     25  C   UNL     1       4.482  -6.228   1.772  0.00  0.00    +0.001 A 
ATOM     26  C   UNL     1       4.817  -5.039   2.386  0.00  0.00    +0.010 A 
ENDBRANCH  20  21
ENDBRANCH  15  16
ENDBRANCH  12  14
TORSDOF 3
