REMARK  Name = ZINC22021941
REMARK  8 active torsions:
REMARK  status: ('A' for Active; 'I' for Inactive)
REMARK    1  A    between atoms: C_1  and  C_2
REMARK    2  A    between atoms: C_6  and  N_9
REMARK    3  A    between atoms: C_7  and  C_8
REMARK    4  A    between atoms: C_22  and  S_23
REMARK    5  A    between atoms: S_23  and  C_24
REMARK    6  A    between atoms: C_24  and  C_26
REMARK    7  A    between atoms: C_24  and  C_27
REMARK    8  A    between atoms: C_32  and  C_35
REMARK                            x       y       z     vdW  Elec       q    Type
REMARK                         _______ _______ _______ _____ _____    ______ ____
ROOT
ATOM      1  N   UNL     1       1.830 -10.230   1.216  0.00  0.00    -0.245 N 
ATOM      2  C   UNL     1       0.645 -10.711   1.645  0.00  0.00    +0.268 A 
ATOM      3  O   UNL     1       0.521 -11.889   1.924  0.00  0.00    -0.267 OA
ATOM      4  C   UNL     1      -0.497  -9.788   1.772  0.00  0.00    +0.064 A 
ATOM      5  C   UNL     1      -1.743 -10.235   2.211  0.00  0.00    +0.015 A 
ATOM      6  C   UNL     1      -2.788  -9.342   2.316  0.00  0.00    +0.001 A 
ATOM      7  C   UNL     1      -2.606  -8.008   1.989  0.00  0.00    +0.002 A 
ATOM      8  C   UNL     1      -1.377  -7.553   1.553  0.00  0.00    +0.027 A 
ATOM      9  C   UNL     1      -0.314  -8.436   1.440  0.00  0.00    +0.064 A 
ATOM     10  N   UNL     1       0.935  -8.010   1.005  0.00  0.00    -0.255 N 
ATOM     11  C   UNL     1       1.980  -8.889   0.896  0.00  0.00    +0.245 A 
ATOM     12  N   UNL     1       3.012  -8.202   0.467  0.00  0.00    -0.109 NA
ATOM     13  N   UNL     1       2.684  -6.971   0.297  0.00  0.00    -0.120 NA
ATOM     14  C   UNL     1       1.425  -6.792   0.616  0.00  0.00    +0.198 A 
ENDROOT
BRANCH   1  20
ATOM     15  C   UNL     1       4.476 -13.338  -1.525  0.00  0.00    +0.044 C 
ATOM     16  C   UNL     1       4.229 -12.615  -0.226  0.00  0.00    -0.046 A 
ATOM     17  C   UNL     1       5.082 -12.807   0.845  0.00  0.00    +0.004 A 
ATOM     18  C   UNL     1       4.859 -12.146   2.038  0.00  0.00    +0.002 A 
ATOM     19  C   UNL     1       3.784 -11.287   2.163  0.00  0.00    +0.026 A 
ATOM     20  C   UNL     1       2.922 -11.096   1.091  0.00  0.00    +0.056 A 
ATOM     21  C   UNL     1       3.150 -11.762  -0.107  0.00  0.00    -0.024 A 
ATOM     22  C   UNL     1       2.220 -11.553  -1.274  0.00  0.00    +0.046 C 
ENDBRANCH   1  20
BRANCH  14  23
ATOM     23  S   UNL     1       0.532  -5.275   0.550  0.00  0.00    -0.073 S 
BRANCH  23  24
ATOM     24  C   UNL     1       1.754  -4.071  -0.039  0.00  0.00    +0.137 C 
ATOM     25  C   UNL     1       2.175  -4.429  -1.466  0.00  0.00    +0.029 C 
BRANCH  24  26
ATOM     26  C   UNL     1       1.148  -2.691  -0.025  0.00  0.00    +0.231 C 
ATOM     27  O   UNL     1      -0.057  -2.559  -0.013  0.00  0.00    -0.274 OA
ATOM     28  N   UNL     1       1.946  -1.605  -0.026  0.00  0.00    -0.267 N 
ATOM     29  C   UNL     1       1.385  -0.328  -0.013  0.00  0.00    +0.168 A 
ATOM     30  C   UNL     1       0.002  -0.004   0.002  0.00  0.00    +0.091 A 
ATOM     31  C   UNL     1      -0.016   1.348   0.009  0.00  0.00    +0.136 A 
ATOM     32  O   UNL     1       1.263   1.749  -0.001  0.00  0.00    -0.358 OA
ATOM     33  N   UNL     1       2.026   0.811  -0.013  0.00  0.00    -0.063 NA
ATOM     34  C   UNL     1      -1.237   2.232   0.020  0.00  0.00    +0.089 C 
ATOM     35  H   UNL     1       3.039  -1.725  -0.037  0.00  0.00    +0.156 HD
ENDBRANCH  24  26
ENDBRANCH  23  24
ENDBRANCH  14  23
TORSDOF 4
