REMARK  Name = ZINC13125492
REMARK  12 active torsions:
REMARK  status: ('A' for Active; 'I' for Inactive)
REMARK    1  A    between atoms: C_1  and  C_2
REMARK    2  A    between atoms: C_5  and  C_10
REMARK    3  A    between atoms: C_6  and  O_9
REMARK    4  A    between atoms: C_7  and  C_8
REMARK    5  A    between atoms: C_12  and  C_16
REMARK    6  A    between atoms: N_18  and  C_19
REMARK    7  A    between atoms: C_19  and  C_20
REMARK    8  A    between atoms: C_20  and  C_21
REMARK    9  A    between atoms: C_24  and  O_29
REMARK   10  A    between atoms: C_25  and  O_27
REMARK   11  A    between atoms: O_27  and  C_28
REMARK   12  A    between atoms: O_29  and  C_30
REMARK                            x       y       z     vdW  Elec       q    Type
REMARK                         _______ _______ _______ _____ _____    ______ ____
ROOT
ATOM      1  C   UNL     1       0.059  -4.260  -0.033  0.00  0.00    +0.097 A 
ATOM      2  C   UNL     1       0.070  -5.081  -1.175  0.00  0.00    +0.062 A 
ATOM      3  C   UNL     1       0.088  -6.376  -0.693  0.00  0.00    +0.121 A 
ATOM      4  N   UNL     1       0.087  -6.281   0.671  0.00  0.00    -0.272 N 
ATOM      5  H   UNL     1       0.098  -7.035   1.282  0.00  0.00    +0.189 HD
ATOM      6  N   UNL     1       0.075  -5.046   1.023  0.00  0.00    -0.173 NA
ENDROOT
BRANCH   1  11
ATOM      7  C   UNL     1      -0.018   1.503   0.010  0.00  0.00    +0.044 C 
ATOM      8  C   UNL     1       0.002  -0.004   0.002  0.00  0.00    -0.044 A 
ATOM      9  C   UNL     1       0.006  -0.686  -1.202  0.00  0.00    +0.004 A 
ATOM     10  C   UNL     1       0.024  -2.066  -1.219  0.00  0.00    +0.014 A 
ATOM     11  C   UNL     1       0.040  -2.776  -0.020  0.00  0.00    +0.044 A 
ATOM     12  C   UNL     1       0.036  -2.084   1.194  0.00  0.00    +0.129 A 
ATOM     13  C   UNL     1       0.023  -0.698   1.197  0.00  0.00    -0.005 A 
ATOM     14  C   UNL     1       0.025   0.052   2.504  0.00  0.00    +0.048 C 
BRANCH  12  15
ATOM     15  O   UNL     1       0.051  -2.768   2.368  0.00  0.00    -0.506 OA
ATOM     16  H   UNL     1       0.938  -2.954   2.704  0.00  0.00    +0.292 HD
ENDBRANCH  12  15
ENDBRANCH   1  11
BRANCH   3  17
ATOM     17  C   UNL     1       0.104  -7.613  -1.490  0.00  0.00    +0.262 C 
ATOM     18  O   UNL     1       0.102  -7.554  -2.705  0.00  0.00    -0.269 OA
ATOM     19  N   UNL     1       0.120  -8.812  -0.874  0.00  0.00    -0.310 N 
ATOM     20  H   UNL     1       0.121  -8.859   0.095  0.00  0.00    +0.149 HD
BRANCH  19  21
ATOM     21  C   UNL     1       0.136 -10.043  -1.667  0.00  0.00    +0.109 C 
BRANCH  21  22
ATOM     22  C   UNL     1       0.153 -11.253  -0.731  0.00  0.00    +0.054 C 
BRANCH  22  23
ATOM     23  C   UNL     1       0.169 -12.520  -1.547  0.00  0.00    -0.042 A 
ATOM     24  C   UNL     1      -1.022 -13.112  -1.925  0.00  0.00    +0.007 A 
ATOM     25  C   UNL     1      -1.012 -14.274  -2.673  0.00  0.00    +0.049 A 
ATOM     26  C   UNL     1       0.193 -14.847  -3.048  0.00  0.00    +0.161 A 
ATOM     27  C   UNL     1       1.391 -14.251  -2.668  0.00  0.00    +0.162 A 
ATOM     28  C   UNL     1       1.374 -13.083  -1.921  0.00  0.00    +0.053 A 
BRANCH  27  29
ATOM     29  O   UNL     1       2.576 -14.809  -3.033  0.00  0.00    -0.491 OA
ATOM     30  C   UNL     1       3.766 -14.142  -2.607  0.00  0.00    +0.277 C 
ENDBRANCH  27  29
BRANCH  26  31
ATOM     31  O   UNL     1       0.204 -15.991  -3.784  0.00  0.00    -0.491 OA
ATOM     32  C   UNL     1      -1.064 -16.547  -4.137  0.00  0.00    +0.277 C 
ENDBRANCH  26  31
ENDBRANCH  22  23
ENDBRANCH  21  22
ENDBRANCH  19  21
ENDBRANCH   3  17
TORSDOF 8
