REMARK  Name = ZINC02841858
REMARK  3 active torsions:
REMARK  status: ('A' for Active; 'I' for Inactive)
REMARK    1  A    between atoms: C_5  and  S_16
REMARK    2  A    between atoms: S_16  and  N_19
REMARK    3  A    between atoms: N_19  and  C_20
REMARK                            x       y       z     vdW  Elec       q    Type
REMARK                         _______ _______ _______ _____ _____    ______ ____
ROOT
ATOM      1  C   UNL     1       7.785  -3.507   2.244  0.00  0.00    +0.001 A 
ATOM      2  C   UNL     1       6.544  -3.844   1.783  0.00  0.00    +0.008 A 
ATOM      3  C   UNL     1       5.853  -2.973   0.923  0.00  0.00    -0.015 A 
ATOM      4  C   UNL     1       4.574  -3.274   0.422  0.00  0.00    +0.037 A 
ATOM      5  C   UNL     1       3.943  -2.396  -0.411  0.00  0.00    +0.110 A 
ATOM      6  C   UNL     1       4.535  -1.197  -0.790  0.00  0.00    +0.042 A 
ATOM      7  C   UNL     1       5.794  -0.861  -0.315  0.00  0.00    +0.047 A 
ATOM      8  C   UNL     1       6.463  -1.757   0.550  0.00  0.00    +0.006 A 
ATOM      9  C   UNL     1       7.747  -1.425   1.036  0.00  0.00    +0.046 A 
ATOM     10  C   UNL     1       8.396  -2.312   1.884  0.00  0.00    +0.014 A 
ATOM     11  C   UNL     1       8.350  -0.149   0.626  0.00  0.00    +0.251 C 
ATOM     12  O   UNL     1       9.455   0.157   1.032  0.00  0.00    -0.270 OA
ATOM     13  N   UNL     1       7.686   0.684  -0.198  0.00  0.00    -0.248 N 
ATOM     14  C   UNL     1       6.461   0.398  -0.680  0.00  0.00    +0.251 C 
ATOM     15  O   UNL     1       5.904   1.184  -1.422  0.00  0.00    -0.270 OA
ATOM     16  H   UNL     1       8.105   1.520  -0.455  0.00  0.00    +0.158 HD
ENDROOT
BRANCH   5  17
ATOM     17  S   UNL     1       2.341  -2.795  -1.026  0.00  0.00    +0.072 S 
ATOM     18  O   UNL     1       2.181  -4.198  -0.863  0.00  0.00    -0.150 OA
ATOM     19  O   UNL     1       2.220  -2.156  -2.290  0.00  0.00    -0.150 OA
BRANCH  17  20
ATOM     20  N   UNL     1       1.238  -2.074  -0.024  0.00  0.00    -0.216 N 
ATOM     21  H   UNL     1       0.629  -1.405  -0.374  0.00  0.00    +0.174 HD
BRANCH  20  22
ATOM     22  C   UNL     1       1.183  -2.429   1.326  0.00  0.00    +0.048 A 
ATOM     23  C   UNL     1       1.111  -1.444   2.303  0.00  0.00    +0.025 A 
ATOM     24  C   UNL     1       1.058  -1.799   3.637  0.00  0.00    +0.016 A 
ATOM     25  C   UNL     1       1.077  -3.133   4.000  0.00  0.00    +0.013 A 
ATOM     26  C   UNL     1       1.149  -4.117   3.030  0.00  0.00    +0.016 A 
ATOM     27  C   UNL     1       1.202  -3.769   1.695  0.00  0.00    +0.025 A 
ATOM     28  I   UNL     1       0.996  -3.666   6.025  0.00  0.00    -0.044 I 
ENDBRANCH  20  22
ENDBRANCH  17  20
ENDBRANCH   5  17
TORSDOF 3
