REMARK  Name = ZINC45599244
REMARK  10 active torsions:
REMARK  status: ('A' for Active; 'I' for Inactive)
REMARK    1  A    between atoms: C_1  and  C_2
REMARK    2  A    between atoms: C_5  and  N_9
REMARK    3  A    between atoms: C_7  and  C_8
REMARK    4  A    between atoms: C_10  and  C_28
REMARK    5  A    between atoms: C_13  and  S_14
REMARK    6  A    between atoms: S_14  and  C_15
REMARK    7  A    between atoms: C_15  and  C_17
REMARK    8  A    between atoms: C_15  and  C_18
REMARK    9  A    between atoms: N_24  and  C_25
REMARK   10  A    between atoms: N_24  and  C_26
REMARK                            x       y       z     vdW  Elec       q    Type
REMARK                         _______ _______ _______ _____ _____    ______ ____
ROOT
ATOM      1  N   UNL     1       0.057  -4.172  -0.021  0.00  0.00    -0.270 N 
ATOM      2  C   UNL     1      -0.927  -5.016  -0.489  0.00  0.00    +0.169 A 
ATOM      3  N   UNL     1      -0.500  -6.244  -0.305  0.00  0.00    -0.128 NA
ATOM      4  N   UNL     1       0.664  -6.228   0.237  0.00  0.00    -0.122 NA
ATOM      5  C   UNL     1       1.058  -4.989   0.429  0.00  0.00    +0.197 A 
ENDROOT
BRANCH   1  10
ATOM      6  C   UNL     1      -0.018   1.503   0.010  0.00  0.00    +0.044 C 
ATOM      7  C   UNL     1       0.002  -0.004   0.002  0.00  0.00    -0.047 A 
ATOM      8  C   UNL     1       0.006  -0.688  -1.200  0.00  0.00    +0.005 A 
ATOM      9  C   UNL     1       0.024  -2.068  -1.211  0.00  0.00    +0.026 A 
ATOM     10  C   UNL     1       0.039  -2.771  -0.013  0.00  0.00    +0.051 A 
ATOM     11  C   UNL     1       0.036  -2.082   1.192  0.00  0.00    +0.030 A 
ATOM     12  C   UNL     1       0.023  -0.700   1.196  0.00  0.00    -0.046 A 
ATOM     13  C   UNL     1       0.025   0.048   2.504  0.00  0.00    +0.044 C 
ENDBRANCH   1  10
BRANCH   2  14
ATOM     14  C   UNL     1      -2.218  -4.614  -1.086  0.00  0.00    +0.020 A 
ATOM     15  C   UNL     1      -2.677  -3.303  -0.945  0.00  0.00    +0.011 A 
ATOM     16  C   UNL     1      -3.883  -2.934  -1.504  0.00  0.00    +0.001 A 
ATOM     17  C   UNL     1      -4.638  -3.861  -2.203  0.00  0.00    +0.000 A 
ATOM     18  C   UNL     1      -4.188  -5.161  -2.346  0.00  0.00    +0.001 A 
ATOM     19  C   UNL     1      -2.981  -5.542  -1.797  0.00  0.00    +0.011 A 
ENDBRANCH   2  14
BRANCH   5  20
ATOM     20  S   UNL     1       2.587  -4.476   1.139  0.00  0.00    -0.075 S 
BRANCH  20  21
ATOM     21  C   UNL     1       3.441  -6.032   1.513  0.00  0.00    +0.119 C 
ATOM     22  C   UNL     1       2.662  -6.796   2.585  0.00  0.00    +0.028 C 
BRANCH  21  23
ATOM     23  C   UNL     1       4.829  -5.734   2.018  0.00  0.00    +0.149 A 
ATOM     24  N   UNL     1       5.013  -4.786   2.921  0.00  0.00    -0.198 NA
ATOM     25  C   UNL     1       6.237  -4.520   3.370  0.00  0.00    +0.217 A 
ATOM     26  N   UNL     1       7.276  -5.209   2.910  0.00  0.00    -0.181 NA
ATOM     27  C   UNL     1       7.088  -6.161   2.003  0.00  0.00    +0.222 A 
ATOM     28  N   UNL     1       5.859  -6.424   1.562  0.00  0.00    -0.198 NA
ATOM     29  N   UNL     1       8.163  -6.879   1.521  0.00  0.00    -0.306 N 
ATOM     30  C   UNL     1       9.514  -6.591   2.011  0.00  0.00    +0.132 C 
ATOM     31  C   UNL     1       7.954  -7.928   0.521  0.00  0.00    +0.132 C 
ATOM     32  N   UNL     1       6.428  -3.530   4.312  0.00  0.00    -0.327 N 
ATOM     33  H   UNL     1       5.669  -3.027   4.647  0.00  0.00    +0.145 HD
ATOM     34  H   UNL     1       7.320  -3.336   4.639  0.00  0.00    +0.145 HD
ENDBRANCH  21  23
ENDBRANCH  20  21
ENDBRANCH   5  20
TORSDOF 5
