REMARK  Name = ZINC07577461
REMARK  6 active torsions:
REMARK  status: ('A' for Active; 'I' for Inactive)
REMARK    1  A    between atoms: C_6  and  N_11
REMARK    2  A    between atoms: C_7  and  C_8
REMARK    3  A    between atoms: C_12  and  C_14
REMARK    4  A    between atoms: C_14  and  S_15
REMARK    5  A    between atoms: S_15  and  C_16
REMARK    6  A    between atoms: N_21  and  C_22
REMARK                            x       y       z     vdW  Elec       q    Type
REMARK                         _______ _______ _______ _____ _____    ______ ____
ROOT
ATOM      1  N   UNL     1      -7.396  -4.374   3.491  0.00  0.00    -0.279 N 
ATOM      2  C   UNL     1      -7.125  -3.055   3.555  0.00  0.00    +0.228 C 
ATOM      3  O   UNL     1      -7.883  -2.308   4.137  0.00  0.00    -0.275 OA
ATOM      4  H   UNL     1      -6.790  -4.972   3.026  0.00  0.00    +0.155 HD
ENDROOT
BRANCH   1  10
ATOM      5  C   UNL     1     -12.032  -7.258   6.292  0.00  0.00    +0.010 C 
ATOM      6  C   UNL     1     -11.100  -7.682   5.139  0.00  0.00    +0.037 C 
ATOM      7  C   UNL     1     -10.239  -6.455   4.837  0.00  0.00    -0.023 A 
ATOM      8  C   UNL     1     -10.832  -5.375   5.377  0.00  0.00    -0.004 A 
ATOM      9  S   UNL     1      -9.761  -4.018   4.968  0.00  0.00    -0.077 S 
ATOM     10  C   UNL     1      -8.541  -4.877   4.091  0.00  0.00    +0.084 A 
ATOM     11  C   UNL     1      -8.989  -6.186   4.128  0.00  0.00    +0.068 A 
ATOM     12  C   UNL     1     -12.112  -5.729   6.085  0.00  0.00    +0.043 C 
BRANCH  11  13
ATOM     13  C   UNL     1      -8.234  -7.266   3.483  0.00  0.00    +0.244 C 
ATOM     14  O   UNL     1      -7.385  -7.872   4.109  0.00  0.00    -0.270 OA
ATOM     15  N   UNL     1      -8.482  -7.586   2.197  0.00  0.00    -0.325 N 
ATOM     16  H   UNL     1      -9.159  -7.103   1.699  0.00  0.00    +0.145 HD
ATOM     17  H   UNL     1      -7.983  -8.300   1.771  0.00  0.00    +0.145 HD
ENDBRANCH  11  13
ENDBRANCH   1  10
BRANCH   2  18
ATOM     18  C   UNL     1      -5.881  -2.509   2.904  0.00  0.00    +0.172 C 
BRANCH  18  19
ATOM     19  S   UNL     1      -5.800  -0.716   3.163  0.00  0.00    -0.088 S 
BRANCH  19  20
ATOM     20  C   UNL     1      -4.311  -0.235   2.354  0.00  0.00    +0.160 A 
ATOM     21  N   UNL     1      -3.435  -0.977   1.704  0.00  0.00    -0.133 NA
ATOM     22  N   UNL     1      -2.326  -0.391   1.140  0.00  0.00    -0.125 NA
ATOM     23  C   UNL     1      -2.142   0.910   1.253  0.00  0.00    +0.183 A 
ATOM     24  S   UNL     1      -3.578   1.387   2.203  0.00  0.00    -0.025 S 
ATOM     25  N   UNL     1      -1.105   1.699   0.767  0.00  0.00    -0.319 N 
ATOM     26  H   UNL     1      -1.106   2.655   0.931  0.00  0.00    +0.148 HD
BRANCH  25  27
ATOM     27  C   UNL     1      -0.013   1.086   0.008  0.00  0.00    +0.072 C 
ATOM     28  C   UNL     1       0.460   1.806  -1.256  0.00  0.00    +0.024 C 
ATOM     29  C   UNL     1       1.335   1.811  -0.001  0.00  0.00    +0.024 C 
ENDBRANCH  25  27
ENDBRANCH  19  20
ENDBRANCH  18  19
ENDBRANCH   2  18
TORSDOF 6
