REMARK  Name = ZINC09595190
REMARK  12 active torsions:
REMARK  status: ('A' for Active; 'I' for Inactive)
REMARK    1  A    between atoms: C_1  and  C_2
REMARK    2  A    between atoms: C_2  and  C_3
REMARK    3  A    between atoms: C_2  and  C_4
REMARK    4  A    between atoms: C_2  and  C_5
REMARK    5  A    between atoms: C_8  and  C_11
REMARK    6  A    between atoms: N_13  and  C_14
REMARK    7  A    between atoms: C_14  and  C_16
REMARK    8  A    between atoms: C_14  and  C_20
REMARK    9  A    between atoms: C_16  and  C_17
REMARK   10  A    between atoms: C_17  and  S_18
REMARK   11  A    between atoms: S_18  and  C_19
REMARK   12  A    between atoms: C_31  and  C_33
REMARK                            x       y       z     vdW  Elec       q    Type
REMARK                         _______ _______ _______ _____ _____    ______ ____
ROOT
ATOM      1  C   UNL     1       1.876   3.615  -1.149  0.00  0.00    +0.160 C 
ENDROOT
BRANCH   1   2
ATOM      2  C   UNL     1       0.690   2.710  -0.932  0.00  0.00    +0.237 C 
ATOM      3  O   UNL     1      -0.285   2.807  -1.647  0.00  0.00    -0.274 OA
ATOM      4  N   UNL     1       0.714   1.793   0.056  0.00  0.00    -0.284 N 
ATOM      5  C   UNL     1       1.835   1.716   0.998  0.00  0.00    +0.144 C 
ATOM      6  C   UNL     1       2.235   0.276   1.195  0.00  0.00    -0.027 A 
ATOM      7  C   UNL     1       3.421   0.019   1.870  0.00  0.00    +0.005 A 
ATOM      8  C   UNL     1       3.828  -1.278   2.103  0.00  0.00    +0.000 A 
ATOM      9  C   UNL     1       3.050  -2.331   1.658  0.00  0.00    +0.000 A 
ATOM     10  C   UNL     1       1.875  -2.077   0.981  0.00  0.00    +0.004 A 
ATOM     11  C   UNL     1       1.464  -0.771   0.743  0.00  0.00    -0.040 A 
ATOM     12  C   UNL     1       0.175  -0.571  -0.010  0.00  0.00    +0.067 C 
ATOM     13  C   UNL     1      -0.385   0.830   0.232  0.00  0.00    +0.166 C 
BRANCH  13  14
ATOM     14  C   UNL     1      -1.482   1.119  -0.759  0.00  0.00    +0.231 C 
ATOM     15  O   UNL     1      -2.522   1.618  -0.384  0.00  0.00    -0.274 OA
ATOM     16  N   UNL     1      -1.308   0.822  -2.062  0.00  0.00    -0.328 N 
ATOM     17  H   UNL     1      -0.477   0.423  -2.362  0.00  0.00    +0.145 HD
ATOM     18  H   UNL     1      -2.015   1.008  -2.700  0.00  0.00    +0.145 HD
ENDBRANCH  13  14
ENDBRANCH   1   2
BRANCH   1  21
ATOM     19  C   UNL     1       2.627   5.042  -2.976  0.00  0.00    +0.245 C 
ATOM     20  O   UNL     1       3.773   4.772  -2.677  0.00  0.00    -0.270 OA
ATOM     21  N   UNL     1       1.605   4.514  -2.274  0.00  0.00    -0.300 N 
ATOM     22  H   UNL     1       0.689   4.729  -2.513  0.00  0.00    +0.150 HD
BRANCH  19  26
ATOM     23  C   UNL     1       1.840   7.647  -6.237  0.00  0.00    -0.042 A 
ATOM     24  C   UNL     1       3.147   7.343  -5.898  0.00  0.00    +0.005 A 
ATOM     25  C   UNL     1       3.409   6.497  -4.840  0.00  0.00    +0.013 A 
ATOM     26  C   UNL     1       2.353   5.949  -4.111  0.00  0.00    +0.037 A 
ATOM     27  C   UNL     1       1.037   6.256  -4.461  0.00  0.00    +0.013 A 
ATOM     28  C   UNL     1       0.789   7.107  -5.518  0.00  0.00    +0.005 A 
BRANCH  23  30
ATOM     29  C   UNL     1       2.148   7.977  -8.676  0.00  0.00    +0.015 C 
ATOM     30  C   UNL     1       1.561   8.572  -7.394  0.00  0.00    -0.013 C 
ATOM     31  C   UNL     1       0.049   8.743  -7.557  0.00  0.00    +0.015 C 
ATOM     32  C   UNL     1       2.202   9.935  -7.124  0.00  0.00    +0.015 C 
ENDBRANCH  23  30
ENDBRANCH  19  26
ENDBRANCH   1  21
BRANCH   1  33
ATOM     33  C   UNL     1       2.126   4.440   0.115  0.00  0.00    +0.042 C 
BRANCH  33  34
ATOM     34  C   UNL     1       3.401   5.266  -0.060  0.00  0.00    +0.071 C 
BRANCH  34  35
ATOM     35  S   UNL     1       3.698   6.245   1.439  0.00  0.00    -0.164 S 
ATOM     36  C   UNL     1       5.224   7.154   1.075  0.00  0.00    +0.084 C 
ENDBRANCH  34  35
ENDBRANCH  33  34
ENDBRANCH   1  33
TORSDOF 8
