REMARK  Name = ZINC28658516
REMARK  7 active torsions:
REMARK  status: ('A' for Active; 'I' for Inactive)
REMARK    1  A    between atoms: C_1  and  C_2
REMARK    2  A    between atoms: C_2  and  C_3
REMARK    3  A    between atoms: C_3  and  C_22
REMARK    4  A    between atoms: N_6  and  N_10
REMARK    5  A    between atoms: C_11  and  C_13
REMARK    6  A    between atoms: C_13  and  N_14
REMARK    7  A    between atoms: N_14  and  C_15
REMARK                            x       y       z     vdW  Elec       q    Type
REMARK                         _______ _______ _______ _____ _____    ______ ____
ROOT
ATOM      1  N   UNL     1      -2.076   4.455   0.036  0.00  0.00    -0.222 N 
ATOM      2  C   UNL     1      -1.040   3.594   0.026  0.00  0.00    +0.247 C 
ATOM      3  O   UNL     1       0.098   4.013   0.023  0.00  0.00    -0.273 OA
ATOM      4  H   UNL     1      -3.108   4.075   0.039  0.00  0.00    +0.174 HD
ENDROOT
BRANCH   1   8
ATOM      5  C   UNL     1      -1.627   8.024   0.666  0.00  0.00    +0.111 C 
ATOM      6  C   UNL     1      -1.995   6.626   1.123  0.00  0.00    +0.263 C 
ATOM      7  O   UNL     1      -2.354   6.289   2.231  0.00  0.00    -0.271 OA
ATOM      8  N   UNL     1      -1.839   5.836   0.043  0.00  0.00    -0.137 N 
ATOM      9  C   UNL     1      -1.435   6.534  -1.025  0.00  0.00    +0.326 C 
ATOM     10  O   UNL     1      -1.230   6.041  -2.117  0.00  0.00    -0.251 OA
ATOM     11  N   UNL     1      -1.281   7.843  -0.755  0.00  0.00    -0.284 N 
ATOM     12  C   UNL     1      -0.425   8.552   1.450  0.00  0.00    +0.041 C 
ATOM     13  H   UNL     1      -0.971   8.708  -1.360  0.00  0.00    +0.151 HD
BRANCH   5  15
ATOM     14  C   UNL     1      -2.503  10.302   0.133  0.00  0.00    +0.006 C 
ATOM     15  C   UNL     1      -2.821   8.969   0.813  0.00  0.00    +0.032 C 
ENDBRANCH   5  15
ENDBRANCH   1   8
BRANCH   2  16
ATOM     16  C   UNL     1      -1.295   2.108   0.020  0.00  0.00    +0.199 C 
BRANCH  16  17
ATOM     17  N   UNL     1      -0.017   1.393   0.010  0.00  0.00    -0.335 N 
ATOM     18  H   UNL     1       0.928   1.956   0.008  0.00  0.00    +0.147 HD
BRANCH  17  19
ATOM     19  C   UNL     1       0.002  -0.004   0.002  0.00  0.00    +0.028 A 
ATOM     20  C   UNL     1      -1.190  -0.716   0.015  0.00  0.00    +0.024 A 
ATOM     21  C   UNL     1      -1.169  -2.097   0.001  0.00  0.00    +0.022 A 
ATOM     22  C   UNL     1       0.040  -2.771  -0.013  0.00  0.00    +0.041 A 
ATOM     23  C   UNL     1       1.229  -2.064  -0.021  0.00  0.00    +0.022 A 
ATOM     24  C   UNL     1       1.214  -0.683  -0.013  0.00  0.00    +0.024 A 
ATOM     25 CL   UNL     1       0.063  -4.507  -0.023  0.00  0.00    -0.084 Cl
ENDBRANCH  17  19
ENDBRANCH  16  17
ENDBRANCH   2  16
TORSDOF 5
