REMARK  Name = ZINC19458208
REMARK  8 active torsions:
REMARK  status: ('A' for Active; 'I' for Inactive)
REMARK    1  A    between atoms: C_1  and  C_2
REMARK    2  A    between atoms: C_2  and  C_4
REMARK    3  A    between atoms: C_2  and  N_20
REMARK    4  A    between atoms: C_11  and  C_13
REMARK    5  A    between atoms: N_20  and  C_21
REMARK    6  A    between atoms: C_21  and  C_22
REMARK    7  A    between atoms: C_27  and  O_28
REMARK    8  A    between atoms: O_28  and  C_29
REMARK                            x       y       z     vdW  Elec       q    Type
REMARK                         _______ _______ _______ _____ _____    ______ ____
ROOT
ATOM      1  C   UNL     1       0.707  -0.490  -1.238  0.00  0.00    +0.009 A 
ATOM      2  C   UNL     1       1.871  -1.172  -1.131  0.00  0.00    +0.091 A 
ATOM      3  C   UNL     1       2.527  -1.625  -2.293  0.00  0.00    +0.275 A 
ATOM      4  N   UNL     1       1.993  -1.377  -3.505  0.00  0.00    -0.180 N 
ATOM      5  C   UNL     1       0.819  -0.688  -3.605  0.00  0.00    +0.138 A 
ATOM      6  N   UNL     1       0.171  -0.248  -2.466  0.00  0.00    -0.345 N 
ATOM      7  C   UNL     1       0.519  -0.585  -4.931  0.00  0.00    +0.071 A 
ATOM      8  C   UNL     1       1.531  -1.223  -5.649  0.00  0.00    +0.069 A 
ATOM      9  N   UNL     1       2.411  -1.696  -4.803  0.00  0.00    -0.167 NA
ATOM     10  O   UNL     1       3.575  -2.240  -2.202  0.00  0.00    -0.266 OA
ATOM     11  H   UNL     1      -0.665   0.238  -2.542  0.00  0.00    +0.167 HD
ENDROOT
BRANCH   8  12
ATOM     12  C   UNL     1       1.600  -1.347  -7.150  0.00  0.00    +0.044 C 
ATOM     13  C   UNL     1       1.017  -0.086  -7.795  0.00  0.00    +0.038 C 
ATOM     14  C   UNL     1       1.019  -0.253  -9.317  0.00  0.00    +0.160 C 
ATOM     15  O   UNL     1       0.269  -1.418  -9.667  0.00  0.00    -0.380 OA
ATOM     16  C   UNL     1       0.795  -2.634  -9.131  0.00  0.00    +0.160 C 
ATOM     17  C   UNL     1       0.784  -2.562  -7.602  0.00  0.00    +0.038 C 
ENDBRANCH   8  12
BRANCH   1  19
ATOM     18  C   UNL     1      -0.019   1.526   0.010  0.00  0.00    -0.007 C 
ATOM     19  C   UNL     1       0.002  -0.004   0.002  0.00  0.00    -0.027 C 
BRANCH  19  20
ATOM     20  N   UNL     1      -1.376  -0.512   0.012  0.00  0.00    +0.387 N 
ATOM     21  H   UNL     1      -1.888  -0.113  -0.760  0.00  0.00    -0.085 HD
ATOM     22  H   UNL     1      -1.364  -1.518  -0.076  0.00  0.00    -0.085 HD
BRANCH  20  23
ATOM     23  C   UNL     1      -2.026  -0.140   1.276  0.00  0.00    -0.042 C 
BRANCH  23  24
ATOM     24  C   UNL     1      -3.440  -0.661   1.287  0.00  0.00    -0.023 A 
ATOM     25  C   UNL     1      -4.491   0.184   0.986  0.00  0.00    +0.005 A 
ATOM     26  C   UNL     1      -5.788  -0.294   0.996  0.00  0.00    +0.000 A 
ATOM     27  C   UNL     1      -6.037  -1.618   1.307  0.00  0.00    +0.004 A 
ATOM     28  C   UNL     1      -4.990  -2.467   1.607  0.00  0.00    +0.046 A 
ATOM     29  C   UNL     1      -3.687  -1.992   1.593  0.00  0.00    +0.121 A 
BRANCH  29  30
ATOM     30  O   UNL     1      -2.654  -2.826   1.883  0.00  0.00    -0.495 OA
ATOM     31  C   UNL     1      -2.983  -4.183   2.189  0.00  0.00    +0.277 C 
ENDBRANCH  29  30
ENDBRANCH  23  24
ENDBRANCH  20  23
ENDBRANCH  19  20
ENDBRANCH   1  19
TORSDOF 6
