REMARK  Name = ZINC08754801
REMARK  9 active torsions:
REMARK  status: ('A' for Active; 'I' for Inactive)
REMARK    1  A    between atoms: C_1  and  C_2
REMARK    2  A    between atoms: C_7  and  N_8
REMARK    3  A    between atoms: C_9  and  C_11
REMARK    4  A    between atoms: C_11  and  N_12
REMARK    5  A    between atoms: C_13  and  C_15
REMARK    6  A    between atoms: C_15  and  N_53
REMARK    7  A    between atoms: C_16  and  N_53
REMARK    8  A    between atoms: C_17  and  C_18
REMARK    9  A    between atoms: C_17  and  N_53
REMARK                            x       y       z     vdW  Elec       q    Type
REMARK                         _______ _______ _______ _____ _____    ______ ____
ROOT
ATOM      1  N   UNL     1       2.407   1.044  -0.032  0.00  0.00    -0.308 N 
ATOM      2  C   UNL     1       3.671   1.511  -0.051  0.00  0.00    +0.197 C 
ATOM      3  O   UNL     1       3.876   2.706  -0.055  0.00  0.00    -0.278 OA
ATOM      4  H   UNL     1       2.243   0.088  -0.029  0.00  0.00    +0.149 HD
ENDROOT
BRANCH   1   5
ATOM      5  C   UNL     1       1.280   1.980  -0.015  0.00  0.00    +0.200 C 
BRANCH   5   7
ATOM      6  N   UNL     1      -1.191   1.867   0.018  0.00  0.00    -0.284 N 
ATOM      7  C   UNL     1      -0.014   1.209   0.005  0.00  0.00    +0.234 C 
ATOM      8  O   UNL     1       0.003  -0.004   0.005  0.00  0.00    -0.274 OA
ATOM      9  H   UNL     1      -1.205   2.833   0.099  0.00  0.00    +0.155 HD
BRANCH   6  16
ATOM     10  C   UNL     1      -3.546   3.040   1.100  0.00  0.00    +0.046 C 
ATOM     11  C   UNL     1      -3.564   1.691   0.428  0.00  0.00    -0.028 A 
ATOM     12  C   UNL     1      -4.749   0.989   0.320  0.00  0.00    +0.020 A 
ATOM     13  C   UNL     1      -4.765  -0.252  -0.291  0.00  0.00    +0.018 A 
ATOM     14  C   UNL     1      -3.597  -0.791  -0.800  0.00  0.00    +0.017 A 
ATOM     15  C   UNL     1      -2.411  -0.091  -0.699  0.00  0.00    +0.024 A 
ATOM     16  C   UNL     1      -2.391   1.155  -0.086  0.00  0.00    +0.036 A 
ATOM     17 BR   UNL     1      -6.387  -1.214  -0.431  0.00  0.00    -0.050 Br
ENDBRANCH   6  16
ENDBRANCH   5   7
ENDBRANCH   1   5
BRANCH   2  18
ATOM     18  C   UNL     1       4.830   0.547  -0.069  0.00  0.00    +0.019 C 
BRANCH  18  20
ATOM     19  C   UNL     1       6.278   2.047   1.162  0.00  0.00    -0.095 C 
ATOM     20  N   UNL     1       6.090   1.318  -0.110  0.00  0.00    +0.386 N 
ATOM     21  H   UNL     1       6.041   1.997  -0.879  0.00  0.00    -0.081 HD
BRANCH  20  22
ATOM     22  C   UNL     1       7.231   0.409  -0.344  0.00  0.00    -0.043 C 
BRANCH  22  23
ATOM     23  C   UNL     1       8.466   1.234  -0.601  0.00  0.00    -0.063 A 
ATOM     24  C   UNL     1       8.776   1.618  -1.904  0.00  0.00    +0.002 A 
ATOM     25  C   UNL     1       9.880   2.368  -2.169  0.00  0.00    +0.009 A 
ATOM     26  C   UNL     1      10.729   2.752  -1.117  0.00  0.00    -0.018 A 
ATOM     27  C   UNL     1      11.882   3.520  -1.353  0.00  0.00    +0.008 A 
ATOM     28  C   UNL     1      12.681   3.874  -0.309  0.00  0.00    +0.001 A 
ATOM     29  C   UNL     1      12.373   3.485   0.993  0.00  0.00    +0.001 A 
ATOM     30  C   UNL     1      11.266   2.741   1.259  0.00  0.00    +0.008 A 
ATOM     31  C   UNL     1      10.417   2.357   0.207  0.00  0.00    -0.018 A 
ATOM     32  C   UNL     1       9.264   1.587   0.443  0.00  0.00    +0.010 A 
ENDBRANCH  22  23
ENDBRANCH  20  22
ENDBRANCH  18  20
ENDBRANCH   2  18
TORSDOF 7
