REMARK  Name = ZINC35190732
REMARK  11 active torsions:
REMARK  status: ('A' for Active; 'I' for Inactive)
REMARK    1  A    between atoms: C_1  and  C_2
REMARK    2  A    between atoms: C_2  and  C_3
REMARK    3  A    between atoms: C_2  and  C_4
REMARK    4  A    between atoms: C_2  and  C_5
REMARK    5  A    between atoms: C_8  and  C_11
REMARK    6  A    between atoms: N_13  and  C_14
REMARK    7  A    between atoms: N_13  and  C_15
REMARK    8  A    between atoms: C_15  and  C_16
REMARK    9  A    between atoms: C_16  and  C_17
REMARK   10  A    between atoms: C_17  and  N_18
REMARK   11  A    between atoms: N_18  and  C_19
REMARK                            x       y       z     vdW  Elec       q    Type
REMARK                         _______ _______ _______ _____ _____    ______ ____
ROOT
ATOM      1  C   UNL     1       3.981  -0.574  -7.292  0.00  0.00    +0.037 C 
ENDROOT
BRANCH   1   2
ATOM      2  C   UNL     1       4.502  -1.656  -6.343  0.00  0.00    +0.109 C 
BRANCH   2   5
ATOM      3  C   UNL     1       2.779  -2.015  -4.658  0.00  0.00    +0.246 C 
ATOM      4  O   UNL     1       2.229  -2.784  -5.423  0.00  0.00    -0.270 OA
ATOM      5  N   UNL     1       3.947  -1.440  -5.005  0.00  0.00    -0.301 N 
ATOM      6  C   UNL     1       4.662  -0.598  -4.043  0.00  0.00    +0.132 C 
BRANCH   3  10
ATOM      7  C   UNL     1       1.016  -1.143  -0.893  0.00  0.00    -0.042 A 
ATOM      8  C   UNL     1       2.387  -1.296  -0.993  0.00  0.00    +0.005 A 
ATOM      9  C   UNL     1       2.966  -1.579  -2.213  0.00  0.00    +0.013 A 
ATOM     10  C   UNL     1       2.165  -1.712  -3.348  0.00  0.00    +0.037 A 
ATOM     11  C   UNL     1       0.782  -1.557  -3.240  0.00  0.00    +0.013 A 
ATOM     12  C   UNL     1       0.215  -1.280  -2.014  0.00  0.00    +0.005 A 
BRANCH   7  14
ATOM     13  C   UNL     1      -0.588  -1.948   0.818  0.00  0.00    +0.015 C 
ATOM     14  C   UNL     1       0.390  -0.834   0.442  0.00  0.00    -0.013 C 
ATOM     15  C   UNL     1      -0.360   0.497   0.358  0.00  0.00    +0.015 C 
ATOM     16  C   UNL     1       1.484  -0.735   1.507  0.00  0.00    +0.015 C 
ENDBRANCH   7  14
ENDBRANCH   3  10
ENDBRANCH   2   5
ENDBRANCH   1   2
BRANCH   1  17
ATOM     17  C   UNL     1       4.561  -0.800  -8.690  0.00  0.00    +0.103 C 
BRANCH  17  18
ATOM     18  N   UNL     1       4.063   0.236  -9.598  0.00  0.00    -0.343 N 
ATOM     19  H   UNL     1       3.459   0.921  -9.269  0.00  0.00    +0.146 HD
BRANCH  18  20
ATOM     20  C   UNL     1       4.453   0.238 -10.928  0.00  0.00    +0.038 A 
ATOM     21  C   UNL     1       5.310  -0.733 -11.423  0.00  0.00    +0.041 A 
ATOM     22  C   UNL     1       5.683  -0.705 -12.760  0.00  0.00    +0.085 A 
ATOM     23  N   UNL     1       5.246   0.222 -13.581  0.00  0.00    -0.361 N 
ATOM     24  C   UNL     1       4.418   1.190 -13.172  0.00  0.00    +0.050 A 
ATOM     25  C   UNL     1       3.986   1.228 -11.825  0.00  0.00    +0.019 A 
ATOM     26  C   UNL     1       3.114   2.241 -11.403  0.00  0.00    +0.013 A 
ATOM     27  C   UNL     1       2.686   3.177 -12.296  0.00  0.00    +0.021 A 
ATOM     28  C   UNL     1       3.104   3.139 -13.625  0.00  0.00    +0.043 A 
ATOM     29  C   UNL     1       3.961   2.175 -14.064  0.00  0.00    +0.046 A 
ATOM     30 CL   UNL     1       2.536   4.348 -14.734  0.00  0.00    -0.083 Cl
ATOM     31  H   UNL     1       5.532   0.205 -14.508  0.00  0.00    +0.165 HD
ENDBRANCH  18  20
ENDBRANCH  17  18
ENDBRANCH   1  17
TORSDOF 7
