REMARK  Name = ZINC03566034
REMARK  5 active torsions:
REMARK  status: ('A' for Active; 'I' for Inactive)
REMARK    1  A    between atoms: C_1  and  C_2
REMARK    2  A    between atoms: C_3  and  S_9
REMARK    3  A    between atoms: C_4  and  C_8
REMARK    4  A    between atoms: S_9  and  N_12
REMARK    5  A    between atoms: C_20  and  C_22
REMARK                            x       y       z     vdW  Elec       q    Type
REMARK                         _______ _______ _______ _____ _____    ______ ____
ROOT
ATOM      1  S   UNL     1      -1.408  -1.060   0.009  0.00  0.00    +0.078 S 
ATOM      2  O   UNL     1      -0.982  -2.304   0.549  0.00  0.00    -0.150 OA
ATOM      3  O   UNL     1      -2.475  -0.310   0.575  0.00  0.00    -0.150 OA
ENDROOT
BRANCH   1   4
ATOM      4  N   UNL     1      -1.815  -1.344  -1.571  0.00  0.00    -0.200 N 
ATOM      5  C   UNL     1      -1.327  -2.398  -2.345  0.00  0.00    +0.055 A 
ATOM      6  C   UNL     1      -0.428  -3.409  -1.998  0.00  0.00    +0.025 A 
ATOM      7  C   UNL     1      -0.070  -4.368  -2.921  0.00  0.00    +0.002 A 
ATOM      8  C   UNL     1      -0.597  -4.335  -4.199  0.00  0.00    +0.000 A 
ATOM      9  C   UNL     1      -1.487  -3.337  -4.551  0.00  0.00    +0.005 A 
ATOM     10  C   UNL     1      -1.849  -2.374  -3.629  0.00  0.00    -0.023 A 
ATOM     11  C   UNL     1      -2.785  -1.192  -3.745  0.00  0.00    +0.061 C 
ATOM     12  C   UNL     1      -2.746  -0.530  -2.357  0.00  0.00    +0.099 C 
ATOM     13  C   UNL     1      -4.136  -0.547  -1.719  0.00  0.00    +0.030 C 
ENDBRANCH   1   4
BRANCH   1  16
ATOM     14  C   UNL     1       1.785  -1.828  -0.026  0.00  0.00    +0.067 C 
ATOM     15  C   UNL     1       1.295  -0.403  -0.013  0.00  0.00    +0.060 A 
ATOM     16  C   UNL     1       0.002  -0.004   0.002  0.00  0.00    +0.151 A 
ATOM     17  C   UNL     1      -0.017   1.395   0.010  0.00  0.00    +0.087 A 
ATOM     18  N   UNL     1       1.220   1.820   0.000  0.00  0.00    -0.177 NA
ATOM     19  N   UNL     1       2.067   0.704  -0.014  0.00  0.00    -0.280 N 
ATOM     20  H   UNL     1       3.067   0.724  -0.023  0.00  0.00    +0.189 HD
ATOM     21  C   UNL     1      -1.250   2.261   0.021  0.00  0.00    +0.069 C 
ENDBRANCH   1  16
TORSDOF 2
