REMARK  Name = ZINC36946201
REMARK  3 active torsions:
REMARK  status: ('A' for Active; 'I' for Inactive)
REMARK    1  A    between atoms: C_1  and  C_2
REMARK    2  A    between atoms: C_9  and  C_14
REMARK    3  A    between atoms: C_14  and  C_16
REMARK                            x       y       z     vdW  Elec       q    Type
REMARK                         _______ _______ _______ _____ _____    ______ ____
ROOT
ATOM      1  C   UNL     1      -0.019   1.526   0.010  0.00  0.00    +0.062 C 
ATOM      2  C   UNL     1       0.002  -0.004   0.002  0.00  0.00    +0.256 C 
ATOM      3  C   UNL     1       0.706  -0.489  -1.239  0.00  0.00    +0.258 C 
ATOM      4  O   UNL     1       0.073  -0.718  -2.248  0.00  0.00    -0.271 OA
ATOM      5  N   UNL     1       2.045  -0.668  -1.223  0.00  0.00    -0.280 N 
ATOM      6  C   UNL     1       2.748  -0.429  -0.033  0.00  0.00    +0.076 A 
ATOM      7  C   UNL     1       4.120  -0.287  -0.044  0.00  0.00    +0.038 A 
ATOM      8  C   UNL     1       4.803  -0.050   1.156  0.00  0.00    +0.020 A 
ATOM      9  C   UNL     1       4.089   0.041   2.357  0.00  0.00    +0.015 A 
ATOM     10  C   UNL     1       2.719  -0.102   2.358  0.00  0.00    +0.048 A 
ATOM     11  C   UNL     1       2.042  -0.336   1.170  0.00  0.00    +0.143 A 
ATOM     12  O   UNL     1       0.692  -0.477   1.161  0.00  0.00    -0.478 OA
ATOM     13  H   UNL     1       2.513  -0.957  -2.022  0.00  0.00    +0.155 HD
ENDROOT
BRANCH   8  14
ATOM     14  C   UNL     1       6.264   0.102   1.155  0.00  0.00    +0.166 C 
ATOM     15  O   UNL     1       6.880   0.023   0.113  0.00  0.00    -0.292 OA
BRANCH  14  16
ATOM     16  C   UNL     1       6.996   0.357   2.447  0.00  0.00    +0.060 C 
ATOM     17  C   UNL     1       6.987   1.857   2.751  0.00  0.00    +0.011 C 
ATOM     18  C   UNL     1       7.730   2.115   4.063  0.00  0.00    +0.001 C 
ATOM     19  C   UNL     1       9.175   1.630   3.934  0.00  0.00    +0.000 C 
ATOM     20  C   UNL     1       9.185   0.131   3.630  0.00  0.00    +0.001 C 
ATOM     21  C   UNL     1       8.441  -0.128   2.318  0.00  0.00    +0.011 C 
ENDBRANCH  14  16
ENDBRANCH   8  14
TORSDOF 2
