REMARK  Name = ZINC03627435
REMARK  9 active torsions:
REMARK  status: ('A' for Active; 'I' for Inactive)
REMARK    1  A    between atoms: C_1  and  N_2
REMARK    2  A    between atoms: N_2  and  C_3
REMARK    3  A    between atoms: N_2  and  N_4
REMARK    4  A    between atoms: C_7  and  C_14
REMARK    5  A    between atoms: C_9  and  C_12
REMARK    6  A    between atoms: C_10  and  N_11
REMARK    7  A    between atoms: C_17  and  O_20
REMARK    8  A    between atoms: O_20  and  C_21
REMARK    9  A    between atoms: C_21  and  C_22
REMARK                            x       y       z     vdW  Elec       q    Type
REMARK                         _______ _______ _______ _____ _____    ______ ____
ROOT
ATOM      1  N   UNL     1      -1.755  -0.217  -0.157  0.00  0.00    -0.223 N 
ATOM      2  C   UNL     1      -2.367  -1.153  -0.947  0.00  0.00    +0.036 C 
ATOM      3  C   UNL     1      -2.958  -2.235  -0.398  0.00  0.00    +0.026 C 
ATOM      4  C   UNL     1      -2.948  -2.451   1.094  0.00  0.00    +0.097 C 
ATOM      5  C   UNL     1      -2.631  -1.179   1.823  0.00  0.00    +0.078 C 
ATOM      6  C   UNL     1      -2.048  -0.133   1.183  0.00  0.00    +0.117 C 
ATOM      7  C   UNL     1      -3.604  -3.192  -1.201  0.00  0.00    +0.162 C 
ATOM      8  O   UNL     1      -4.120  -4.159  -0.676  0.00  0.00    -0.292 OA
ATOM      9  C   UNL     1      -3.668  -3.042  -2.696  0.00  0.00    +0.080 C 
ATOM     10  C   UNL     1      -3.625  -1.552  -3.050  0.00  0.00    +0.014 C 
ATOM     11  C   UNL     1      -2.359  -0.945  -2.441  0.00  0.00    +0.053 C 
ENDROOT
BRANCH   4  12
ATOM     12  C   UNL     1      -1.909  -3.488   1.436  0.00  0.00    -0.034 A 
ATOM     13  C   UNL     1      -0.582  -3.264   1.121  0.00  0.00    +0.008 A 
ATOM     14  C   UNL     1       0.373  -4.213   1.433  0.00  0.00    +0.046 A 
ATOM     15  C   UNL     1      -0.002  -5.391   2.063  0.00  0.00    +0.121 A 
ATOM     16  C   UNL     1      -1.334  -5.612   2.379  0.00  0.00    +0.046 A 
ATOM     17  C   UNL     1      -2.284  -4.658   2.070  0.00  0.00    +0.008 A 
BRANCH  15  18
ATOM     18  O   UNL     1       0.935  -6.326   2.371  0.00  0.00    -0.488 OA
BRANCH  18  19
ATOM     19  C   UNL     1       0.477  -7.514   3.020  0.00  0.00    +0.256 C 
BRANCH  19  20
ATOM     20  C   UNL     1       1.648  -8.427   3.280  0.00  0.00    +0.006 C 
ATOM     21  C   UNL     1       1.775  -9.012   4.446  0.00  0.00    +0.007 C 
ENDBRANCH  19  20
ENDBRANCH  18  19
ENDBRANCH  15  18
ENDBRANCH   4  12
BRANCH   1  23
ATOM     22  C   UNL     1      -1.363   2.008  -0.753  0.00  0.00    +0.128 C 
ATOM     23  N   UNL     1      -0.840   0.637  -0.704  0.00  0.00    -0.227 NA
ATOM     24  C   UNL     1       0.433   0.584   0.028  0.00  0.00    +0.128 C 
ENDBRANCH   1  23
BRANCH   6  25
ATOM     25  N   UNL     1      -1.757   1.016   1.878  0.00  0.00    -0.344 N 
ATOM     26  H   UNL     1      -1.041   1.597   1.576  0.00  0.00    +0.144 HD
ATOM     27  H   UNL     1      -2.267   1.247   2.670  0.00  0.00    +0.144 HD
ENDBRANCH   6  25
BRANCH   5  28
ATOM     28  C   UNL     1      -2.942  -1.069   3.216  0.00  0.00    +0.099 C 
ATOM     29  N   UNL     1      -3.188  -0.981   4.322  0.00  0.00    -0.191 NA
ENDBRANCH   5  28
TORSDOF 7
