REMARK  Name = ZINC39282966
REMARK  4 active torsions:
REMARK  status: ('A' for Active; 'I' for Inactive)
REMARK    1  A    between atoms: C_3  and  C_11
REMARK    2  A    between atoms: C_5  and  C_7
REMARK    3  A    between atoms: C_14  and  C_16
REMARK    4  A    between atoms: N_17  and  N_18
REMARK                            x       y       z     vdW  Elec       q    Type
REMARK                         _______ _______ _______ _____ _____    ______ ____
ROOT
ATOM      1  C   UNL     1       7.209   2.427  -0.061  0.00  0.00    +0.181 C 
ATOM      2  N   UNL     1       7.720   1.214  -0.078  0.00  0.00    -0.150 NA
ENDROOT
BRANCH   2   3
ATOM      3  N   UNL     1       8.999   1.053  -0.095  0.00  0.00    -0.109 NA
ATOM      4  C   UNL     1       9.513  -0.167  -0.112  0.00  0.00    +0.266 A 
ATOM      5  N   UNL     1      10.899  -0.322  -0.124  0.00  0.00    -0.305 N 
ATOM      6  C   UNL     1      11.342  -1.557   0.325  0.00  0.00    +0.155 A 
ATOM      7  N   UNL     1      12.486  -1.943   0.794  0.00  0.00    -0.253 NA
ATOM      8  C   UNL     1      12.468  -3.394   0.827  0.00  0.00    +0.162 C 
ATOM      9  C   UNL     1      13.153  -4.070   1.961  0.00  0.00    +0.004 C 
ATOM     10  C   UNL     1      12.620  -5.165   2.515  0.00  0.00    -0.002 C 
ATOM     11  C   UNL     1      11.387  -5.715   2.103  0.00  0.00    +0.000 C 
ATOM     12  C   UNL     1      10.537  -5.009   1.294  0.00  0.00    +0.008 C 
ATOM     13  C   UNL     1      11.008  -3.797   0.818  0.00  0.00    +0.009 C 
ATOM     14  C   UNL     1      10.346  -2.671   0.401  0.00  0.00    +0.105 A 
ATOM     15  N   UNL     1       9.054  -2.438   0.113  0.00  0.00    -0.270 N 
ATOM     16  N   UNL     1       8.690  -1.220  -0.111  0.00  0.00    -0.133 NA
ATOM     17  H   UNL     1      11.503   0.376  -0.421  0.00  0.00    +0.170 HD
ATOM     18  H   UNL     1       8.412  -3.165   0.079  0.00  0.00    +0.189 HD
ENDBRANCH   2   3
BRANCH   1  22
ATOM     19  C   UNL     1       3.655   2.158  -0.022  0.00  0.00    +0.136 A 
ATOM     20  C   UNL     1       3.778   3.529  -0.011  0.00  0.00    +0.050 A 
ATOM     21  C   UNL     1       5.145   3.817  -0.024  0.00  0.00    +0.051 A 
ATOM     22  C   UNL     1       5.810   2.603  -0.043  0.00  0.00    +0.148 A 
ATOM     23  O   UNL     1       4.888   1.617  -0.036  0.00  0.00    -0.454 OA
BRANCH  19  26
ATOM     24  C   UNL     1      -0.017   1.379   0.010  0.00  0.00    +0.001 A 
ATOM     25  C   UNL     1       1.166   2.089   0.002  0.00  0.00    +0.011 A 
ATOM     26  C   UNL     1       2.386   1.407  -0.013  0.00  0.00    +0.018 A 
ATOM     27  C   UNL     1       2.397   0.009  -0.021  0.00  0.00    +0.024 A 
ATOM     28  C   UNL     1       1.206  -0.687  -0.013  0.00  0.00    +0.055 A 
ATOM     29  C   UNL     1       0.002  -0.004   0.002  0.00  0.00    +0.012 A 
BRANCH  28  30
ATOM     30  C   UNL     1       1.216  -2.194  -0.021  0.00  0.00    +0.417 C 
ATOM     31  F   UNL     1       1.232  -2.667   1.295  0.00  0.00    -0.166 F 
ATOM     32  F   UNL     1       0.070  -2.664  -0.672  0.00  0.00    -0.166 F 
ATOM     33  F   UNL     1       2.355  -2.649  -0.694  0.00  0.00    -0.166 F 
ENDBRANCH  28  30
ENDBRANCH  19  26
ENDBRANCH   1  22
TORSDOF 4
