REMARK  Name = ZINC27489162
REMARK  6 active torsions:
REMARK  status: ('A' for Active; 'I' for Inactive)
REMARK    1  A    between atoms: C_1  and  C_2
REMARK    2  A    between atoms: C_7  and  C_8
REMARK    3  A    between atoms: C_11  and  C_13
REMARK    4  A    between atoms: C_13  and  C_14
REMARK    5  A    between atoms: N_16  and  N_17
REMARK    6  A    between atoms: C_18  and  C_19
REMARK                            x       y       z     vdW  Elec       q    Type
REMARK                         _______ _______ _______ _____ _____    ______ ____
ROOT
ATOM      1  C   UNL     1       1.130   3.599   0.010  0.00  0.00    +0.044 C 
ATOM      2  C   UNL     1       1.156   2.092   0.002  0.00  0.00    -0.045 A 
ATOM      3  C   UNL     1      -0.017   1.401   0.010  0.00  0.00    +0.033 A 
ATOM      4  C   UNL     1       0.002  -0.004   0.002  0.00  0.00    +0.088 A 
ATOM      5  C   UNL     1       1.247  -0.681  -0.013  0.00  0.00    +0.068 A 
ATOM      6  C   UNL     1       2.437   0.066  -0.021  0.00  0.00    +0.031 A 
ATOM      7  C   UNL     1       2.380   1.427  -0.013  0.00  0.00    -0.045 A 
ATOM      8  C   UNL     1       3.659   2.224  -0.021  0.00  0.00    +0.044 C 
ATOM      9  N   UNL     1       1.273  -2.019  -0.021  0.00  0.00    -0.319 N 
ATOM     10  C   UNL     1       0.141  -2.694  -0.015  0.00  0.00    +0.271 A 
ATOM     11  C   UNL     1      -1.091  -2.020   0.001  0.00  0.00    +0.115 A 
ATOM     12  N   UNL     1      -1.136  -0.709   0.009  0.00  0.00    -0.244 NA
ATOM     13  O   UNL     1       0.166  -4.049  -0.022  0.00  0.00    -0.266 OA
ATOM     14  H   UNL     1       2.236  -2.551  -0.032  0.00  0.00    +0.169 HD
ENDROOT
BRANCH  11  15
ATOM     15  C   UNL     1      -2.374  -2.811   0.009  0.00  0.00    +0.158 C 
BRANCH  15  16
ATOM     16  C   UNL     1      -2.815  -3.066  -1.409  0.00  0.00    +0.238 C 
ATOM     17  O   UNL     1      -2.153  -2.647  -2.336  0.00  0.00    -0.274 OA
ATOM     18  N   UNL     1      -3.946  -3.760  -1.649  0.00  0.00    -0.207 N 
ATOM     19  H   UNL     1      -4.546  -4.139  -0.809  0.00  0.00    +0.177 HD
BRANCH  18  20
ATOM     20  N   UNL     1      -4.356  -3.997  -2.967  0.00  0.00    -0.188 NA
ATOM     21  C   UNL     1      -5.445  -4.665  -3.197  0.00  0.00    +0.141 C 
BRANCH  21  22
ATOM     22  C   UNL     1      -5.877  -4.915  -4.585  0.00  0.00    +0.030 A 
ATOM     23  C   UNL     1      -7.045  -5.639  -4.837  0.00  0.00    +0.012 A 
ATOM     24  C   UNL     1      -7.446  -5.864  -6.137  0.00  0.00    +0.001 A 
ATOM     25  C   UNL     1      -6.689  -5.385  -7.192  0.00  0.00    +0.003 A 
ATOM     26  C   UNL     1      -5.528  -4.673  -6.953  0.00  0.00    +0.039 A 
ATOM     27  C   UNL     1      -5.116  -4.434  -5.655  0.00  0.00    +0.132 A 
ATOM     28  F   UNL     1      -3.981  -3.738  -5.422  0.00  0.00    -0.205 F 
ENDBRANCH  21  22
ENDBRANCH  18  20
ENDBRANCH  15  16
ENDBRANCH  11  15
TORSDOF 4
