REMARK  Name = ZINC67010581
REMARK  13 active torsions:
REMARK  status: ('A' for Active; 'I' for Inactive)
REMARK    1  A    between atoms: C_1  and  C_2
REMARK    2  A    between atoms: C_2  and  C_4
REMARK    3  A    between atoms: C_2  and  N_16
REMARK    4  A    between atoms: C_8  and  S_10
REMARK    5  A    between atoms: S_10  and  N_13
REMARK    6  A    between atoms: N_13  and  C_14
REMARK    7  A    between atoms: N_13  and  C_15
REMARK    8  A    between atoms: N_16  and  C_17
REMARK    9  A    between atoms: C_17  and  C_18
REMARK   10  A    between atoms: C_21  and  C_23
REMARK   11  A    between atoms: C_23  and  C_24
REMARK   12  A    between atoms: C_23  and  C_25
REMARK   13  A    between atoms: C_23  and  C_26
REMARK                            x       y       z     vdW  Elec       q    Type
REMARK                         _______ _______ _______ _____ _____    ______ ____
ROOT
ATOM      1  C   UNL     1      -0.019   1.526   0.010  0.00  0.00    -0.009 C 
ATOM      2  C   UNL     1       0.002  -0.004   0.002  0.00  0.00    -0.043 C 
ENDROOT
BRANCH   2   3
ATOM      3  C   UNL     1       0.707  -0.490  -1.238  0.00  0.00    -0.060 A 
ATOM      4  C   UNL     1       2.089  -0.511  -1.284  0.00  0.00    +0.002 A 
ATOM      5  C   UNL     1       2.736  -0.957  -2.421  0.00  0.00    +0.002 A 
ATOM      6  C   UNL     1       2.002  -1.382  -3.512  0.00  0.00    +0.028 A 
ATOM      7  C   UNL     1       0.620  -1.362  -3.466  0.00  0.00    +0.106 A 
ATOM      8  C   UNL     1      -0.027  -0.920  -2.327  0.00  0.00    +0.030 A 
BRANCH   7   9
ATOM      9  S   UNL     1      -0.316  -1.904  -4.857  0.00  0.00    +0.060 S 
ATOM     10  O   UNL     1      -1.586  -1.274  -4.762  0.00  0.00    -0.153 OA
ATOM     11  O   UNL     1       0.524  -1.758  -5.994  0.00  0.00    -0.153 OA
BRANCH   9  12
ATOM     12  N   UNL     1      -0.578  -3.528  -4.668  0.00  0.00    -0.183 NA
ATOM     13  C   UNL     1      -1.768  -4.000  -3.957  0.00  0.00    +0.131 C 
ATOM     14  C   UNL     1       0.381  -4.493  -5.212  0.00  0.00    +0.131 C 
ENDBRANCH   9  12
ENDBRANCH   7   9
ENDBRANCH   2   3
BRANCH   2  15
ATOM     15  N   UNL     1       0.713  -0.491   1.192  0.00  0.00    +0.387 N 
ATOM     16  H   UNL     1       0.798  -1.495   1.145  0.00  0.00    -0.085 HD
ATOM     17  H   UNL     1       1.632  -0.076   1.228  0.00  0.00    -0.085 HD
BRANCH  15  18
ATOM     18  C   UNL     1      -0.040  -0.119   2.398  0.00  0.00    -0.025 C 
BRANCH  18  19
ATOM     19  C   UNL     1       0.689  -0.618   3.619  0.00  0.00    +0.032 A 
ATOM     20  C   UNL     1       1.539   0.180   4.314  0.00  0.00    +0.068 A 
ATOM     21  S   UNL     1       2.066  -0.941   5.599  0.00  0.00    -0.080 S 
ATOM     22  C   UNL     1       1.165  -2.280   5.122  0.00  0.00    +0.084 A 
ATOM     23  N   UNL     1       0.526  -1.848   4.064  0.00  0.00    -0.250 NA
BRANCH  22  24
ATOM     24  C   UNL     1       1.103  -3.643   5.762  0.00  0.00    +0.011 C 
ATOM     25  C   UNL     1       1.560  -4.700   4.755  0.00  0.00    +0.017 C 
ATOM     26  C   UNL     1       2.021  -3.675   6.986  0.00  0.00    +0.017 C 
ATOM     27  C   UNL     1      -0.335  -3.939   6.195  0.00  0.00    +0.017 C 
ENDBRANCH  22  24
ENDBRANCH  18  19
ENDBRANCH  15  18
ENDBRANCH   2  15
TORSDOF 7
