REMARK  Name = ZINC36597485
REMARK  11 active torsions:
REMARK  status: ('A' for Active; 'I' for Inactive)
REMARK    1  A    between atoms: C_1  and  C_2
REMARK    2  A    between atoms: C_7  and  C_8
REMARK    3  A    between atoms: C_8  and  C_10
REMARK    4  A    between atoms: C_8  and  N_19
REMARK    5  A    between atoms: N_12  and  C_13
REMARK    6  A    between atoms: N_19  and  C_20
REMARK    7  A    between atoms: C_20  and  C_21
REMARK    8  A    between atoms: C_24  and  C_26
REMARK    9  A    between atoms: C_27  and  C_29
REMARK   10  A    between atoms: C_30  and  O_36
REMARK   11  A    between atoms: C_34  and  O_35
REMARK                            x       y       z     vdW  Elec       q    Type
REMARK                         _______ _______ _______ _____ _____    ______ ____
ROOT
ATOM      1  N   UNL     1      -0.376  -0.170   3.688  0.00  0.00    -0.274 N 
ATOM      2  C   UNL     1      -0.889   0.692   4.589  0.00  0.00    +0.255 C 
ATOM      3  O   UNL     1      -0.873   1.887   4.364  0.00  0.00    -0.270 OA
ENDROOT
BRANCH   2   4
ATOM      4  C   UNL     1      -1.469   0.187   5.844  0.00  0.00    +0.119 A 
ATOM      5  C   UNL     1      -0.664   0.036   6.983  0.00  0.00    +0.133 A 
ATOM      6  C   UNL     1      -1.220  -0.440   8.160  0.00  0.00    +0.046 A 
ATOM      7  C   UNL     1      -2.563  -0.766   8.213  0.00  0.00    +0.007 A 
ATOM      8  C   UNL     1      -3.364  -0.622   7.096  0.00  0.00    +0.046 A 
ATOM      9  C   UNL     1      -2.830  -0.142   5.911  0.00  0.00    +0.133 A 
BRANCH   9  10
ATOM     10  O   UNL     1      -3.621   0.004   4.819  0.00  0.00    -0.506 OA
ATOM     11  H   UNL     1      -3.662  -0.781   4.255  0.00  0.00    +0.292 HD
ENDBRANCH   9  10
BRANCH   5  12
ATOM     12  O   UNL     1       0.653   0.355   6.933  0.00  0.00    -0.506 OA
ATOM     13  H   UNL     1       0.845   1.275   7.163  0.00  0.00    +0.292 HD
ENDBRANCH   5  12
ENDBRANCH   2   4
BRANCH   1  14
ATOM     14  C   UNL     1       0.201   0.333   2.439  0.00  0.00    +0.193 C 
BRANCH  14  21
ATOM     15  C   UNL     1      -1.891  -1.036   0.990  0.00  0.00    +0.044 C 
ATOM     16  C   UNL     1      -0.458  -1.482   0.847  0.00  0.00    -0.045 A 
ATOM     17  C   UNL     1      -0.145  -2.543   0.018  0.00  0.00    +0.004 A 
ATOM     18  C   UNL     1       1.169  -2.953  -0.113  0.00  0.00    +0.000 A 
ATOM     19  C   UNL     1       2.169  -2.302   0.585  0.00  0.00    +0.000 A 
ATOM     20  C   UNL     1       1.855  -1.240   1.413  0.00  0.00    +0.006 A 
ATOM     21  C   UNL     1       0.542  -0.828   1.540  0.00  0.00    -0.015 A 
ENDBRANCH  14  21
BRANCH  14  22
ATOM     22  C   UNL     1       1.452   1.117   2.743  0.00  0.00    +0.238 C 
ATOM     23  O   UNL     1       2.049   0.927   3.781  0.00  0.00    -0.273 OA
ATOM     24  N   UNL     1       1.905   2.030   1.861  0.00  0.00    -0.311 N 
ATOM     25  H   UNL     1       1.388   2.237   1.068  0.00  0.00    +0.149 HD
BRANCH  24  26
ATOM     26  C   UNL     1       3.181   2.709   2.102  0.00  0.00    +0.073 C 
ATOM     27  C   UNL     1       2.951   3.918   3.011  0.00  0.00    +0.022 C 
ATOM     28  C   UNL     1       4.283   4.628   3.262  0.00  0.00    +0.002 C 
ATOM     29  C   UNL     1       4.871   5.096   1.929  0.00  0.00    +0.000 C 
ATOM     30  C   UNL     1       5.100   3.888   1.020  0.00  0.00    +0.002 C 
ATOM     31  C   UNL     1       3.768   3.178   0.769  0.00  0.00    +0.022 C 
ENDBRANCH  24  26
ENDBRANCH  14  22
ENDBRANCH   1  14
BRANCH   1  32
ATOM     32  C   UNL     1      -0.395  -1.610   3.959  0.00  0.00    +0.183 C 
BRANCH  32  33
ATOM     33  C   UNL     1       0.917  -2.022   4.575  0.00  0.00    +0.122 A 
ATOM     34  C   UNL     1       1.160  -2.161   5.891  0.00  0.00    +0.046 A 
ATOM     35  C   UNL     1       2.510  -2.559   6.019  0.00  0.00    +0.045 A 
ATOM     36  C   UNL     1       3.012  -2.640   4.774  0.00  0.00    +0.102 A 
ATOM     37  O   UNL     1       2.042  -2.319   3.903  0.00  0.00    -0.463 OA
ATOM     38  C   UNL     1       4.423  -3.030   4.416  0.00  0.00    +0.086 C 
ENDBRANCH  32  33
ENDBRANCH   1  32
TORSDOF 9
