REMARK  Name = ZINC19973147
REMARK  11 active torsions:
REMARK  status: ('A' for Active; 'I' for Inactive)
REMARK    1  A    between atoms: C_1  and  C_2
REMARK    2  A    between atoms: C_7  and  N_8
REMARK    3  A    between atoms: N_11  and  C_14
REMARK    4  A    between atoms: C_14  and  C_16
REMARK    5  A    between atoms: C_14  and  C_30
REMARK    6  A    between atoms: C_20  and  C_29
REMARK    7  A    between atoms: C_22  and  C_28
REMARK    8  A    between atoms: N_34  and  C_35
REMARK    9  A    between atoms: C_35  and  C_36
REMARK   10  A    between atoms: C_36  and  O_37
REMARK   11  A    between atoms: O_37  and  C_38
REMARK                            x       y       z     vdW  Elec       q    Type
REMARK                         _______ _______ _______ _____ _____    ______ ____
ROOT
ATOM      1  C   UNL     1       1.153   3.573  -0.039  0.00  0.00    +0.162 C 
ENDROOT
BRANCH   1   2
ATOM      2  C   UNL     1       0.968   2.083  -0.173  0.00  0.00    +0.042 A 
ATOM      3  C   UNL     1      -0.282   1.558  -0.216  0.00  0.00    +0.021 A 
ATOM      4  C   UNL     1      -0.427   0.107  -0.347  0.00  0.00    -0.001 A 
ATOM      5  C   UNL     1      -1.690  -0.492  -0.398  0.00  0.00    +0.013 A 
ATOM      6  C   UNL     1      -1.792  -1.848  -0.521  0.00  0.00    -0.050 A 
ATOM      7  C   UNL     1      -0.652  -2.638  -0.596  0.00  0.00    +0.008 A 
ATOM      8  C   UNL     1       0.602  -2.069  -0.548  0.00  0.00    -0.026 A 
ATOM      9  C   UNL     1       0.730  -0.690  -0.423  0.00  0.00    +0.052 A 
ATOM     10  N   UNL     1       1.973  -0.094  -0.373  0.00  0.00    -0.322 N 
ATOM     11  H   UNL     1       2.881  -0.712  -0.433  0.00  0.00    +0.169 HD
ATOM     12  C   UNL     1       2.096   1.239  -0.253  0.00  0.00    +0.254 A 
ATOM     13  O   UNL     1       3.210   1.731  -0.212  0.00  0.00    -0.268 OA
ATOM     14  C   UNL     1       1.830  -2.939  -0.631  0.00  0.00    +0.046 C 
ATOM     15  C   UNL     1      -3.152  -2.493  -0.575  0.00  0.00    +0.044 C 
ENDBRANCH   1   2
BRANCH   1  19
ATOM     16  N   UNL     1       2.736   5.670  -3.347  0.00  0.00    -0.327 N 
ATOM     17  C   UNL     1       2.432   4.242  -3.518  0.00  0.00    +0.120 C 
ATOM     18  C   UNL     1       1.448   3.799  -2.432  0.00  0.00    +0.104 C 
ATOM     19  N   UNL     1       2.036   4.055  -1.109  0.00  0.00    -0.286 NA
ATOM     20  C   UNL     1       2.340   5.482  -0.938  0.00  0.00    +0.104 C 
ATOM     21  C   UNL     1       3.323   5.926  -2.024  0.00  0.00    +0.120 C 
BRANCH  16  28
ATOM     22  C   UNL     1       1.716   7.618  -5.151  0.00  0.00    +0.045 C 
ATOM     23  C   UNL     1       3.119   7.080  -5.268  0.00  0.00    -0.029 A 
ATOM     24  C   UNL     1       3.952   7.532  -6.273  0.00  0.00    +0.006 A 
ATOM     25  C   UNL     1       5.239   7.038  -6.381  0.00  0.00    +0.020 A 
ATOM     26  C   UNL     1       5.697   6.090  -5.482  0.00  0.00    +0.043 A 
ATOM     27  C   UNL     1       4.871   5.638  -4.472  0.00  0.00    +0.043 A 
ATOM     28  C   UNL     1       3.575   6.128  -4.364  0.00  0.00    +0.034 A 
ATOM     29 CL   UNL     1       7.314   5.474  -5.621  0.00  0.00    -0.083 Cl
ENDBRANCH  16  28
ENDBRANCH   1  19
BRANCH   1  30
ATOM     30  C   UNL     1       1.770   3.884   1.300  0.00  0.00    +0.173 A 
ATOM     31  N   UNL     1       3.021   3.703   1.647  0.00  0.00    -0.111 NA
ATOM     32  N   UNL     1       3.156   4.090   2.868  0.00  0.00    -0.023 NA
ATOM     33  N   UNL     1       2.023   4.514   3.310  0.00  0.00    -0.044 NA
ATOM     34  N   UNL     1       1.145   4.408   2.371  0.00  0.00    -0.225 N 
BRANCH  34  35
ATOM     35  C   UNL     1      -0.269   4.784   2.456  0.00  0.00    +0.175 C 
BRANCH  35  36
ATOM     36  C   UNL     1      -1.087   3.587   2.945  0.00  0.00    +0.183 C 
BRANCH  36  37
ATOM     37  O   UNL     1      -2.465   3.954   3.027  0.00  0.00    -0.381 OA
ATOM     38  C   UNL     1      -3.321   2.901   3.477  0.00  0.00    +0.194 C 
ENDBRANCH  36  37
ENDBRANCH  35  36
ENDBRANCH  34  35
ENDBRANCH   1  30
TORSDOF 7
