REMARK  Name = ZINC62274790
REMARK  6 active torsions:
REMARK  status: ('A' for Active; 'I' for Inactive)
REMARK    1  A    between atoms: C_1  and  C_2
REMARK    2  A    between atoms: C_7  and  C_8
REMARK    3  A    between atoms: C_10  and  C_13
REMARK    4  A    between atoms: C_13  and  C_14
REMARK    5  A    between atoms: N_16  and  C_17
REMARK    6  A    between atoms: C_22  and  C_29
REMARK                            x       y       z     vdW  Elec       q    Type
REMARK                         _______ _______ _______ _____ _____    ______ ____
ROOT
ATOM      1  C   UNL     1       1.442  -0.220   6.625  0.00  0.00    +0.226 C 
ATOM      2  O   UNL     1       2.337  -0.066   5.820  0.00  0.00    -0.275 OA
ATOM      3  N   UNL     1       1.724  -0.287   7.941  0.00  0.00    -0.285 N 
ATOM      4  H   UNL     1       1.019  -0.484   8.578  0.00  0.00    +0.155 HD
ENDROOT
BRANCH   3   5
ATOM      5  C   UNL     1       3.029  -0.073   8.387  0.00  0.00    +0.035 A 
ATOM      6  C   UNL     1       3.848   0.837   7.718  0.00  0.00    +0.024 A 
ATOM      7  C   UNL     1       5.126   1.059   8.141  0.00  0.00    +0.012 A 
ATOM      8  C   UNL     1       5.620   0.369   9.254  0.00  0.00    -0.001 A 
ATOM      9  C   UNL     1       6.986   0.585   9.731  0.00  0.00    +0.018 A 
ATOM     10  C   UNL     1       7.412  -0.110  10.816  0.00  0.00    +0.014 A 
ATOM     11  C   UNL     1       6.550  -1.020  11.461  0.00  0.00    +0.252 A 
ATOM     12  O   UNL     1       6.954  -1.635  12.433  0.00  0.00    -0.268 OA
ATOM     13  N   UNL     1       5.293  -1.226  11.031  0.00  0.00    -0.322 N 
ATOM     14  H   UNL     1       4.725  -1.859  11.498  0.00  0.00    +0.169 HD
ATOM     15  C   UNL     1       4.798  -0.551   9.935  0.00  0.00    +0.051 A 
ATOM     16  C   UNL     1       3.498  -0.761   9.495  0.00  0.00    +0.049 A 
ATOM     17  C   UNL     1       8.814   0.090  11.332  0.00  0.00    +0.049 C 
ENDBRANCH   3   5
BRANCH   1  18
ATOM     18  C   UNL     1       0.016  -0.337   6.152  0.00  0.00    +0.194 C 
BRANCH  18  21
ATOM     19  C   UNL     1      -0.009  -0.773   2.549  0.00  0.00    +0.202 A 
ATOM     20  N   UNL     1       0.065  -1.226   3.813  0.00  0.00    -0.191 NA
ATOM     21  C   UNL     1      -0.025  -0.231   4.649  0.00  0.00    +0.237 A 
ATOM     22  O   UNL     1      -0.162   0.901   3.948  0.00  0.00    -0.337 OA
ATOM     23  N   UNL     1      -0.143   0.529   2.578  0.00  0.00    -0.056 NA
BRANCH  19  30
ATOM     24  C   UNL     1       2.030  -2.812   2.312  0.00  0.00    +0.044 C 
ATOM     25  C   UNL     1       1.034  -2.594   1.202  0.00  0.00    -0.040 A 
ATOM     26  C   UNL     1       1.087  -3.373   0.064  0.00  0.00    +0.004 A 
ATOM     27  C   UNL     1       0.174  -3.174  -0.956  0.00  0.00    +0.000 A 
ATOM     28  C   UNL     1      -0.796  -2.195  -0.842  0.00  0.00    +0.001 A 
ATOM     29  C   UNL     1      -0.857  -1.410   0.292  0.00  0.00    +0.012 A 
ATOM     30  C   UNL     1       0.056  -1.610   1.325  0.00  0.00    +0.025 A 
ENDBRANCH  19  30
ENDBRANCH  18  21
ENDBRANCH   1  18
TORSDOF 4
