REMARK  Name = ZINC48185331
REMARK  8 active torsions:
REMARK  status: ('A' for Active; 'I' for Inactive)
REMARK    1  A    between atoms: C_1  and  C_2
REMARK    2  A    between atoms: C_2  and  C_4
REMARK    3  A    between atoms: C_2  and  S_21
REMARK    4  A    between atoms: N_6  and  N_7
REMARK    5  A    between atoms: C_8  and  C_10
REMARK    6  A    between atoms: S_21  and  C_22
REMARK    7  A    between atoms: C_25  and  N_28
REMARK    8  A    between atoms: C_29  and  C_31
REMARK                            x       y       z     vdW  Elec       q    Type
REMARK                         _______ _______ _______ _____ _____    ______ ____
ROOT
ATOM      1  C   UNL     1       0.819  -0.324  -1.306  0.00  0.00    +0.242 C 
ATOM      2  O   UNL     1       2.009  -0.555  -1.256  0.00  0.00    -0.273 OA
ATOM      3  N   UNL     1       0.176  -0.352  -2.490  0.00  0.00    -0.233 N 
ATOM      4  H   UNL     1      -0.775  -0.166  -2.530  0.00  0.00    +0.173 HD
ENDROOT
BRANCH   3   5
ATOM      5  N   UNL     1       0.882  -0.649  -3.663  0.00  0.00    -0.231 N 
ATOM      6  C   UNL     1       0.239  -0.677  -4.848  0.00  0.00    +0.273 C 
ATOM      7  O   UNL     1      -0.950  -0.445  -4.898  0.00  0.00    -0.270 OA
ATOM      8  H   UNL     1       1.833  -0.834  -3.623  0.00  0.00    +0.173 HD
BRANCH   6   9
ATOM      9  C   UNL     1       0.999  -0.996  -6.110  0.00  0.00    +0.297 C 
ATOM     10  C   UNL     1       2.018   0.115  -6.395  0.00  0.00    +0.283 C 
ATOM     11  O   UNL     1       2.710  -0.213  -7.605  0.00  0.00    -0.484 OA
ATOM     12  C   UNL     1       1.946  -0.620  -8.655  0.00  0.00    +0.162 A 
ATOM     13  C   UNL     1       2.483  -0.604  -9.934  0.00  0.00    +0.049 A 
ATOM     14  C   UNL     1       1.721  -1.018 -11.010  0.00  0.00    +0.004 A 
ATOM     15  C   UNL     1       0.422  -1.449 -10.815  0.00  0.00    +0.004 A 
ATOM     16  C   UNL     1      -0.119  -1.467  -9.544  0.00  0.00    +0.049 A 
ATOM     17  C   UNL     1       0.640  -1.052  -8.460  0.00  0.00    +0.163 A 
ATOM     18  O   UNL     1       0.091  -1.068  -7.214  0.00  0.00    -0.472 OA
ENDBRANCH   6   9
ENDBRANCH   3   5
BRANCH   1  20
ATOM     19  C   UNL     1      -0.131   1.510   0.067  0.00  0.00    +0.029 C 
ATOM     20  C   UNL     1       0.060  -0.004  -0.044  0.00  0.00    +0.135 C 
BRANCH  20  21
ATOM     21  S   UNL     1       0.994  -0.603   1.391  0.00  0.00    -0.113 S 
BRANCH  21  22
ATOM     22  C   UNL     1       0.923  -2.357   1.245  0.00  0.00    +0.009 A 
ATOM     23  C   UNL     1       0.153  -2.940   0.246  0.00  0.00    +0.016 A 
ATOM     24  C   UNL     1       0.097  -4.315   0.132  0.00  0.00    +0.024 A 
ATOM     25  C   UNL     1       0.812  -5.115   1.014  0.00  0.00    +0.033 A 
ATOM     26  C   UNL     1       1.582  -4.532   2.012  0.00  0.00    +0.024 A 
ATOM     27  C   UNL     1       1.643  -3.157   2.124  0.00  0.00    +0.016 A 
BRANCH  25  28
ATOM     28  N   UNL     1       0.755  -6.510   0.898  0.00  0.00    -0.286 N 
ATOM     29  C   UNL     1       0.621  -7.080  -0.316  0.00  0.00    +0.214 C 
ATOM     30  O   UNL     1       0.642  -6.392  -1.315  0.00  0.00    -0.276 OA
ATOM     31  C   UNL     1       0.444  -8.572  -0.432  0.00  0.00    +0.109 C 
ATOM     32  H   UNL     1       0.813  -7.066   1.691  0.00  0.00    +0.155 HD
ENDBRANCH  25  28
ENDBRANCH  21  22
ENDBRANCH  20  21
ENDBRANCH   1  20
TORSDOF 6
