REMARK  Name = ZINC13427034
REMARK  8 active torsions:
REMARK  status: ('A' for Active; 'I' for Inactive)
REMARK    1  A    between atoms: C_1  and  O_2
REMARK    2  A    between atoms: O_2  and  C_3
REMARK    3  A    between atoms: C_6  and  C_9
REMARK    4  A    between atoms: C_9  and  C_11
REMARK    5  A    between atoms: C_13  and  C_25
REMARK    6  A    between atoms: C_19  and  C_20
REMARK    7  A    between atoms: C_19  and  O_24
REMARK    8  A    between atoms: C_28  and  O_31
REMARK                            x       y       z     vdW  Elec       q    Type
REMARK                         _______ _______ _______ _____ _____    ______ ____
ROOT
ATOM      1  C   UNL     1      -6.566  -1.091   0.251  0.00  0.00    +0.144 C 
ATOM      2  C   UNL     1      -7.692  -1.747   1.057  0.00  0.00    +0.120 C 
ATOM      3  N   UNL     1      -8.392  -0.712   1.827  0.00  0.00    -0.292 N 
ATOM      4  C   UNL     1      -8.460   0.556   1.394  0.00  0.00    +0.302 C 
ATOM      5  O   UNL     1      -9.061   1.371   2.067  0.00  0.00    -0.253 OA
ATOM      6  N   UNL     1      -7.891   0.960   0.249  0.00  0.00    -0.264 N 
ATOM      7  C   UNL     1      -7.164   0.025  -0.612  0.00  0.00    +0.243 C 
ATOM      8  H   UNL     1      -8.815  -0.950   2.667  0.00  0.00    +0.151 HD
ATOM      9  H   UNL     1      -7.962   1.891  -0.015  0.00  0.00    +0.153 HD
ENDROOT
BRANCH   2  10
ATOM     10  C   UNL     1      -7.109  -2.773   1.995  0.00  0.00    -0.026 A 
ATOM     11  C   UNL     1      -6.642  -2.386   3.237  0.00  0.00    +0.009 A 
ATOM     12  C   UNL     1      -6.113  -3.325   4.101  0.00  0.00    +0.046 A 
ATOM     13  C   UNL     1      -6.039  -4.656   3.716  0.00  0.00    +0.117 A 
ATOM     14  C   UNL     1      -6.503  -5.041   2.466  0.00  0.00    +0.046 A 
ATOM     15  C   UNL     1      -7.037  -4.098   1.609  0.00  0.00    +0.009 A 
BRANCH  13  16
ATOM     16  O   UNL     1      -5.514  -5.581   4.561  0.00  0.00    -0.507 OA
ATOM     17  H   UNL     1      -4.560  -5.706   4.464  0.00  0.00    +0.292 HD
ENDBRANCH  13  16
ENDBRANCH   2  10
BRANCH   7  18
ATOM     18  C   UNL     1      -6.041   0.767  -1.339  0.00  0.00    +0.436 C 
ATOM     19  F   UNL     1      -5.261  -0.151  -2.051  0.00  0.00    -0.166 F 
ATOM     20  F   UNL     1      -6.594   1.696  -2.227  0.00  0.00    -0.166 F 
ATOM     21  F   UNL     1      -5.241   1.433  -0.405  0.00  0.00    -0.166 F 
ENDBRANCH   7  18
BRANCH   1  22
ATOM     22  C   UNL     1      -5.542  -0.510   1.192  0.00  0.00    +0.173 C 
ATOM     23  O   UNL     1      -5.858   0.375   1.960  0.00  0.00    -0.292 OA
BRANCH  22  27
ATOM     24  C   UNL     1      -1.565  -1.965   1.157  0.00  0.00    +0.120 A 
ATOM     25  C   UNL     1      -2.534  -2.579   0.371  0.00  0.00    +0.046 A 
ATOM     26  C   UNL     1      -3.825  -2.115   0.383  0.00  0.00    +0.015 A 
ATOM     27  C   UNL     1      -4.163  -1.014   1.180  0.00  0.00    +0.018 A 
ATOM     28  C   UNL     1      -3.182  -0.397   1.966  0.00  0.00    +0.015 A 
ATOM     29  C   UNL     1      -1.896  -0.872   1.951  0.00  0.00    +0.046 A 
BRANCH  24  31
ATOM     30  C   UNL     1      -0.019  -3.557   0.309  0.00  0.00    +0.277 C 
ATOM     31  O   UNL     1      -0.291  -2.431   1.146  0.00  0.00    -0.495 OA
ENDBRANCH  24  31
ENDBRANCH  22  27
ENDBRANCH   1  22
BRANCH   7  32
ATOM     32  O   UNL     1      -8.061  -0.541  -1.569  0.00  0.00    -0.364 OA
ATOM     33  H   UNL     1      -8.478   0.110  -2.151  0.00  0.00    +0.212 HD
ENDBRANCH   7  32
TORSDOF 7
