REMARK  Name = ZINC39945782
REMARK  5 active torsions:
REMARK  status: ('A' for Active; 'I' for Inactive)
REMARK    1  A    between atoms: C_1  and  C_2
REMARK    2  A    between atoms: C_10  and  C_14
REMARK    3  A    between atoms: C_14  and  S_15
REMARK    4  A    between atoms: S_15  and  C_16
REMARK    5  A    between atoms: N_25  and  C_26
REMARK                            x       y       z     vdW  Elec       q    Type
REMARK                         _______ _______ _______ _____ _____    ______ ____
ROOT
ATOM      1  S   UNL     1      -3.482  -6.784   4.878  0.00  0.00    -0.080 S 
ENDROOT
BRANCH   1   2
ATOM      2  C   UNL     1      -3.732  -7.841   6.265  0.00  0.00    +0.173 A 
ATOM      3  N   UNL     1      -2.798  -7.933   7.190  0.00  0.00    -0.216 NA
ATOM      4  C   UNL     1      -2.959  -8.721   8.246  0.00  0.00    +0.116 A 
ATOM      5  C   UNL     1      -4.122  -9.492   8.432  0.00  0.00    +0.072 A 
ATOM      6  C   UNL     1      -4.135 -10.298   9.640  0.00  0.00    +0.023 A 
ATOM      7  C   UNL     1      -3.080 -10.257  10.467  0.00  0.00    +0.048 A 
ATOM      8  S   UNL     1      -1.972  -9.111   9.668  0.00  0.00    -0.077 S 
ATOM      9  C   UNL     1      -5.118  -9.373   7.412  0.00  0.00    +0.263 A 
ATOM     10  O   UNL     1      -6.159 -10.003   7.489  0.00  0.00    -0.267 OA
ATOM     11  N   UNL     1      -4.894  -8.550   6.371  0.00  0.00    -0.284 N 
BRANCH  11  12
ATOM     12  C   UNL     1      -5.913  -8.419   5.327  0.00  0.00    +0.093 C 
ATOM     13  C   UNL     1      -7.211  -7.893   5.944  0.00  0.00    +0.025 C 
ATOM     14  C   UNL     1      -8.275  -7.756   4.853  0.00  0.00    +0.002 C 
ATOM     15  C   UNL     1      -8.531  -9.123   4.216  0.00  0.00    +0.000 C 
ATOM     16  C   UNL     1      -7.234  -9.649   3.599  0.00  0.00    +0.002 C 
ATOM     17  C   UNL     1      -6.169  -9.786   4.689  0.00  0.00    +0.025 C 
ENDBRANCH  11  12
ENDBRANCH   1   2
BRANCH   1  18
ATOM     18  C   UNL     1      -1.840  -6.069   5.162  0.00  0.00    +0.150 C 
BRANCH  18  27
ATOM     19  C   UNL     1      -0.019   1.526   0.010  0.00  0.00    +0.007 C 
ATOM     20  C   UNL     1       0.002  -0.004   0.002  0.00  0.00    -0.012 C 
ATOM     21  C   UNL     1      -1.433  -0.525  -0.005  0.00  0.00    +0.008 C 
ATOM     22  C   UNL     1      -1.445  -2.057  -0.096  0.00  0.00    +0.033 C 
ATOM     23  C   UNL     1      -0.553  -2.568   1.033  0.00  0.00    -0.042 C 
ATOM     24  C   UNL     1      -0.928  -3.448   1.962  0.00  0.00    +0.071 C 
ATOM     25  C   UNL     1      -0.010  -3.701   3.104  0.00  0.00    +0.111 C 
ATOM     26  N   UNL     1      -0.317  -4.516   4.085  0.00  0.00    -0.227 NA
ATOM     27  C   UNL     1      -1.498  -5.132   4.032  0.00  0.00    +0.134 C 
ATOM     28  N   UNL     1      -2.385  -4.990   3.081  0.00  0.00    -0.160 NA
ATOM     29  C   UNL     1      -2.232  -4.190   2.010  0.00  0.00    +0.271 C 
ATOM     30  O   UNL     1      -3.086  -4.076   1.147  0.00  0.00    -0.268 OA
ATOM     31  S   UNL     1       1.412  -2.712   2.765  0.00  0.00    -0.097 S 
ATOM     32  C   UNL     1       0.874  -2.028   1.151  0.00  0.00    +0.080 C 
ATOM     33  C   UNL     1       0.760  -0.504   1.236  0.00  0.00    +0.022 C 
ENDBRANCH  18  27
ENDBRANCH   1  18
TORSDOF 4
