REMARK  Name = ZINC13679343
REMARK  6 active torsions:
REMARK  status: ('A' for Active; 'I' for Inactive)
REMARK    1  A    between atoms: C_1  and  S_2
REMARK    2  A    between atoms: S_2  and  N_5
REMARK    3  A    between atoms: N_5  and  C_6
REMARK    4  A    between atoms: N_5  and  C_26
REMARK    5  A    between atoms: C_6  and  C_7
REMARK    6  A    between atoms: C_10  and  C_13
REMARK                            x       y       z     vdW  Elec       q    Type
REMARK                         _______ _______ _______ _____ _____    ______ ____
ROOT
ATOM      1  C   UNL     1       1.559  -0.952  -0.031  0.00  0.00    -0.028 A 
ATOM      2  C   UNL     1       0.581  -0.008   0.223  0.00  0.00    +0.006 A 
ATOM      3  C   UNL     1       0.918   1.324   0.342  0.00  0.00    +0.013 A 
ATOM      4  C   UNL     1       2.250   1.719   0.205  0.00  0.00    +0.037 A 
ATOM      5  C   UNL     1       3.232   0.761  -0.051  0.00  0.00    +0.013 A 
ATOM      6  C   UNL     1       2.882  -0.568  -0.168  0.00  0.00    +0.006 A 
ENDROOT
BRANCH   4   7
ATOM      7  C   UNL     1       2.619   3.145   0.331  0.00  0.00    +0.251 C 
ATOM      8  O   UNL     1       1.934   3.999  -0.198  0.00  0.00    -0.270 OA
ATOM      9  N   UNL     1       3.714   3.498   1.033  0.00  0.00    -0.257 N 
ATOM     10  C   UNL     1       4.602   2.482   1.617  0.00  0.00    +0.210 C 
ATOM     11  C   UNL     1       5.006   2.911   2.999  0.00  0.00    +0.235 C 
ATOM     12  O   UNL     1       5.267   2.071   3.835  0.00  0.00    -0.274 OA
ATOM     13  N   UNL     1       5.077   4.216   3.324  0.00  0.00    -0.283 N 
ATOM     14  C   UNL     1       4.733   5.204   2.394  0.00  0.00    +0.055 A 
ATOM     15  C   UNL     1       4.039   4.848   1.236  0.00  0.00    +0.058 A 
ATOM     16  C   UNL     1       3.686   5.814   0.312  0.00  0.00    +0.025 A 
ATOM     17  C   UNL     1       4.026   7.137   0.538  0.00  0.00    +0.002 A 
ATOM     18  C   UNL     1       4.715   7.491   1.683  0.00  0.00    +0.002 A 
ATOM     19  C   UNL     1       5.069   6.530   2.612  0.00  0.00    +0.025 A 
ATOM     20  H   UNL     1       5.370   4.474   4.212  0.00  0.00    +0.155 HD
ENDBRANCH   4   7
BRANCH   1  21
ATOM     21  C   UNL     1       1.184  -2.406  -0.160  0.00  0.00    +0.166 C 
BRANCH  21  22
ATOM     22  N   UNL     1       0.872  -2.708  -1.559  0.00  0.00    -0.202 N 
BRANCH  22  23
ATOM     23  C   UNL     1       1.900  -3.034  -2.449  0.00  0.00    +0.071 A 
ATOM     24  C   UNL     1       2.605  -2.027  -3.095  0.00  0.00    +0.026 A 
ATOM     25  C   UNL     1       3.620  -2.351  -3.974  0.00  0.00    +0.003 A 
ATOM     26  C   UNL     1       3.935  -3.676  -4.212  0.00  0.00    +0.021 A 
ATOM     27  C   UNL     1       3.235  -4.683  -3.570  0.00  0.00    +0.061 A 
ATOM     28  C   UNL     1       2.221  -4.365  -2.684  0.00  0.00    +0.082 A 
ATOM     29 CL   UNL     1       1.347  -5.627  -1.874  0.00  0.00    -0.080 Cl
ATOM     30 CL   UNL     1       3.634  -6.345  -3.872  0.00  0.00    -0.082 Cl
ENDBRANCH  22  23
BRANCH  22  32
ATOM     31  C   UNL     1      -0.983  -0.935  -2.555  0.00  0.00    +0.218 C 
ATOM     32  S   UNL     1      -0.697  -2.664  -2.087  0.00  0.00    +0.043 S 
ATOM     33  O   UNL     1      -0.715  -3.493  -3.240  0.00  0.00    -0.155 OA
ATOM     34  O   UNL     1      -1.473  -2.996  -0.944  0.00  0.00    -0.155 OA
ENDBRANCH  22  32
ENDBRANCH  21  22
ENDBRANCH   1  21
TORSDOF 5
