REMARK  Name = ZINC24829013
REMARK  9 active torsions:
REMARK  status: ('A' for Active; 'I' for Inactive)
REMARK    1  A    between atoms: C_1  and  C_2
REMARK    2  A    between atoms: C_2  and  C_4
REMARK    3  A    between atoms: C_2  and  N_14
REMARK    4  A    between atoms: N_10  and  C_11
REMARK    5  A    between atoms: N_10  and  C_12
REMARK    6  A    between atoms: N_14  and  C_15
REMARK    7  A    between atoms: N_14  and  C_16
REMARK    8  A    between atoms: C_16  and  C_17
REMARK    9  A    between atoms: C_20  and  C_23
REMARK                            x       y       z     vdW  Elec       q    Type
REMARK                         _______ _______ _______ _____ _____    ______ ____
ROOT
ATOM      1  C   UNL     1      -0.814   1.520   3.663  0.00  0.00    -0.005 C 
ATOM      2  C   UNL     1      -0.016   1.091   2.429  0.00  0.00    -0.002 C 
ENDROOT
BRANCH   2   3
ATOM      3  C   UNL     1       0.090  -0.412   2.397  0.00  0.00    +0.123 A 
ATOM      4  N   UNL     1      -0.956  -1.139   2.047  0.00  0.00    -0.201 NA
ATOM      5  C   UNL     1      -0.866  -2.467   2.018  0.00  0.00    +0.217 A 
ATOM      6  N   UNL     1       0.278  -3.061   2.341  0.00  0.00    -0.181 NA
ATOM      7  C   UNL     1       1.327  -2.326   2.692  0.00  0.00    +0.222 A 
ATOM      8  N   UNL     1       1.231  -0.999   2.714  0.00  0.00    -0.201 NA
ATOM      9  N   UNL     1       2.518  -2.938   3.027  0.00  0.00    -0.306 N 
ATOM     10  C   UNL     1       2.624  -4.399   2.997  0.00  0.00    +0.132 C 
ATOM     11  C   UNL     1       3.675  -2.127   3.414  0.00  0.00    +0.132 C 
ATOM     12  N   UNL     1      -1.960  -3.225   1.653  0.00  0.00    -0.327 N 
ATOM     13  H   UNL     1      -1.885  -4.323   1.629  0.00  0.00    +0.145 HD
ATOM     14  H   UNL     1      -2.907  -2.733   1.387  0.00  0.00    +0.145 HD
ENDBRANCH   2   3
BRANCH   2  15
ATOM     15  N   UNL     1      -0.700   1.560   1.217  0.00  0.00    +0.387 N 
ATOM     16  C   UNL     1      -0.013   1.086   0.008  0.00  0.00    -0.095 C 
ATOM     17  H   UNL     1      -1.715   1.136   1.216  0.00  0.00    -0.081 HD
BRANCH  15  18
ATOM     18  C   UNL     1      -0.822   3.023   1.213  0.00  0.00    -0.042 C 
BRANCH  18  19
ATOM     19  C   UNL     1      -1.735   3.449   0.092  0.00  0.00    -0.064 A 
ATOM     20  C   UNL     1      -1.211   3.726  -1.157  0.00  0.00    +0.002 A 
ATOM     21  C   UNL     1      -2.049   4.112  -2.187  0.00  0.00    +0.012 A 
ATOM     22  C   UNL     1      -3.408   4.230  -1.966  0.00  0.00    +0.055 A 
ATOM     23  C   UNL     1      -3.931   3.958  -0.715  0.00  0.00    +0.012 A 
ATOM     24  C   UNL     1      -3.094   3.567   0.314  0.00  0.00    +0.002 A 
BRANCH  22  25
ATOM     25  C   UNL     1      -4.320   4.656  -3.087  0.00  0.00    +0.417 C 
ATOM     26  F   UNL     1      -4.437   6.050  -3.090  0.00  0.00    -0.166 F 
ATOM     27  F   UNL     1      -3.787   4.230  -4.309  0.00  0.00    -0.166 F 
ATOM     28  F   UNL     1      -5.583   4.082  -2.904  0.00  0.00    -0.166 F 
ENDBRANCH  22  25
ENDBRANCH  18  19
ENDBRANCH  15  18
ENDBRANCH   2  15
TORSDOF 5
