REMARK  Name = ZINC19938933
REMARK  3 active torsions:
REMARK  status: ('A' for Active; 'I' for Inactive)
REMARK    1  A    between atoms: C_5  and  C_7
REMARK    2  A    between atoms: C_7  and  N_8
REMARK    3  A    between atoms: N_18  and  C_21
REMARK                            x       y       z     vdW  Elec       q    Type
REMARK                         _______ _______ _______ _____ _____    ______ ____
ROOT
ATOM      1  N   UNL     1      -0.459   1.879  -1.140  0.00  0.00    -0.277 N 
ATOM      2  C   UNL     1      -0.003   3.172  -1.295  0.00  0.00    +0.114 A 
ATOM      3  C   UNL     1      -0.421   3.895  -2.370  0.00  0.00    +0.069 A 
ATOM      4  C   UNL     1      -1.312   3.310  -3.288  0.00  0.00    +0.260 A 
ATOM      5  O   UNL     1      -1.698   3.944  -4.254  0.00  0.00    -0.267 OA
ATOM      6  N   UNL     1      -1.735   2.046  -3.095  0.00  0.00    -0.275 N 
ATOM      7  H   UNL     1      -2.436   1.586  -3.807  0.00  0.00    +0.173 HD
ATOM      8  C   UNL     1      -1.304   1.339  -2.034  0.00  0.00    +0.331 A 
ATOM      9  O   UNL     1      -1.689   0.196  -1.880  0.00  0.00    -0.246 OA
ATOM     10  C   UNL     1       0.047   5.308  -2.606  0.00  0.00    +0.130 C 
ATOM     11  N   UNL     1       0.664   5.830  -1.378  0.00  0.00    -0.280 NA
ATOM     12  C   UNL     1       1.607   4.835  -0.839  0.00  0.00    +0.191 C 
ATOM     13  N   UNL     1       0.850   3.679  -0.353  0.00  0.00    -0.317 N 
ATOM     14  H   UNL     1       1.003   3.314   0.673  0.00  0.00    +0.149 HD
ENDROOT
BRANCH  11  15
ATOM     15  C   UNL     1       1.338   7.111  -1.631  0.00  0.00    +0.058 C 
ATOM     16  C   UNL     1       0.352   8.085  -2.280  0.00  0.00    +0.019 C 
ATOM     17  C   UNL     1       1.054   9.419  -2.543  0.00  0.00    +0.002 C 
ATOM     18  C   UNL     1       2.241   9.195  -3.481  0.00  0.00    +0.000 C 
ATOM     19  C   UNL     1       3.226   8.220  -2.833  0.00  0.00    +0.002 C 
ATOM     20  C   UNL     1       2.525   6.886  -2.569  0.00  0.00    +0.019 C 
ENDBRANCH  11  15
BRANCH   1  21
ATOM     21  C   UNL     1      -0.013   1.086   0.008  0.00  0.00    +0.164 C 
BRANCH  21  26
ATOM     22  C   UNL     1       3.725   0.586  -0.174  0.00  0.00    +0.000 A 
ATOM     23  C   UNL     1       3.810  -0.622  -0.842  0.00  0.00    +0.001 A 
ATOM     24  C   UNL     1       2.659  -1.278  -1.234  0.00  0.00    +0.020 A 
ATOM     25  C   UNL     1       1.420  -0.728  -0.954  0.00  0.00    +0.046 A 
ATOM     26  C   UNL     1       1.336   0.483  -0.292  0.00  0.00    -0.009 A 
ATOM     27  C   UNL     1       2.488   1.138   0.101  0.00  0.00    +0.007 A 
ATOM     28 CL   UNL     1      -0.026  -1.555  -1.440  0.00  0.00    -0.083 Cl
ENDBRANCH  21  26
ENDBRANCH   1  21
TORSDOF 3
