REMARK  Name = ZINC38704684
REMARK  9 active torsions:
REMARK  status: ('A' for Active; 'I' for Inactive)
REMARK    1  A    between atoms: C_1  and  C_2
REMARK    2  A    between atoms: C_5  and  C_8
REMARK    3  A    between atoms: C_11  and  C_22
REMARK    4  A    between atoms: N_18  and  C_19
REMARK    5  A    between atoms: C_19  and  C_20
REMARK    6  A    between atoms: C_20  and  O_21
REMARK    7  A    between atoms: C_23  and  C_30
REMARK    8  A    between atoms: C_25  and  C_29
REMARK    9  A    between atoms: C_27  and  O_28
REMARK                            x       y       z     vdW  Elec       q    Type
REMARK                         _______ _______ _______ _____ _____    ______ ____
ROOT
ATOM      1  C   UNL     1       0.225  -4.266  -0.152  0.00  0.00    +0.141 C 
ATOM      2  C   UNL     1      -1.203  -4.659   0.109  0.00  0.00    +0.035 A 
ATOM      3  C   UNL     1      -2.534  -4.622  -0.321  0.00  0.00    +0.102 A 
ATOM      4  N   UNL     1      -3.255  -5.275   0.569  0.00  0.00    -0.173 NA
ATOM      5  N   UNL     1      -2.511  -5.722   1.518  0.00  0.00    -0.272 N 
ATOM      6  H   UNL     1      -2.826  -6.232   2.280  0.00  0.00    +0.189 HD
ATOM      7  C   UNL     1      -1.210  -5.371   1.293  0.00  0.00    +0.126 A 
ATOM      8  C   UNL     1       0.165  -5.448   1.799  0.00  0.00    +0.266 C 
ATOM      9  O   UNL     1       0.497  -6.009   2.826  0.00  0.00    -0.268 OA
ATOM     10  N   UNL     1       1.008  -4.809   0.966  0.00  0.00    -0.283 N 
ENDROOT
BRANCH   3  11
ATOM     11  C   UNL     1      -3.042  -3.966  -1.552  0.00  0.00    +0.047 A 
ATOM     12  C   UNL     1      -4.138  -3.110  -1.487  0.00  0.00    -0.037 A 
ATOM     13  C   UNL     1      -4.606  -2.503  -2.635  0.00  0.00    +0.007 A 
ATOM     14  C   UNL     1      -3.990  -2.741  -3.850  0.00  0.00    -0.047 A 
ATOM     15  C   UNL     1      -2.902  -3.589  -3.926  0.00  0.00    +0.049 A 
ATOM     16  C   UNL     1      -2.418  -4.200  -2.780  0.00  0.00    +0.127 A 
ATOM     17  C   UNL     1      -4.509  -2.073  -5.098  0.00  0.00    +0.044 C 
ATOM     18  C   UNL     1      -4.813  -2.848  -0.165  0.00  0.00    +0.044 C 
BRANCH  16  19
ATOM     19  O   UNL     1      -1.343  -5.029  -2.852  0.00  0.00    -0.506 OA
ATOM     20  H   UNL     1      -1.565  -5.940  -3.091  0.00  0.00    +0.292 HD
ENDBRANCH  16  19
ENDBRANCH   3  11
BRANCH   1  25
ATOM     21  C   UNL     1       0.704   1.490  -0.309  0.00  0.00    +0.044 C 
ATOM     22  C   UNL     1       0.579  -0.011  -0.268  0.00  0.00    -0.050 A 
ATOM     23  C   UNL     1       0.756  -0.751  -1.422  0.00  0.00    +0.004 A 
ATOM     24  C   UNL     1       0.642  -2.128  -1.385  0.00  0.00    +0.006 A 
ATOM     25  C   UNL     1       0.351  -2.765  -0.193  0.00  0.00    -0.022 A 
ATOM     26  C   UNL     1       0.174  -2.025   0.961  0.00  0.00    +0.006 A 
ATOM     27  C   UNL     1       0.293  -0.648   0.924  0.00  0.00    +0.004 A 
ENDBRANCH   1  25
BRANCH  10  28
ATOM     28  C   UNL     1       2.456  -4.676   1.143  0.00  0.00    +0.137 C 
BRANCH  28  29
ATOM     29  C   UNL     1       2.752  -3.486   2.057  0.00  0.00    +0.175 C 
BRANCH  29  30
ATOM     30  O   UNL     1       2.245  -3.752   3.366  0.00  0.00    -0.393 OA
ATOM     31  H   UNL     1       2.397  -3.038   4.000  0.00  0.00    +0.209 HD
ENDBRANCH  29  30
ENDBRANCH  28  29
ENDBRANCH  10  28
TORSDOF 6
