REMARK  Name = ZINC05652386
REMARK  4 active torsions:
REMARK  status: ('A' for Active; 'I' for Inactive)
REMARK    1  A    between atoms: C_3  and  C_21
REMARK    2  A    between atoms: C_5  and  N_7
REMARK    3  A    between atoms: N_7  and  S_8
REMARK    4  A    between atoms: S_8  and  C_11
REMARK                            x       y       z     vdW  Elec       q    Type
REMARK                         _______ _______ _______ _____ _____    ______ ____
ROOT
ATOM      1  S   UNL     1       3.931  -0.843  -0.050  0.00  0.00    +0.072 S 
ATOM      2  O   UNL     1       4.904   0.039   0.494  0.00  0.00    -0.150 OA
ATOM      3  O   UNL     1       3.679  -2.130   0.496  0.00  0.00    -0.150 OA
ENDROOT
BRANCH   1   4
ATOM      4  C   UNL     1       2.397   0.024  -0.026  0.00  0.00    +0.112 A 
ATOM      5  C   UNL     1       1.207  -0.680  -0.016  0.00  0.00    +0.032 A 
ATOM      6  C   UNL     1       0.002  -0.004   0.002  0.00  0.00    +0.051 A 
ATOM      7  C   UNL     1      -0.017   1.383   0.010  0.00  0.00    +0.162 A 
ATOM      8  C   UNL     1       1.179   2.090   0.002  0.00  0.00    +0.164 A 
ATOM      9  C   UNL     1       2.386   1.406  -0.017  0.00  0.00    +0.078 A 
ATOM     10  O   UNL     1       1.184   3.451   0.018  0.00  0.00    -0.485 OA
ATOM     11  C   UNL     1      -0.040   4.103  -0.340  0.00  0.00    +0.270 C 
ATOM     12  C   UNL     1      -1.189   3.413   0.408  0.00  0.00    +0.270 C 
ATOM     13  O   UNL     1      -1.212   2.035   0.019  0.00  0.00    -0.485 OA
ENDBRANCH   1   4
BRANCH   1  14
ATOM     14  N   UNL     1       4.338  -1.074  -1.639  0.00  0.00    -0.216 N 
ATOM     15  H   UNL     1       4.380  -1.972  -2.003  0.00  0.00    +0.174 HD
BRANCH  14  20
ATOM     16  C   UNL     1       5.728   2.133  -2.788  0.00  0.00    +0.003 A 
ATOM     17  C   UNL     1       5.198   2.216  -4.060  0.00  0.00    +0.019 A 
ATOM     18  C   UNL     1       4.372   1.198  -4.540  0.00  0.00    +0.054 A 
ATOM     19  C   UNL     1       4.090   0.095  -3.732  0.00  0.00    +0.043 A 
ATOM     20  C   UNL     1       4.622   0.025  -2.454  0.00  0.00    +0.049 A 
ATOM     21  C   UNL     1       5.443   1.044  -1.985  0.00  0.00    +0.024 A 
BRANCH  18  22
ATOM     22  C   UNL     1       3.822   1.281  -5.859  0.00  0.00    +0.099 C 
ATOM     23  N   UNL     1       3.385   1.347  -6.906  0.00  0.00    -0.191 NA
ENDBRANCH  18  22
ENDBRANCH  14  20
ENDBRANCH   1  14
TORSDOF 4
