REMARK  Name = ZINC04792999
REMARK  8 active torsions:
REMARK  status: ('A' for Active; 'I' for Inactive)
REMARK    1  A    between atoms: C_1  and  N_2
REMARK    2  A    between atoms: C_4  and  C_11
REMARK    3  A    between atoms: C_13  and  C_25
REMARK    4  A    between atoms: N_23  and  C_24
REMARK    5  A    between atoms: N_27  and  C_28
REMARK    6  A    between atoms: C_30  and  N_36
REMARK    7  A    between atoms: C_33  and  O_34
REMARK    8  A    between atoms: O_34  and  C_35
REMARK                            x       y       z     vdW  Elec       q    Type
REMARK                         _______ _______ _______ _____ _____    ______ ____
ROOT
ATOM      1  C   UNL     1       0.041  -3.246  -1.744  0.00  0.00    +0.124 C 
ATOM      2  C   UNL     1       1.464  -3.789  -1.849  0.00  0.00    +0.131 C 
ATOM      3  C   UNL     1       2.334  -2.819  -2.603  0.00  0.00    -0.021 A 
ATOM      4  C   UNL     1       3.668  -2.679  -2.287  0.00  0.00    +0.005 A 
ATOM      5  C   UNL     1       4.458  -1.792  -2.999  0.00  0.00    +0.000 A 
ATOM      6  C   UNL     1       3.917  -1.044  -4.030  0.00  0.00    +0.001 A 
ATOM      7  C   UNL     1       2.581  -1.172  -4.353  0.00  0.00    +0.013 A 
ATOM      8  C   UNL     1       1.780  -2.057  -3.634  0.00  0.00    +0.041 A 
ATOM      9  C   UNL     1       0.338  -2.189  -3.929  0.00  0.00    +0.247 C 
ATOM     10  O   UNL     1      -0.124  -1.723  -4.952  0.00  0.00    -0.270 OA
ATOM     11  N   UNL     1      -0.458  -2.831  -3.054  0.00  0.00    -0.292 N 
ATOM     12  C   UNL     1      -1.847  -3.117  -3.421  0.00  0.00    +0.133 C 
ENDROOT
BRANCH   1  16
ATOM     13  C   UNL     1      -0.012   1.487  -0.053  0.00  0.00    +0.149 C 
ATOM     14  N   UNL     1       0.006   0.022  -0.049  0.00  0.00    -0.349 N 
ATOM     15  C   UNL     1       0.012  -0.767  -1.166  0.00  0.00    +0.092 A 
ATOM     16  C   UNL     1       0.029  -2.062  -0.812  0.00  0.00    -0.001 A 
ATOM     17  C   UNL     1       0.035  -2.106   0.652  0.00  0.00    +0.005 A 
ATOM     18  C   UNL     1       0.026  -0.766   1.081  0.00  0.00    +0.049 A 
ATOM     19  C   UNL     1       0.034  -0.486   2.443  0.00  0.00    +0.026 A 
ATOM     20  C   UNL     1       0.054  -1.520   3.354  0.00  0.00    +0.002 A 
ATOM     21  C   UNL     1       0.067  -2.840   2.926  0.00  0.00    +0.001 A 
ATOM     22  C   UNL     1       0.051  -3.138   1.592  0.00  0.00    +0.010 A 
ENDBRANCH   1  16
BRANCH   2  23
ATOM     23  C   UNL     1       1.443  -5.108  -2.577  0.00  0.00    +0.227 C 
ATOM     24  O   UNL     1       0.392  -5.566  -2.973  0.00  0.00    -0.275 OA
ATOM     25  N   UNL     1       2.593  -5.779  -2.789  0.00  0.00    -0.282 N 
ATOM     26  H   UNL     1       3.440  -5.383  -2.531  0.00  0.00    +0.155 HD
BRANCH  25  27
ATOM     27  C   UNL     1       2.564  -7.048  -3.383  0.00  0.00    +0.078 A 
ATOM     28  C   UNL     1       1.620  -7.339  -4.356  0.00  0.00    +0.059 A 
ATOM     29  C   UNL     1       1.594  -8.591  -4.941  0.00  0.00    +0.128 A 
ATOM     30  C   UNL     1       2.507  -9.556  -4.557  0.00  0.00    +0.036 A 
ATOM     31  C   UNL     1       3.451  -9.273  -3.587  0.00  0.00    +0.050 A 
ATOM     32  C   UNL     1       3.488  -8.018  -3.001  0.00  0.00    +0.141 A 
BRANCH  29  33
ATOM     33  N   UNL     1       0.585  -8.901  -5.979  0.00  0.00    +0.056 N 
ATOM     34  O   UNL     1      -0.214  -8.059  -6.315  0.00  0.00    -0.126 OA
ATOM     35  O   UNL     1       0.561  -9.996  -6.491  0.00  0.00    -0.126 OA
ENDBRANCH  29  33
BRANCH  32  36
ATOM     36  O   UNL     1       4.419  -7.736  -2.052  0.00  0.00    -0.493 OA
ATOM     37  C   UNL     1       5.334  -8.780  -1.710  0.00  0.00    +0.277 C 
ENDBRANCH  32  36
ENDBRANCH  25  27
ENDBRANCH   2  23
TORSDOF 5
