REMARK  Name = ZINC12760826
REMARK  9 active torsions:
REMARK  status: ('A' for Active; 'I' for Inactive)
REMARK    1  A    between atoms: C_1  and  C_2
REMARK    2  A    between atoms: C_2  and  C_3
REMARK    3  A    between atoms: C_2  and  C_4
REMARK    4  A    between atoms: C_7  and  C_10
REMARK    5  A    between atoms: C_10  and  N_55
REMARK    6  A    between atoms: C_11  and  N_55
REMARK    7  A    between atoms: C_12  and  C_13
REMARK    8  A    between atoms: C_12  and  N_55
REMARK    9  A    between atoms: C_17  and  C_26
REMARK                            x       y       z     vdW  Elec       q    Type
REMARK                         _______ _______ _______ _____ _____    ______ ____
ROOT
ATOM      1  C   UNL     1      -2.960   4.662  -1.677  0.00  0.00    +0.203 C 
ATOM      2  O   UNL     1      -1.993   5.307  -2.026  0.00  0.00    -0.277 OA
ATOM      3  N   UNL     1      -2.804   3.397  -1.239  0.00  0.00    -0.266 N 
ATOM      4  C   UNL     1      -3.947   2.620  -0.731  0.00  0.00    +0.168 C 
ATOM      5  C   UNL     1      -3.823   1.195  -1.287  0.00  0.00    +0.276 C 
ATOM      6  O   UNL     1      -2.570   0.643  -0.876  0.00  0.00    -0.476 OA
ATOM      7  C   UNL     1      -1.454   1.396  -1.069  0.00  0.00    +0.143 A 
ATOM      8  C   UNL     1      -1.544   2.773  -1.251  0.00  0.00    +0.078 A 
ATOM      9  C   UNL     1      -0.398   3.526  -1.444  0.00  0.00    +0.027 A 
ATOM     10  C   UNL     1       0.839   2.907  -1.459  0.00  0.00    +0.002 A 
ATOM     11  C   UNL     1       0.931   1.540  -1.280  0.00  0.00    +0.004 A 
ATOM     12  C   UNL     1      -0.210   0.784  -1.085  0.00  0.00    +0.047 A 
ENDROOT
BRANCH   5  13
ATOM     13  C   UNL     1      -4.948   0.345  -0.755  0.00  0.00    +0.253 C 
ATOM     14  O   UNL     1      -4.707  -0.587  -0.017  0.00  0.00    -0.272 OA
ATOM     15  N   UNL     1      -6.222   0.624  -1.093  0.00  0.00    -0.326 N 
ATOM     16  H   UNL     1      -6.947   0.080  -0.747  0.00  0.00    +0.145 HD
ATOM     17  H   UNL     1      -6.415   1.369  -1.683  0.00  0.00    +0.145 HD
ENDBRANCH   5  13
BRANCH   1  18
ATOM     18  C   UNL     1      -4.335   5.275  -1.735  0.00  0.00    +0.019 C 
BRANCH  18  20
ATOM     19  C   UNL     1      -3.493   7.531  -1.476  0.00  0.00    -0.095 C 
ATOM     20  N   UNL     1      -4.236   6.610  -2.362  0.00  0.00    +0.386 N 
ATOM     21  H   UNL     1      -3.731   6.524  -3.252  0.00  0.00    -0.081 HD
BRANCH  20  22
ATOM     22  C   UNL     1      -5.588   7.145  -2.628  0.00  0.00    -0.043 C 
BRANCH  22  26
ATOM     23  C   UNL     1      -5.229  10.688  -4.988  0.00  0.00    -0.045 A 
ATOM     24  C   UNL     1      -5.333   9.454  -5.604  0.00  0.00    +0.004 A 
ATOM     25  C   UNL     1      -5.449   8.308  -4.840  0.00  0.00    +0.002 A 
ATOM     26  C   UNL     1      -5.461   8.395  -3.460  0.00  0.00    -0.064 A 
ATOM     27  C   UNL     1      -5.363   9.628  -2.845  0.00  0.00    +0.002 A 
ATOM     28  C   UNL     1      -5.242  10.774  -3.608  0.00  0.00    +0.004 A 
BRANCH  23  30
ATOM     29  C   UNL     1      -6.275  12.872  -5.520  0.00  0.00    +0.012 C 
ATOM     30  C   UNL     1      -5.102  11.937  -5.820  0.00  0.00    +0.013 C 
ATOM     31  C   UNL     1      -3.788  12.643  -5.482  0.00  0.00    +0.012 C 
ENDBRANCH  23  30
ENDBRANCH  22  26
ENDBRANCH  20  22
ENDBRANCH  18  20
ENDBRANCH   1  18
TORSDOF 6
