REMARK  Name = ZINC66895220
REMARK  9 active torsions:
REMARK  status: ('A' for Active; 'I' for Inactive)
REMARK    1  A    between atoms: C_1  and  C_2
REMARK    2  A    between atoms: N_5  and  C_11
REMARK    3  A    between atoms: C_7  and  C_10
REMARK    4  A    between atoms: C_11  and  C_13
REMARK    5  A    between atoms: C_11  and  C_16
REMARK    6  A    between atoms: C_13  and  C_14
REMARK    7  A    between atoms: C_13  and  C_15
REMARK    8  A    between atoms: N_18  and  N_19
REMARK    9  A    between atoms: C_20  and  C_22
REMARK                            x       y       z     vdW  Elec       q    Type
REMARK                         _______ _______ _______ _____ _____    ______ ____
ROOT
ATOM      1  C   UNL     1      -3.949   0.434  -0.034  0.00  0.00    +0.247 C 
ATOM      2  O   UNL     1      -3.194   1.141  -0.669  0.00  0.00    -0.273 OA
ATOM      3  N   UNL     1      -5.271   0.453  -0.297  0.00  0.00    -0.233 N 
ATOM      4  H   UNL     1      -5.882  -0.061   0.253  0.00  0.00    +0.173 HD
ENDROOT
BRANCH   3   5
ATOM      5  N   UNL     1      -5.762   1.217  -1.364  0.00  0.00    -0.230 N 
ATOM      6  C   UNL     1      -7.084   1.236  -1.626  0.00  0.00    +0.260 C 
ATOM      7  O   UNL     1      -7.850   0.590  -0.937  0.00  0.00    -0.269 OA
ATOM      8  H   UNL     1      -5.151   1.732  -1.914  0.00  0.00    +0.173 HD
BRANCH   6   9
ATOM      9  C   UNL     1      -7.602   2.040  -2.751  0.00  0.00    +0.042 A 
ATOM     10  C   UNL     1      -6.722   2.777  -3.547  0.00  0.00    +0.017 A 
ATOM     11  C   UNL     1      -7.207   3.528  -4.596  0.00  0.00    +0.050 A 
ATOM     12  C   UNL     1      -8.569   3.554  -4.865  0.00  0.00    +0.166 A 
ATOM     13  C   UNL     1      -9.453   2.820  -4.074  0.00  0.00    +0.167 A 
ATOM     14  C   UNL     1      -8.972   2.061  -3.024  0.00  0.00    +0.062 A 
ATOM     15  O   UNL     1     -10.721   3.014  -4.541  0.00  0.00    -0.453 OA
ATOM     16  C   UNL     1     -10.649   4.191  -5.366  0.00  0.00    +0.466 C 
ATOM     17  O   UNL     1      -9.285   4.206  -5.826  0.00  0.00    -0.453 OA
ENDBRANCH   6   9
ENDBRANCH   3   5
BRANCH   1  18
ATOM     18  C   UNL     1      -3.408  -0.465   1.048  0.00  0.00    +0.147 C 
BRANCH  18  22
ATOM     19  C   UNL     1       0.653  -0.255   2.286  0.00  0.00    +0.039 C 
ATOM     20  C   UNL     1       0.175   0.690   1.181  0.00  0.00    +0.130 C 
ATOM     21  C   UNL     1      -1.351   0.802   1.229  0.00  0.00    +0.116 C 
ATOM     22  N   UNL     1      -1.943  -0.516   0.955  0.00  0.00    -0.286 NA
ATOM     23  C   UNL     1      -1.516  -1.016  -0.360  0.00  0.00    +0.116 C 
ATOM     24  C   UNL     1       0.012  -1.109  -0.392  0.00  0.00    +0.130 C 
ATOM     25  O   UNL     1       0.571   0.173  -0.092  0.00  0.00    -0.371 OA
ATOM     26  C   UNL     1       0.468  -1.554  -1.783  0.00  0.00    +0.039 C 
ENDBRANCH  18  22
BRANCH  18  27
ATOM     27  C   UNL     1      -3.814   0.085   2.417  0.00  0.00    +0.009 C 
ATOM     28  C   UNL     1      -5.335   0.017   2.563  0.00  0.00    +0.009 C 
ATOM     29  C   UNL     1      -3.158  -0.752   3.517  0.00  0.00    +0.009 C 
ENDBRANCH  18  27
ENDBRANCH   1  18
TORSDOF 5
