REMARK  Name = ZINC29963097
REMARK  10 active torsions:
REMARK  status: ('A' for Active; 'I' for Inactive)
REMARK    1  A    between atoms: C_1  and  C_2
REMARK    2  A    between atoms: C_2  and  C_4
REMARK    3  A    between atoms: C_2  and  S_14
REMARK    4  A    between atoms: N_10  and  C_11
REMARK    5  A    between atoms: N_10  and  C_12
REMARK    6  A    between atoms: S_14  and  C_15
REMARK    7  A    between atoms: C_18  and  C_23
REMARK    8  A    between atoms: N_19  and  C_20
REMARK    9  A    between atoms: C_23  and  C_24
REMARK   10  A    between atoms: C_23  and  C_25
REMARK                            x       y       z     vdW  Elec       q    Type
REMARK                         _______ _______ _______ _____ _____    ______ ____
ROOT
ATOM      1  C   UNL     1       0.207   2.236  -0.378  0.00  0.00    +0.028 C 
ATOM      2  C   UNL     1       0.389   0.738  -0.128  0.00  0.00    +0.119 C 
ENDROOT
BRANCH   2   3
ATOM      3  C   UNL     1       1.285   0.532   1.066  0.00  0.00    +0.149 A 
ATOM      4  N   UNL     1       2.586   0.738   0.957  0.00  0.00    -0.198 NA
ATOM      5  C   UNL     1       3.380   0.558   2.010  0.00  0.00    +0.217 A 
ATOM      6  N   UNL     1       2.864   0.171   3.171  0.00  0.00    -0.181 NA
ATOM      7  C   UNL     1       1.556  -0.035   3.277  0.00  0.00    +0.222 A 
ATOM      8  N   UNL     1       0.767   0.152   2.221  0.00  0.00    -0.198 NA
ATOM      9  N   UNL     1       1.015  -0.438   4.481  0.00  0.00    -0.306 N 
ATOM     10  C   UNL     1       1.883  -0.638   5.644  0.00  0.00    +0.132 C 
ATOM     11  C   UNL     1      -0.428  -0.665   4.596  0.00  0.00    +0.132 C 
ATOM     12  N   UNL     1       4.739   0.773   1.895  0.00  0.00    -0.327 N 
ATOM     13  H   UNL     1       5.115   1.056   1.047  0.00  0.00    +0.145 HD
ATOM     14  H   UNL     1       5.317   0.642   2.663  0.00  0.00    +0.145 HD
ENDBRANCH   2   3
BRANCH   2  15
ATOM     15  S   UNL     1       1.142  -0.032  -1.588  0.00  0.00    -0.075 S 
BRANCH  15  16
ATOM     16  C   UNL     1      -0.075   0.162  -2.847  0.00  0.00    +0.193 A 
ATOM     17  N   UNL     1      -1.246   0.742  -2.719  0.00  0.00    -0.122 NA
ATOM     18  N   UNL     1      -1.877   0.705  -3.838  0.00  0.00    -0.133 NA
ATOM     19  C   UNL     1      -1.153   0.103  -4.740  0.00  0.00    +0.137 A 
ATOM     20  N   UNL     1       0.022  -0.259  -4.143  0.00  0.00    -0.303 N 
BRANCH  20  21
ATOM     21  C   UNL     1       1.151  -0.957  -4.763  0.00  0.00    +0.091 C 
ATOM     22  C   UNL     1       2.179  -1.604  -3.833  0.00  0.00    +0.027 C 
ATOM     23  C   UNL     1       2.540  -0.334  -4.606  0.00  0.00    +0.027 C 
ENDBRANCH  20  21
BRANCH  19  24
ATOM     24  C   UNL     1      -1.538  -0.142  -6.176  0.00  0.00    +0.051 C 
ATOM     25  C   UNL     1      -2.809  -0.992  -6.225  0.00  0.00    +0.015 C 
ATOM     26  C   UNL     1      -1.793   1.197  -6.871  0.00  0.00    +0.015 C 
ENDBRANCH  19  24
ENDBRANCH  15  16
ENDBRANCH   2  15
TORSDOF 5
