REMARK  Name = ZINC00688608
REMARK  9 active torsions:
REMARK  status: ('A' for Active; 'I' for Inactive)
REMARK    1  A    between atoms: C_1  and  C_2
REMARK    2  A    between atoms: C_9  and  C_11
REMARK    3  A    between atoms: C_12  and  C_34
REMARK    4  A    between atoms: C_16  and  C_18
REMARK    5  A    between atoms: C_21  and  N_24
REMARK    6  A    between atoms: N_24  and  C_25
REMARK    7  A    between atoms: N_24  and  C_26
REMARK    8  A    between atoms: C_30  and  C_32
REMARK    9  A    between atoms: C_30  and  C_33
REMARK                            x       y       z     vdW  Elec       q    Type
REMARK                         _______ _______ _______ _____ _____    ______ ____
ROOT
ATOM      1  C   UNL     1       0.019  -2.917   0.538  0.00  0.00    +0.043 C 
ATOM      2  C   UNL     1      -0.884  -2.021   0.969  0.00  0.00    +0.014 C 
ATOM      3  N   UNL     1      -0.900  -0.752   0.457  0.00  0.00    -0.321 N 
ATOM      4  C   UNL     1       0.199  -0.244  -0.182  0.00  0.00    +0.016 C 
ATOM      5  C   UNL     1       1.157  -1.067  -0.657  0.00  0.00    +0.024 C 
ATOM      6  C   UNL     1       1.028  -2.563  -0.514  0.00  0.00    +0.090 C 
ATOM      7  C   UNL     1       2.298  -0.557  -1.301  0.00  0.00    +0.162 C 
ATOM      8  O   UNL     1       3.136  -1.326  -1.728  0.00  0.00    -0.292 OA
ATOM      9  C   UNL     1       2.499   0.924  -1.472  0.00  0.00    +0.086 C 
ATOM     10  C   UNL     1       1.787   1.659  -0.332  0.00  0.00    -0.023 C 
ATOM     11  C   UNL     1       0.312   1.253  -0.338  0.00  0.00    +0.058 C 
ATOM     12  C   UNL     1       1.905   3.170  -0.541  0.00  0.00    +0.011 C 
ATOM     13  C   UNL     1       2.422   1.271   1.006  0.00  0.00    +0.011 C 
ATOM     14  C   UNL     1      -1.886  -2.415   2.023  0.00  0.00    +0.061 C 
ATOM     15  H   UNL     1      -1.801  -0.130   0.557  0.00  0.00    +0.152 HD
ENDROOT
BRANCH   1  24
ATOM     16  C   UNL     1       0.469 -10.425   2.536  0.00  0.00    +0.045 C 
ATOM     17  C   UNL     1       0.595  -9.026   1.989  0.00  0.00    -0.032 A 
ATOM     18  C   UNL     1       1.460  -8.761   0.936  0.00  0.00    +0.008 A 
ATOM     19  C   UNL     1       1.546  -7.463   0.463  0.00  0.00    +0.044 A 
ATOM     20  C   UNL     1       0.767  -6.475   1.056  0.00  0.00    +0.125 A 
ATOM     21  N   UNL     1      -0.042  -6.767   2.062  0.00  0.00    -0.240 NA
ATOM     22  C   UNL     1      -0.148  -7.996   2.530  0.00  0.00    +0.116 A 
ATOM     23  N   UNL     1       0.844  -5.164   0.590  0.00  0.00    -0.267 N 
ATOM     24  C   UNL     1       0.019  -4.222   1.089  0.00  0.00    +0.248 C 
ATOM     25  O   UNL     1      -0.727  -4.494   2.012  0.00  0.00    -0.270 OA
ATOM     26  H   UNL     1       1.578  -4.898  -0.184  0.00  0.00    +0.157 HD
ENDBRANCH   1  24
BRANCH   6  27
ATOM     27  C   UNL     1       0.595  -3.151  -1.832  0.00  0.00    -0.035 A 
ATOM     28  C   UNL     1      -0.606  -2.764  -2.398  0.00  0.00    +0.006 A 
ATOM     29  C   UNL     1      -1.004  -3.297  -3.609  0.00  0.00    +0.023 A 
ATOM     30  C   UNL     1      -0.201  -4.230  -4.252  0.00  0.00    +0.029 A 
ATOM     31  C   UNL     1       1.002  -4.621  -3.678  0.00  0.00    +0.023 A 
ATOM     32  C   UNL     1       1.396  -4.080  -2.470  0.00  0.00    +0.006 A 
BRANCH  30  33
ATOM     33  N   UNL     1      -0.603  -4.776  -5.473  0.00  0.00    -0.336 N 
ATOM     34  C   UNL     1       0.244  -5.761  -6.150  0.00  0.00    +0.129 C 
ATOM     35  C   UNL     1      -1.872  -4.363  -6.078  0.00  0.00    +0.129 C 
ENDBRANCH  30  33
ENDBRANCH   6  27
TORSDOF 3
