REMARK  Name = ZINC05018046
REMARK  8 active torsions:
REMARK  status: ('A' for Active; 'I' for Inactive)
REMARK    1  A    between atoms: C_1  and  O_2
REMARK    2  A    between atoms: O_2  and  C_3
REMARK    3  A    between atoms: C_6  and  C_9
REMARK    4  A    between atoms: C_11  and  C_24
REMARK    5  A    between atoms: C_12  and  C_17
REMARK    6  A    between atoms: C_17  and  N_54
REMARK    7  A    between atoms: C_24  and  O_26
REMARK    8  A    between atoms: O_26  and  C_27
REMARK                            x       y       z     vdW  Elec       q    Type
REMARK                         _______ _______ _______ _____ _____    ______ ____
ROOT
ATOM      1  C   UNL     1      -0.607   3.402   5.263  0.00  0.00    +0.143 C 
ATOM      2  C   UNL     1      -1.554   2.988   4.156  0.00  0.00    +0.076 C 
ATOM      3  C   UNL     1      -1.803   1.670   4.001  0.00  0.00    +0.008 C 
ATOM      4  N   UNL     1      -1.224   0.743   4.819  0.00  0.00    -0.274 N 
ATOM      5  C   UNL     1      -0.376   1.052   5.809  0.00  0.00    +0.304 C 
ATOM      6  O   UNL     1       0.094   0.155   6.482  0.00  0.00    -0.252 OA
ATOM      7  N   UNL     1      -0.031   2.325   6.086  0.00  0.00    -0.288 N 
ATOM      8  H   UNL     1      -1.435  -0.193   4.673  0.00  0.00    +0.156 HD
ATOM      9  H   UNL     1       0.582   2.526   6.810  0.00  0.00    +0.151 HD
ENDROOT
BRANCH   1  13
ATOM     10  C   UNL     1       2.620   5.574   3.494  0.00  0.00    +0.120 A 
ATOM     11  C   UNL     1       1.579   6.254   4.109  0.00  0.00    +0.046 A 
ATOM     12  C   UNL     1       0.537   5.550   4.680  0.00  0.00    +0.009 A 
ATOM     13  C   UNL     1       0.531   4.168   4.639  0.00  0.00    -0.022 A 
ATOM     14  C   UNL     1       1.570   3.487   4.032  0.00  0.00    +0.009 A 
ATOM     15  C   UNL     1       2.612   4.187   3.455  0.00  0.00    +0.046 A 
BRANCH  10  17
ATOM     16  C   UNL     1       4.684   5.498   2.316  0.00  0.00    +0.277 C 
ATOM     17  O   UNL     1       3.647   6.264   2.931  0.00  0.00    -0.495 OA
ENDBRANCH  10  17
ENDBRANCH   1  13
BRANCH   2  18
ATOM     18  C   UNL     1      -2.158   3.950   3.313  0.00  0.00    +0.338 C 
ATOM     19  O   UNL     1      -1.532   4.423   2.383  0.00  0.00    -0.245 OA
BRANCH  18  20
ATOM     20  O   UNL     1      -3.429   4.343   3.539  0.00  0.00    -0.465 OA
ATOM     21  C   UNL     1      -3.975   5.318   2.648  0.00  0.00    +0.280 C 
ENDBRANCH  18  20
ENDBRANCH   2  18
BRANCH   3  22
ATOM     22  C   UNL     1      -2.740   1.215   2.912  0.00  0.00    -0.026 C 
BRANCH  22  29
ATOM     23  C   UNL     1      -0.917   1.196   1.302  0.00  0.00    -0.078 C 
ATOM     24  C   UNL     1      -0.315   0.505   0.109  0.00  0.00    -0.019 C 
ATOM     25  C   UNL     1      -1.040   0.992  -1.163  0.00  0.00    -0.002 C 
ATOM     26  C   UNL     1      -2.334   0.341  -1.342  0.00  0.00    -0.002 C 
ATOM     27  C   UNL     1      -3.298   0.629  -0.173  0.00  0.00    -0.019 C 
ATOM     28  C   UNL     1      -2.922  -0.255   0.985  0.00  0.00    -0.078 C 
ATOM     29  N   UNL     1      -1.980   0.372   1.976  0.00  0.00    +0.383 N 
ATOM     30  H   UNL     1      -1.520  -0.379   2.505  0.00  0.00    -0.081 HD
ENDBRANCH  22  29
ENDBRANCH   3  22
TORSDOF 6
