REMARK  Name = ZINC36892661
REMARK  4 active torsions:
REMARK  status: ('A' for Active; 'I' for Inactive)
REMARK    1  A    between atoms: C_6  and  C_7
REMARK    2  A    between atoms: C_7  and  C_8
REMARK    3  A    between atoms: N_10  and  N_11
REMARK    4  A    between atoms: C_12  and  C_14
REMARK                            x       y       z     vdW  Elec       q    Type
REMARK                         _______ _______ _______ _____ _____    ______ ____
ROOT
ATOM      1  C   UNL     1      -1.737  -1.023  -1.410  0.00  0.00    +0.233 C 
ATOM      2  O   UNL     1      -1.067  -0.615  -2.335  0.00  0.00    -0.274 OA
ATOM      3  N   UNL     1      -2.878  -1.698  -1.650  0.00  0.00    -0.234 N 
ATOM      4  H   UNL     1      -3.414  -2.025  -0.910  0.00  0.00    +0.173 HD
ENDROOT
BRANCH   3   5
ATOM      5  N   UNL     1      -3.291  -1.930  -2.969  0.00  0.00    -0.230 N 
ATOM      6  C   UNL     1      -4.432  -2.606  -3.209  0.00  0.00    +0.260 C 
ATOM      7  O   UNL     1      -5.103  -3.014  -2.282  0.00  0.00    -0.269 OA
ATOM      8  H   UNL     1      -2.755  -1.604  -3.709  0.00  0.00    +0.173 HD
BRANCH   6   9
ATOM      9  C   UNL     1      -4.866  -2.849  -4.599  0.00  0.00    +0.042 A 
ATOM     10  C   UNL     1      -4.093  -2.386  -5.666  0.00  0.00    +0.017 A 
ATOM     11  C   UNL     1      -4.500  -2.614  -6.962  0.00  0.00    +0.050 A 
ATOM     12  C   UNL     1      -5.679  -3.304  -7.213  0.00  0.00    +0.166 A 
ATOM     13  C   UNL     1      -6.455  -3.770  -6.152  0.00  0.00    +0.167 A 
ATOM     14  C   UNL     1      -6.049  -3.550  -4.850  0.00  0.00    +0.062 A 
ATOM     15  O   UNL     1      -7.550  -4.409  -6.660  0.00  0.00    -0.453 OA
ATOM     16  C   UNL     1      -7.646  -3.974  -8.030  0.00  0.00    +0.466 C 
ATOM     17  O   UNL     1      -6.288  -3.652  -8.383  0.00  0.00    -0.453 OA
ENDBRANCH   6   9
ENDBRANCH   3   5
BRANCH   1  18
ATOM     18  C   UNL     1      -1.293  -0.774   0.009  0.00  0.00    +0.132 C 
BRANCH  18  24
ATOM     19  C   UNL     1      -0.017   1.378   0.010  0.00  0.00    +0.008 A 
ATOM     20  C   UNL     1       1.170   2.088   0.002  0.00  0.00    +0.050 A 
ATOM     21  C   UNL     1       2.382   1.415  -0.013  0.00  0.00    +0.162 A 
ATOM     22  C   UNL     1       2.401   0.025  -0.018  0.00  0.00    +0.162 A 
ATOM     23  C   UNL     1       1.207  -0.681  -0.011  0.00  0.00    +0.053 A 
ATOM     24  C   UNL     1       0.002  -0.004   0.002  0.00  0.00    -0.035 A 
ATOM     25  O   UNL     1       3.579  -0.656  -0.024  0.00  0.00    -0.485 OA
ATOM     26  C   UNL     1       4.746   0.081  -0.406  0.00  0.00    +0.270 C 
ATOM     27  C   UNL     1       4.733   1.422   0.340  0.00  0.00    +0.270 C 
ATOM     28  O   UNL     1       3.542   2.127  -0.024  0.00  0.00    -0.485 OA
ENDBRANCH  18  24
ENDBRANCH   1  18
TORSDOF 4
