REMARK  Name = ZINC66392258
REMARK  9 active torsions:
REMARK  status: ('A' for Active; 'I' for Inactive)
REMARK    1  A    between atoms: C_1  and  C_2
REMARK    2  A    between atoms: C_2  and  C_4
REMARK    3  A    between atoms: C_2  and  N_15
REMARK    4  A    between atoms: N_6  and  C_7
REMARK    5  A    between atoms: N_15  and  C_16
REMARK    6  A    between atoms: C_19  and  N_22
REMARK    7  A    between atoms: N_22  and  C_23
REMARK    8  A    between atoms: C_24  and  O_26
REMARK    9  A    between atoms: O_26  and  C_27
REMARK                            x       y       z     vdW  Elec       q    Type
REMARK                         _______ _______ _______ _____ _____    ______ ____
ROOT
ATOM      1  C   UNL     1      -0.100   2.061  -0.179  0.00  0.00    +0.038 C 
ATOM      2  C   UNL     1      -0.057   0.537  -0.042  0.00  0.00    +0.154 C 
ENDROOT
BRANCH   2   3
ATOM      3  C   UNL     1      -1.458  -0.013  -0.108  0.00  0.00    +0.237 C 
ATOM      4  O   UNL     1      -1.908  -0.642   0.827  0.00  0.00    -0.273 OA
ATOM      5  N   UNL     1      -2.212   0.195  -1.206  0.00  0.00    -0.284 N 
ATOM      6  H   UNL     1      -1.881   0.759  -1.922  0.00  0.00    +0.155 HD
BRANCH   5   7
ATOM      7  C   UNL     1      -3.473  -0.405  -1.312  0.00  0.00    +0.035 A 
ATOM      8  C   UNL     1      -4.502   0.253  -1.974  0.00  0.00    +0.025 A 
ATOM      9  C   UNL     1      -5.745  -0.341  -2.078  0.00  0.00    +0.023 A 
ATOM     10  C   UNL     1      -5.965  -1.589  -1.525  0.00  0.00    +0.059 A 
ATOM     11  C   UNL     1      -4.941  -2.248  -0.865  0.00  0.00    +0.061 A 
ATOM     12  C   UNL     1      -3.694  -1.660  -0.762  0.00  0.00    +0.044 A 
ATOM     13 CL   UNL     1      -5.222  -3.814  -0.171  0.00  0.00    -0.082 Cl
ATOM     14 CL   UNL     1      -7.529  -2.332  -1.658  0.00  0.00    -0.082 Cl
ENDBRANCH   5   7
ENDBRANCH   2   3
BRANCH   2  15
ATOM     15  N   UNL     1       0.548   0.180   1.244  0.00  0.00    -0.333 N 
ATOM     16  H   UNL     1      -0.016   0.001   2.012  0.00  0.00    +0.147 HD
BRANCH  15  17
ATOM     17  C   UNL     1       1.939   0.096   1.363  0.00  0.00    +0.028 A 
ATOM     18  C   UNL     1       2.748   0.357   0.264  0.00  0.00    +0.025 A 
ATOM     19  C   UNL     1       4.121   0.274   0.382  0.00  0.00    +0.025 A 
ATOM     20  C   UNL     1       4.694  -0.070   1.599  0.00  0.00    +0.039 A 
ATOM     21  C   UNL     1       3.886  -0.331   2.698  0.00  0.00    +0.025 A 
ATOM     22  C   UNL     1       2.513  -0.244   2.582  0.00  0.00    +0.025 A 
BRANCH  20  23
ATOM     23  N   UNL     1       6.088  -0.154   1.718  0.00  0.00    -0.240 N 
ATOM     24  C   UNL     1       6.793   0.689   2.687  0.00  0.00    +0.142 C 
ATOM     25  C   UNL     1       6.780  -1.012   0.943  0.00  0.00    +0.407 C 
ATOM     26  O   UNL     1       6.190  -1.775   0.204  0.00  0.00    -0.226 OA
BRANCH  25  27
ATOM     27  O   UNL     1       8.126  -1.023   0.986  0.00  0.00    -0.453 OA
ATOM     28  C   UNL     1       8.795  -1.958   0.137  0.00  0.00    +0.282 C 
ENDBRANCH  25  27
ENDBRANCH  20  23
ENDBRANCH  15  17
ENDBRANCH   2  15
TORSDOF 6
