REMARK  Name = ZINC03086345
REMARK  6 active torsions:
REMARK  status: ('A' for Active; 'I' for Inactive)
REMARK    1  A    between atoms: C_4  and  S_10
REMARK    2  A    between atoms: C_5  and  N_7
REMARK    3  A    between atoms: S_10  and  C_11
REMARK    4  A    between atoms: C_13  and  O_25
REMARK    5  A    between atoms: C_14  and  O_24
REMARK    6  A    between atoms: C_18  and  S_21
REMARK                            x       y       z     vdW  Elec       q    Type
REMARK                         _______ _______ _______ _____ _____    ______ ____
ROOT
ATOM      1  C   UNL     1      -3.307   0.501   3.545  0.00  0.00    +0.024 A 
ATOM      2  C   UNL     1      -3.854   1.095   4.707  0.00  0.00    +0.064 A 
ATOM      3  C   UNL     1      -3.469   2.328   5.120  0.00  0.00    +0.160 A 
ATOM      4  C   UNL     1      -2.462   3.091   4.368  0.00  0.00    +0.166 A 
ATOM      5  C   UNL     1      -1.876   2.505   3.162  0.00  0.00    +0.028 A 
ATOM      6  C   UNL     1      -2.294   1.219   2.752  0.00  0.00    +0.001 A 
ATOM      7  C   UNL     1      -1.746   0.651   1.609  0.00  0.00    +0.039 A 
ATOM      8  C   UNL     1      -0.790   1.351   0.878  0.00  0.00    +0.120 A 
ATOM      9  C   UNL     1      -0.376   2.605   1.281  0.00  0.00    +0.030 A 
ATOM     10  C   UNL     1      -0.916   3.194   2.417  0.00  0.00    +0.014 A 
ENDROOT
BRANCH   8  11
ATOM     11  S   UNL     1      -0.096   0.627  -0.571  0.00  0.00    +0.140 S 
ATOM     12  O   UNL     1      -0.242  -0.779  -0.432  0.00  0.00    -0.140 OA
ATOM     13  O   UNL     1       1.167   1.246  -0.769  0.00  0.00    -0.140 OA
ATOM     14  O   UNL     1      -0.973   1.041  -1.744  0.00  0.00    -0.043 OA
ENDBRANCH   8  11
BRANCH   4  15
ATOM     15  O   UNL     1      -2.084   4.311   4.783  0.00  0.00    -0.503 OA
ATOM     16  H   UNL     1      -1.337   4.354   5.395  0.00  0.00    +0.292 HD
ENDBRANCH   4  15
BRANCH   3  17
ATOM     17  O   UNL     1      -4.018   2.862   6.238  0.00  0.00    -0.503 OA
ATOM     18  H   UNL     1      -3.537   2.653   7.050  0.00  0.00    +0.292 HD
ENDBRANCH   3  17
BRANCH   1  19
ATOM     19  S   UNL     1      -3.823  -1.057   3.059  0.00  0.00    -0.086 S 
BRANCH  19  23
ATOM     20  C   UNL     1      -6.569   0.056  -0.369  0.00  0.00    +0.002 A 
ATOM     21  C   UNL     1      -6.005   1.050   0.414  0.00  0.00    +0.001 A 
ATOM     22  C   UNL     1      -5.172   0.717   1.461  0.00  0.00    +0.017 A 
ATOM     23  C   UNL     1      -4.890  -0.624   1.726  0.00  0.00    +0.043 A 
ATOM     24  C   UNL     1      -5.463  -1.621   0.934  0.00  0.00    +0.140 A 
ATOM     25  C   UNL     1      -6.298  -1.276  -0.107  0.00  0.00    +0.034 A 
BRANCH  24  26
ATOM     26  N   UNL     1      -5.174  -3.046   1.213  0.00  0.00    +0.058 N 
ATOM     27  O   UNL     1      -5.714  -3.986   0.465  0.00  0.00    -0.126 OA
ATOM     28  O   UNL     1      -4.377  -3.374   2.208  0.00  0.00    -0.126 OA
ENDBRANCH  24  26
ENDBRANCH  19  23
ENDBRANCH   1  19
TORSDOF 6
