REMARK  Name = ZINC13279359
REMARK  9 active torsions:
REMARK  status: ('A' for Active; 'I' for Inactive)
REMARK    1  A    between atoms: C_1  and  N_2
REMARK    2  A    between atoms: C_6  and  C_7
REMARK    3  A    between atoms: C_7  and  C_9
REMARK    4  A    between atoms: C_7  and  N_16
REMARK    5  A    between atoms: N_16  and  C_17
REMARK    6  A    between atoms: N_16  and  S_18
REMARK    7  A    between atoms: S_18  and  C_21
REMARK    8  A    between atoms: C_24  and  O_29
REMARK    9  A    between atoms: C_25  and  C_27
REMARK                            x       y       z     vdW  Elec       q    Type
REMARK                         _______ _______ _______ _____ _____    ______ ____
ROOT
ATOM      1  N   UNL     1       3.097  -2.112   0.424  0.00  0.00    -0.165 NA
ATOM      2  C   UNL     1       4.050  -1.159   0.999  0.00  0.00    +0.133 C 
ENDROOT
BRANCH   1   3
ATOM      3  S   UNL     1       3.647  -3.430  -0.414  0.00  0.00    +0.062 S 
ATOM      4  O   UNL     1       4.967  -3.682   0.047  0.00  0.00    -0.153 OA
ATOM      5  O   UNL     1       2.618  -4.408  -0.352  0.00  0.00    -0.153 OA
BRANCH   3   6
ATOM      6  C   UNL     1       3.787  -2.951  -2.104  0.00  0.00    +0.107 A 
ATOM      7  C   UNL     1       2.710  -3.119  -2.959  0.00  0.00    +0.032 A 
ATOM      8  C   UNL     1       2.805  -2.744  -4.284  0.00  0.00    +0.048 A 
ATOM      9  C   UNL     1       3.986  -2.204  -4.771  0.00  0.00    +0.131 A 
ATOM     10  C   UNL     1       5.080  -2.037  -3.910  0.00  0.00    +0.106 A 
ATOM     11  C   UNL     1       4.968  -2.417  -2.570  0.00  0.00    +0.047 A 
BRANCH  10  12
ATOM     12  C   UNL     1       6.340  -1.464  -4.415  0.00  0.00    +0.390 C 
ATOM     13  O   UNL     1       6.434  -1.135  -5.581  0.00  0.00    -0.240 OA
ATOM     14  O   UNL     1       7.389  -1.305  -3.584  0.00  0.00    -0.240 OA
ENDBRANCH  10  12
BRANCH   9  15
ATOM     15  O   UNL     1       4.083  -1.840  -6.074  0.00  0.00    -0.506 OA
ATOM     16  H   UNL     1       4.397  -2.545  -6.657  0.00  0.00    +0.292 HD
ENDBRANCH   9  15
ENDBRANCH   3   6
ENDBRANCH   1   3
BRANCH   1  17
ATOM     17  C   UNL     1       1.657  -1.899   0.592  0.00  0.00    +0.175 C 
BRANCH  17  18
ATOM     18  C   UNL     1       1.270  -0.577  -0.020  0.00  0.00    -0.021 A 
ATOM     19  C   UNL     1       1.828   0.595   0.457  0.00  0.00    +0.007 A 
ATOM     20  C   UNL     1       1.478   1.807  -0.108  0.00  0.00    +0.020 A 
ATOM     21  C   UNL     1       0.561   1.849  -1.143  0.00  0.00    +0.041 A 
ATOM     22  C   UNL     1      -0.001   0.677  -1.616  0.00  0.00    +0.020 A 
ATOM     23  C   UNL     1       0.354  -0.535  -1.054  0.00  0.00    +0.007 A 
ATOM     24 CL   UNL     1       0.117   3.372  -1.848  0.00  0.00    -0.084 Cl
ENDBRANCH  17  18
BRANCH  17  30
ATOM     25  C   UNL     1      -0.599  -3.514   1.969  0.00  0.00    +0.150 C 
ATOM     26  N   UNL     1       0.329  -2.603   2.643  0.00  0.00    -0.336 N 
ATOM     27  C   UNL     1       0.356  -2.313   3.980  0.00  0.00    +0.106 A 
ATOM     28  C   UNL     1       1.359  -1.435   4.169  0.00  0.00    +0.130 A 
ATOM     29  N   UNL     1       1.929  -1.195   2.979  0.00  0.00    -0.239 NA
ATOM     30  C   UNL     1       1.317  -1.891   2.060  0.00  0.00    +0.133 A 
ENDBRANCH  17  30
ENDBRANCH   1  17
TORSDOF 7
