REMARK  Name = ZINC65201582
REMARK  8 active torsions:
REMARK  status: ('A' for Active; 'I' for Inactive)
REMARK    1  A    between atoms: C_1  and  C_2
REMARK    2  A    between atoms: C_2  and  N_3
REMARK    3  A    between atoms: N_10  and  C_13
REMARK    4  A    between atoms: C_13  and  C_14
REMARK    5  A    between atoms: N_16  and  N_17
REMARK    6  A    between atoms: N_20  and  C_21
REMARK    7  A    between atoms: C_21  and  C_22
REMARK    8  A    between atoms: C_22  and  C_23
REMARK                            x       y       z     vdW  Elec       q    Type
REMARK                         _______ _______ _______ _____ _____    ______ ____
ROOT
ATOM      1  C   UNL     1       1.020  -0.389   5.527  0.00  0.00    +0.249 C 
ATOM      2  O   UNL     1       1.279   0.696   5.050  0.00  0.00    -0.272 OA
ATOM      3  N   UNL     1       0.859  -0.518   6.859  0.00  0.00    -0.232 N 
ATOM      4  H   UNL     1       0.651  -1.385   7.240  0.00  0.00    +0.173 HD
ENDROOT
BRANCH   3   5
ATOM      5  N   UNL     1       0.990   0.601   7.692  0.00  0.00    -0.218 N 
ATOM      6  C   UNL     1       0.828   0.472   9.024  0.00  0.00    +0.316 C 
ATOM      7  O   UNL     1       0.942   1.443   9.747  0.00  0.00    -0.251 OA
ATOM      8  N   UNL     1       0.541  -0.733   9.554  0.00  0.00    -0.298 N 
ATOM      9  H   UNL     1       1.197   1.468   7.310  0.00  0.00    +0.174 HD
ATOM     10  H   UNL     1       0.450  -1.508   8.977  0.00  0.00    +0.150 HD
BRANCH   8  11
ATOM     11  C   UNL     1       0.365  -0.873  11.002  0.00  0.00    +0.111 C 
BRANCH  11  12
ATOM     12  C   UNL     1       0.048  -2.332  11.338  0.00  0.00    +0.061 C 
BRANCH  12  13
ATOM     13  C   UNL     1      -0.132  -2.476  12.827  0.00  0.00    -0.009 A 
ATOM     14  C   UNL     1      -1.264  -2.364  13.565  0.00  0.00    +0.011 A 
ATOM     15  C   UNL     1      -1.192  -2.540  14.934  0.00  0.00    +0.008 A 
ATOM     16  C   UNL     1       0.008  -2.818  15.499  0.00  0.00    +0.045 A 
ATOM     17  S   UNL     1       1.088  -2.847  14.077  0.00  0.00    -0.102 S 
ENDBRANCH  12  13
ENDBRANCH  11  12
ENDBRANCH   8  11
ENDBRANCH   3   5
BRANCH   1  18
ATOM     18  C   UNL     1       0.879  -1.592   4.631  0.00  0.00    +0.224 C 
BRANCH  18  26
ATOM     19  N   UNL     1       0.711  -0.489   1.189  0.00  0.00    -0.292 N 
ATOM     20  C   UNL     1       2.078  -0.738   1.277  0.00  0.00    +0.070 A 
ATOM     21  C   UNL     1       3.126  -0.625   0.375  0.00  0.00    +0.028 A 
ATOM     22  C   UNL     1       4.408  -0.955   0.767  0.00  0.00    +0.002 A 
ATOM     23  C   UNL     1       4.653  -1.397   2.056  0.00  0.00    +0.002 A 
ATOM     24  C   UNL     1       3.616  -1.513   2.961  0.00  0.00    +0.028 A 
ATOM     25  C   UNL     1       2.325  -1.184   2.577  0.00  0.00    +0.070 A 
ATOM     26  N   UNL     1       1.099  -1.192   3.239  0.00  0.00    -0.283 N 
ATOM     27  C   UNL     1       0.152  -0.766   2.382  0.00  0.00    +0.331 A 
ATOM     28  O   UNL     1      -1.031  -0.651   2.646  0.00  0.00    -0.246 OA
BRANCH  19  30
ATOM     29  C   UNL     1      -0.019   1.526   0.010  0.00  0.00    +0.027 C 
ATOM     30  C   UNL     1       0.002  -0.004   0.002  0.00  0.00    +0.123 C 
ENDBRANCH  19  30
ENDBRANCH  18  26
ENDBRANCH   1  18
TORSDOF 7
