REMARK  Name = ZINC08939912
REMARK  6 active torsions:
REMARK  status: ('A' for Active; 'I' for Inactive)
REMARK    1  A    between atoms: C_1  and  C_2
REMARK    2  A    between atoms: C_2  and  C_3
REMARK    3  A    between atoms: C_12  and  C_13
REMARK    4  A    between atoms: C_13  and  C_15
REMARK    5  A    between atoms: C_15  and  N_16
REMARK    6  A    between atoms: C_24  and  C_26
REMARK                            x       y       z     vdW  Elec       q    Type
REMARK                         _______ _______ _______ _____ _____    ______ ____
ROOT
ATOM      1  C   UNL     1      -4.535  -4.267   3.208  0.00  0.00    +0.197 C 
ENDROOT
BRANCH   1   2
ATOM      2  N   UNL     1      -5.810  -4.980   3.322  0.00  0.00    -0.217 N 
ATOM      3  C   UNL     1      -6.315  -5.786   2.366  0.00  0.00    +0.247 C 
ATOM      4  O   UNL     1      -5.821  -6.049   1.291  0.00  0.00    -0.273 OA
ATOM      5  C   UNL     1      -7.628  -6.294   2.918  0.00  0.00    +0.115 C 
ATOM      6  C   UNL     1      -7.596  -7.812   3.051  0.00  0.00    +0.035 C 
ATOM      7  C   UNL     1      -7.453  -8.444   1.665  0.00  0.00    +0.003 C 
ATOM      8  C   UNL     1      -8.630  -8.016   0.786  0.00  0.00    +0.000 C 
ATOM      9  C   UNL     1      -8.637  -6.493   0.645  0.00  0.00    +0.006 C 
ATOM     10  C   UNL     1      -8.784  -5.854   2.028  0.00  0.00    +0.018 C 
ATOM     11  C   UNL     1      -8.771  -4.330   1.889  0.00  0.00    +0.010 C 
ATOM     12  N   UNL     1      -7.726  -5.662   4.240  0.00  0.00    -0.285 N 
ATOM     13  C   UNL     1      -6.614  -4.917   4.390  0.00  0.00    +0.310 C 
ATOM     14  O   UNL     1      -6.371  -4.258   5.382  0.00  0.00    -0.252 OA
ATOM     15  H   UNL     1      -8.447  -5.765   4.881  0.00  0.00    +0.151 HD
ENDBRANCH   1   2
BRANCH   1  16
ATOM     16  C   UNL     1      -4.770  -2.913   2.590  0.00  0.00    +0.183 C 
ATOM     17  O   UNL     1      -5.893  -2.577   2.274  0.00  0.00    -0.290 OA
BRANCH  16  27
ATOM     18  C   UNL     1      -2.143   1.058   1.278  0.00  0.00    -0.024 A 
ATOM     19  C   UNL     1      -3.170   1.838   0.792  0.00  0.00    +0.005 A 
ATOM     20  C   UNL     1      -4.474   1.369   0.791  0.00  0.00    +0.001 A 
ATOM     21  C   UNL     1      -4.762   0.115   1.287  0.00  0.00    +0.011 A 
ATOM     22  C   UNL     1      -3.736  -0.681   1.785  0.00  0.00    +0.010 A 
ATOM     23  C   UNL     1      -2.413  -0.210   1.782  0.00  0.00    +0.050 A 
ATOM     24  N   UNL     1      -1.617  -1.196   2.328  0.00  0.00    -0.360 N 
ATOM     25  H   UNL     1      -0.656  -1.128   2.444  0.00  0.00    +0.165 HD
ATOM     26  C   UNL     1      -2.356  -2.267   2.677  0.00  0.00    +0.095 A 
ATOM     27  C   UNL     1      -3.680  -2.033   2.376  0.00  0.00    +0.044 A 
BRANCH  18  29
ATOM     28  C   UNL     1      -0.013   1.086   0.008  0.00  0.00    +0.009 C 
ATOM     29  C   UNL     1      -0.729   1.579   1.267  0.00  0.00    +0.034 C 
ENDBRANCH  18  29
ENDBRANCH  16  27
ENDBRANCH   1  16
TORSDOF 4
