REMARK  Name = ZINC48193061
REMARK  9 active torsions:
REMARK  status: ('A' for Active; 'I' for Inactive)
REMARK    1  A    between atoms: C_1  and  C_2
REMARK    2  A    between atoms: C_8  and  C_29
REMARK    3  A    between atoms: C_8  and  C_30
REMARK    4  A    between atoms: C_10  and  N_12
REMARK    5  A    between atoms: N_15  and  C_16
REMARK    6  A    between atoms: C_16  and  C_18
REMARK    7  A    between atoms: C_16  and  C_19
REMARK    8  A    between atoms: C_23  and  S_25
REMARK    9  A    between atoms: S_25  and  N_28
REMARK                            x       y       z     vdW  Elec       q    Type
REMARK                         _______ _______ _______ _____ _____    ______ ____
ROOT
ATOM      1  N   UNL     1      -2.505  -3.298  -0.964  0.00  0.00    -0.292 N 
ATOM      2  C   UNL     1      -3.667  -2.732  -0.582  0.00  0.00    +0.301 C 
ATOM      3  O   UNL     1      -3.796  -2.314   0.552  0.00  0.00    -0.253 OA
ATOM      4  N   UNL     1      -4.686  -2.630  -1.458  0.00  0.00    -0.293 N 
ATOM      5  H   UNL     1      -2.401  -3.631  -1.869  0.00  0.00    +0.151 HD
ATOM      6  H   UNL     1      -4.583  -2.964  -2.363  0.00  0.00    +0.151 HD
ENDROOT
BRANCH   1  16
ATOM      7  C   UNL     1      -0.018   1.503   0.010  0.00  0.00    +0.086 C 
ATOM      8  C   UNL     1       0.002  -0.004   0.002  0.00  0.00    +0.103 A 
ATOM      9  C   UNL     1      -1.081  -0.806   0.003  0.00  0.00    +0.050 A 
ATOM     10  C   UNL     1      -0.602  -2.129  -0.007  0.00  0.00    +0.014 A 
ATOM     11  C   UNL     1       0.745  -2.064  -0.011  0.00  0.00    +0.111 A 
ATOM     12  O   UNL     1       1.104  -0.775  -0.013  0.00  0.00    -0.464 OA
ATOM     13  C   UNL     1       1.646  -3.276  -0.019  0.00  0.00    +0.081 C 
ATOM     14  C   UNL     1       0.818  -4.497   0.398  0.00  0.00    -0.026 C 
ATOM     15  C   UNL     1      -0.466  -4.554  -0.433  0.00  0.00    +0.034 C 
ATOM     16  C   UNL     1      -1.397  -3.409  -0.012  0.00  0.00    +0.109 C 
ATOM     17  C   UNL     1       1.634  -5.770   0.162  0.00  0.00    +0.011 C 
ATOM     18  C   UNL     1       0.461  -4.389   1.882  0.00  0.00    +0.011 C 
ENDBRANCH   1  16
BRANCH   4  19
ATOM     19  C   UNL     1      -5.950  -2.016  -1.043  0.00  0.00    +0.102 C 
ATOM     20  C   UNL     1      -6.830  -3.068  -0.366  0.00  0.00    +0.033 C 
BRANCH  19  21
ATOM     21  C   UNL     1      -6.662  -1.467  -2.252  0.00  0.00    -0.026 A 
ATOM     22  C   UNL     1      -6.667  -2.183  -3.436  0.00  0.00    +0.005 A 
ATOM     23  C   UNL     1      -7.321  -1.679  -4.545  0.00  0.00    +0.002 A 
ATOM     24  C   UNL     1      -7.970  -0.461  -4.471  0.00  0.00    +0.028 A 
ATOM     25  C   UNL     1      -7.966   0.254  -3.288  0.00  0.00    +0.105 A 
ATOM     26  C   UNL     1      -7.316  -0.252  -2.177  0.00  0.00    +0.034 A 
BRANCH  25  27
ATOM     27  S   UNL     1      -8.793   1.807  -3.194  0.00  0.00    +0.056 S 
ATOM     28  O   UNL     1      -8.180   2.530  -2.136  0.00  0.00    -0.153 OA
ATOM     29  O   UNL     1      -8.863   2.310  -4.521  0.00  0.00    -0.153 OA
BRANCH  27  30
ATOM     30  N   UNL     1     -10.351   1.504  -2.719  0.00  0.00    -0.204 NA
ATOM     31  H   UNL     1     -10.837   2.165  -2.202  0.00  0.00    +0.144 HD
ATOM     32  H   UNL     1     -10.776   0.666  -2.959  0.00  0.00    +0.144 HD
ENDBRANCH  27  30
ENDBRANCH  25  27
ENDBRANCH  19  21
ENDBRANCH   4  19
TORSDOF 5
