REMARK  Name = ZINC48371662
REMARK  8 active torsions:
REMARK  status: ('A' for Active; 'I' for Inactive)
REMARK    1  A    between atoms: C_1  and  C_2
REMARK    2  A    between atoms: C_5  and  C_28
REMARK    3  A    between atoms: N_8  and  C_10
REMARK    4  A    between atoms: C_10  and  C_11
REMARK    5  A    between atoms: C_11  and  N_12
REMARK    6  A    between atoms: N_15  and  C_16
REMARK    7  A    between atoms: C_16  and  C_17
REMARK    8  A    between atoms: C_17  and  C_18
REMARK                            x       y       z     vdW  Elec       q    Type
REMARK                         _______ _______ _______ _____ _____    ______ ____
ROOT
ATOM      1  N   UNL     1       2.819  -0.203   4.893  0.00  0.00    -0.301 N 
ATOM      2  C   UNL     1       2.398   0.248   6.091  0.00  0.00    +0.300 C 
ATOM      3  O   UNL     1       1.450   1.007   6.155  0.00  0.00    -0.253 OA
ATOM      4  N   UNL     1       3.026  -0.142   7.217  0.00  0.00    -0.299 N 
ATOM      5  H   UNL     1       3.575  -0.809   4.842  0.00  0.00    +0.150 HD
ATOM      6  H   UNL     1       3.782  -0.748   7.166  0.00  0.00    +0.150 HD
ENDROOT
BRANCH   1   7
ATOM      7  C   UNL     1       2.136   0.221   3.668  0.00  0.00    +0.087 C 
BRANCH   7   8
ATOM      8  C   UNL     1       2.808  -0.431   2.458  0.00  0.00    -0.060 C 
BRANCH   8  14
ATOM      9  C   UNL     1      -0.019   1.526   0.010  0.00  0.00    +0.005 C 
ATOM     10  C   UNL     1       0.002  -0.004   0.002  0.00  0.00    -0.031 C 
ATOM     11  C   UNL     1       0.721  -0.499  -1.257  0.00  0.00    +0.003 C 
ATOM     12  C   UNL     1       2.177  -0.027  -1.220  0.00  0.00    -0.031 C 
ATOM     13  C   UNL     1       2.839  -0.534   0.063  0.00  0.00    -0.076 C 
ATOM     14  N   UNL     1       2.123  -0.005   1.230  0.00  0.00    +0.381 N 
ATOM     15  C   UNL     1       0.744  -0.512   1.240  0.00  0.00    -0.076 C 
ATOM     16  C   UNL     1       2.924  -0.581  -2.434  0.00  0.00    +0.005 C 
ATOM     17  H   UNL     1       2.109   1.003   1.187  0.00  0.00    -0.082 HD
ENDBRANCH   8  14
ENDBRANCH   7   8
ENDBRANCH   1   7
BRANCH   4  18
ATOM     18  C   UNL     1       2.568   0.348   8.519  0.00  0.00    +0.113 C 
BRANCH  18  19
ATOM     19  C   UNL     1       3.446  -0.242   9.625  0.00  0.00    +0.095 C 
BRANCH  19  20
ATOM     20  C   UNL     1       2.975   0.263  10.964  0.00  0.00    +0.135 A 
ATOM     21  N   UNL     1       3.380   1.347  11.572  0.00  0.00    -0.134 NA
ATOM     22  N   UNL     1       2.760   1.474  12.693  0.00  0.00    -0.134 NA
ATOM     23  C   UNL     1       1.931   0.481  12.847  0.00  0.00    +0.133 A 
ATOM     24  N   UNL     1       2.049  -0.317  11.760  0.00  0.00    -0.315 N 
ATOM     25  C   UNL     1       1.327  -1.565  11.513  0.00  0.00    +0.125 C 
ATOM     26  C   UNL     1      -0.026  -1.520  12.229  0.00  0.00    +0.022 C 
ATOM     27  C   UNL     1       0.124  -2.066  13.648  0.00  0.00    +0.002 C 
ATOM     28  C   UNL     1       1.101  -1.211  14.450  0.00  0.00    +0.008 C 
ATOM     29  C   UNL     1       0.996   0.246  14.005  0.00  0.00    +0.076 C 
ENDBRANCH  19  20
ENDBRANCH  18  19
ENDBRANCH   4  18
TORSDOF 6
