REMARK  Name = ZINC11881812
REMARK  6 active torsions:
REMARK  status: ('A' for Active; 'I' for Inactive)
REMARK    1  A    between atoms: C_3  and  C_13
REMARK    2  A    between atoms: C_13  and  N_63
REMARK    3  A    between atoms: C_20  and  C_24
REMARK    4  A    between atoms: C_24  and  N_65
REMARK    5  A    between atoms: C_29  and  C_31
REMARK    6  A    between atoms: C_31  and  O_32
REMARK                            x       y       z     vdW  Elec       q    Type
REMARK                         _______ _______ _______ _____ _____    ______ ____
ROOT
ATOM      1  C   UNL     1      -1.590   4.100  -5.716  0.00  0.00    -0.036 C 
ATOM      2  C   UNL     1      -2.555   2.963  -5.459  0.00  0.00    +0.210 C 
ATOM      3  O   UNL     1      -3.530   3.336  -4.477  0.00  0.00    -0.494 OA
ATOM      4  C   UNL     1      -3.153   3.152  -3.182  0.00  0.00    +0.122 A 
ATOM      5  C   UNL     1      -3.761   2.171  -2.411  0.00  0.00    +0.046 A 
ATOM      6  C   UNL     1      -3.346   1.970  -1.109  0.00  0.00    +0.005 A 
ATOM      7  C   UNL     1      -2.338   2.750  -0.571  0.00  0.00    -0.064 A 
ATOM      8  C   UNL     1      -1.737   3.733  -1.338  0.00  0.00    +0.007 A 
ATOM      9  C   UNL     1      -2.154   3.935  -2.638  0.00  0.00    -0.022 A 
ATOM     10  C   UNL     1      -1.538   5.043  -3.471  0.00  0.00    -0.039 C 
ATOM     11  N   UNL     1      -0.739   4.410  -4.547  0.00  0.00    +0.388 N 
ATOM     12  H   UNL     1      -0.339   3.534  -4.188  0.00  0.00    -0.081 HD
ENDROOT
BRANCH  11  13
ATOM     13  C   UNL     1       0.358   5.303  -4.951  0.00  0.00    -0.023 C 
BRANCH  13  16
ATOM     14  C   UNL     1      -0.707   8.838  -4.866  0.00  0.00    +0.020 A 
ATOM     15  C   UNL     1      -0.165   7.692  -4.249  0.00  0.00    +0.021 A 
ATOM     16  C   UNL     1      -0.143   6.708  -5.170  0.00  0.00    +0.009 A 
ATOM     17  N   UNL     1      -0.649   7.205  -6.338  0.00  0.00    -0.307 N 
ATOM     18  C   UNL     1      -0.998   8.511  -6.141  0.00  0.00    +0.093 A 
ATOM     19  C   UNL     1      -0.789   6.495  -7.534  0.00  0.00    +0.138 A 
ATOM     20  C   UNL     1      -1.454   7.076  -8.606  0.00  0.00    +0.048 A 
ATOM     21  C   UNL     1      -1.582   6.365  -9.786  0.00  0.00    +0.025 A 
ATOM     22  C   UNL     1      -1.046   5.085  -9.848  0.00  0.00    +0.059 A 
ATOM     23  C   UNL     1      -0.401   4.567  -8.741  0.00  0.00    +0.133 A 
ATOM     24  N   UNL     1      -0.291   5.273  -7.632  0.00  0.00    -0.236 NA
ATOM     25 CL   UNL     1      -1.183   4.146 -11.302  0.00  0.00    -0.082 Cl
ENDBRANCH  13  16
ENDBRANCH  11  13
BRANCH   7  26
ATOM     26  C   UNL     1      -1.888   2.524   0.849  0.00  0.00    -0.043 C 
BRANCH  26  32
ATOM     27  C   UNL     1      -4.109   3.296   1.425  0.00  0.00    -0.078 C 
ATOM     28  C   UNL     1      -4.883   4.295   2.288  0.00  0.00    -0.019 C 
ATOM     29  C   UNL     1      -4.663   3.962   3.766  0.00  0.00    -0.003 C 
ATOM     30  C   UNL     1      -3.163   3.997   4.071  0.00  0.00    -0.013 C 
ATOM     31  C   UNL     1      -2.439   3.007   3.156  0.00  0.00    -0.042 C 
ATOM     32  N   UNL     1      -2.670   3.396   1.749  0.00  0.00    +0.386 N 
ATOM     33  H   UNL     1      -2.366   4.368   1.618  0.00  0.00    -0.081 HD
BRANCH  31  34
ATOM     34  C   UNL     1      -0.936   3.053   3.444  0.00  0.00    +0.140 C 
BRANCH  34  35
ATOM     35  O   UNL     1      -0.467   4.396   3.313  0.00  0.00    -0.397 OA
ATOM     36  H   UNL     1       0.479   4.500   3.482  0.00  0.00    +0.209 HD
ENDBRANCH  34  35
ENDBRANCH  31  34
ENDBRANCH  26  32
ENDBRANCH   7  26
TORSDOF 6
