REMARK  Name = ZINC06074452
REMARK  12 active torsions:
REMARK  status: ('A' for Active; 'I' for Inactive)
REMARK    1  A    between atoms: C_1  and  C_2
REMARK    2  A    between atoms: C_2  and  C_3
REMARK    3  A    between atoms: C_2  and  C_4
REMARK    4  A    between atoms: C_2  and  N_5
REMARK    5  A    between atoms: C_6  and  C_8
REMARK    6  A    between atoms: C_8  and  C_10
REMARK    7  A    between atoms: C_8  and  N_17
REMARK    8  A    between atoms: N_17  and  C_18
REMARK    9  A    between atoms: C_18  and  C_19
REMARK   10  A    between atoms: C_26  and  C_28
REMARK   11  A    between atoms: C_29  and  N_36
REMARK   12  A    between atoms: C_30  and  C_33
REMARK                            x       y       z     vdW  Elec       q    Type
REMARK                         _______ _______ _______ _____ _____    ______ ____
ROOT
ATOM      1  N   UNL     1       4.667   0.119  -0.276  0.00  0.00    -0.277 N 
ATOM      2  C   UNL     1       4.049  -0.356   0.824  0.00  0.00    +0.258 C 
ATOM      3  O   UNL     1       4.681  -0.530   1.849  0.00  0.00    -0.269 OA
ENDROOT
BRANCH   2   4
ATOM      4  C   UNL     1       2.618  -0.662   0.784  0.00  0.00    +0.115 A 
ATOM      5  C   UNL     1       1.822  -1.298   1.740  0.00  0.00    +0.076 A 
ATOM      6  C   UNL     1       0.491  -1.409   1.338  0.00  0.00    +0.155 A 
ATOM      7  N   UNL     1       0.131  -0.933   0.166  0.00  0.00    -0.203 NA
ATOM      8  S   UNL     1       1.425  -0.325  -0.495  0.00  0.00    +0.019 S 
BRANCH   6   9
ATOM      9  C   UNL     1      -0.501  -2.053   2.217  0.00  0.00    +0.262 C 
ATOM     10  O   UNL     1      -0.161  -2.491   3.300  0.00  0.00    -0.269 OA
ATOM     11  N   UNL     1      -1.786  -2.157   1.822  0.00  0.00    -0.324 N 
ATOM     12  H   UNL     1      -2.057  -1.807   0.959  0.00  0.00    +0.145 HD
ATOM     13  H   UNL     1      -2.439  -2.581   2.401  0.00  0.00    +0.145 HD
ENDBRANCH   6   9
BRANCH   5  14
ATOM     14  N   UNL     1       2.303  -1.767   2.955  0.00  0.00    -0.355 N 
ATOM     15  H   UNL     1       1.701  -2.201   3.579  0.00  0.00    +0.142 HD
ATOM     16  H   UNL     1       3.241  -1.661   3.179  0.00  0.00    +0.142 HD
ENDBRANCH   5  14
ENDBRANCH   2   4
BRANCH   1  17
ATOM     17  C   UNL     1       6.127   0.232  -0.305  0.00  0.00    +0.193 C 
BRANCH  17  18
ATOM     18  C   UNL     1       6.587   1.100   0.838  0.00  0.00    -0.018 A 
ATOM     19  C   UNL     1       5.842   2.204   1.210  0.00  0.00    +0.007 A 
ATOM     20  C   UNL     1       6.260   2.998   2.261  0.00  0.00    +0.020 A 
ATOM     21  C   UNL     1       7.430   2.694   2.934  0.00  0.00    +0.041 A 
ATOM     22  C   UNL     1       8.178   1.593   2.558  0.00  0.00    +0.020 A 
ATOM     23  C   UNL     1       7.756   0.796   1.510  0.00  0.00    +0.007 A 
ATOM     24 CL   UNL     1       7.960   3.695   4.250  0.00  0.00    -0.084 Cl
ENDBRANCH  17  18
BRANCH  17  26
ATOM     25  N   UNL     1       7.741   0.509  -2.159  0.00  0.00    -0.309 N 
ATOM     26  C   UNL     1       6.558   0.849  -1.610  0.00  0.00    +0.239 C 
ATOM     27  O   UNL     1       5.840   1.653  -2.167  0.00  0.00    -0.273 OA
ATOM     28  H   UNL     1       8.268  -0.206  -1.769  0.00  0.00    +0.149 HD
BRANCH  25  30
ATOM     29  C   UNL     1       8.425   2.698  -3.007  0.00  0.00    +0.031 C 
ATOM     30  C   UNL     1       8.230   1.219  -3.343  0.00  0.00    +0.026 C 
ATOM     31  C   UNL     1       9.565   0.615  -3.784  0.00  0.00    +0.031 C 
ATOM     32  C   UNL     1       7.211   1.083  -4.476  0.00  0.00    +0.031 C 
ENDBRANCH  25  30
ENDBRANCH  17  26
ENDBRANCH   1  17
BRANCH   1  33
ATOM     33  C   UNL     1       3.878   0.524  -1.442  0.00  0.00    +0.144 C 
BRANCH  33  34
ATOM     34  C   UNL     1       4.013  -0.516  -2.525  0.00  0.00    -0.030 A 
ATOM     35  C   UNL     1       5.092  -0.478  -3.388  0.00  0.00    +0.008 A 
ATOM     36  C   UNL     1       5.219  -1.434  -4.378  0.00  0.00    +0.038 A 
ATOM     37  C   UNL     1       4.260  -2.424  -4.512  0.00  0.00    +0.123 A 
ATOM     38  C   UNL     1       3.177  -2.457  -3.650  0.00  0.00    +0.038 A 
ATOM     39  C   UNL     1       3.054  -1.504  -2.658  0.00  0.00    +0.008 A 
ATOM     40  F   UNL     1       4.381  -3.356  -5.482  0.00  0.00    -0.205 F 
ENDBRANCH  33  34
ENDBRANCH   1  33
TORSDOF 9
