REMARK  Name = ZINC67029028
REMARK  8 active torsions:
REMARK  status: ('A' for Active; 'I' for Inactive)
REMARK    1  A    between atoms: C_1  and  C_2
REMARK    2  A    between atoms: C_2  and  C_3
REMARK    3  A    between atoms: C_5  and  C_8
REMARK    4  A    between atoms: C_10  and  C_17
REMARK    5  A    between atoms: C_11  and  C_16
REMARK    6  A    between atoms: N_19  and  C_20
REMARK    7  A    between atoms: C_23  and  C_27
REMARK    8  A    between atoms: C_25  and  C_26
REMARK                            x       y       z     vdW  Elec       q    Type
REMARK                         _______ _______ _______ _____ _____    ______ ____
ROOT
ATOM      1  C   UNL     1      -4.668  -1.085  -2.069  0.00  0.00    +0.158 C 
ATOM      2  C   UNL     1      -4.797   0.038  -3.078  0.00  0.00    +0.057 C 
ATOM      3  C   UNL     1      -6.041   0.427  -3.430  0.00  0.00    +0.017 C 
ATOM      4  N   UNL     1      -7.145  -0.171  -2.893  0.00  0.00    -0.300 N 
ATOM      5  C   UNL     1      -7.089  -1.166  -1.999  0.00  0.00    +0.135 C 
ATOM      6  S   UNL     1      -8.552  -1.829  -1.405  0.00  0.00    -0.019 S 
ATOM      7  N   UNL     1      -5.920  -1.663  -1.551  0.00  0.00    -0.314 N 
ATOM      8  C   UNL     1      -6.214   1.541  -4.430  0.00  0.00    +0.061 C 
ATOM      9  H   UNL     1      -8.018   0.142  -3.175  0.00  0.00    +0.154 HD
ATOM     10  H   UNL     1      -5.903  -2.384  -0.902  0.00  0.00    +0.149 HD
ENDROOT
BRANCH   1  13
ATOM     11  C   UNL     1      -1.944   0.293  -0.013  0.00  0.00    +0.078 A 
ATOM     12  N   UNL     1      -2.630  -0.157  -1.034  0.00  0.00    -0.247 NA
ATOM     13  C   UNL     1      -3.875  -0.567  -0.897  0.00  0.00    +0.074 A 
ATOM     14  C   UNL     1      -4.410  -0.502   0.349  0.00  0.00    +0.072 A 
ATOM     15  S   UNL     1      -3.030   0.163   1.266  0.00  0.00    -0.080 S 
BRANCH  11  17
ATOM     16  C   UNL     1      -0.516   2.307  -0.245  0.00  0.00    +0.011 C 
ATOM     17  C   UNL     1      -0.525   0.799   0.011  0.00  0.00    +0.059 C 
ENDBRANCH  11  17
ENDBRANCH   1  13
BRANCH   2  18
ATOM     18  C   UNL     1      -3.651   0.658  -3.634  0.00  0.00    +0.248 C 
ATOM     19  O   UNL     1      -3.111   1.576  -3.045  0.00  0.00    -0.270 OA
ATOM     20  N   UNL     1      -3.160   0.231  -4.814  0.00  0.00    -0.281 N 
ATOM     21  H   UNL     1      -3.537  -0.553  -5.242  0.00  0.00    +0.155 HD
BRANCH  20  22
ATOM     22  C   UNL     1      -2.106   0.920  -5.423  0.00  0.00    +0.037 A 
ATOM     23  C   UNL     1      -1.166   1.583  -4.644  0.00  0.00    +0.024 A 
ATOM     24  C   UNL     1      -0.127   2.263  -5.247  0.00  0.00    +0.005 A 
ATOM     25  C   UNL     1      -0.021   2.284  -6.626  0.00  0.00    -0.050 A 
ATOM     26  C   UNL     1      -0.955   1.626  -7.405  0.00  0.00    +0.008 A 
ATOM     27  C   UNL     1      -1.994   0.939  -6.807  0.00  0.00    -0.029 A 
ATOM     28  C   UNL     1      -3.007   0.215  -7.655  0.00  0.00    +0.045 C 
ATOM     29  C   UNL     1       1.114   3.027  -7.282  0.00  0.00    +0.044 C 
ENDBRANCH  20  22
ENDBRANCH   2  18
TORSDOF 4
