REMARK  Name = ZINC38614648
REMARK  9 active torsions:
REMARK  status: ('A' for Active; 'I' for Inactive)
REMARK    1  A    between atoms: C_1  and  N_2
REMARK    2  A    between atoms: N_2  and  C_3
REMARK    3  A    between atoms: N_2  and  C_4
REMARK    4  A    between atoms: C_4  and  C_6
REMARK    5  A    between atoms: C_4  and  C_23
REMARK    6  A    between atoms: C_6  and  N_7
REMARK    7  A    between atoms: C_8  and  C_10
REMARK    8  A    between atoms: C_10  and  O_11
REMARK    9  A    between atoms: O_11  and  C_12
REMARK                            x       y       z     vdW  Elec       q    Type
REMARK                         _______ _______ _______ _____ _____    ______ ____
ROOT
ATOM      1  N   UNL     1      -1.702   1.302  -1.405  0.00  0.00    -0.314 N 
ATOM      2  C   UNL     1      -2.076   1.923  -2.541  0.00  0.00    +0.251 C 
ATOM      3  O   UNL     1      -2.645   1.302  -3.413  0.00  0.00    -0.272 OA
ATOM      4  H   UNL     1      -1.246   1.799  -0.708  0.00  0.00    +0.149 HD
ENDROOT
BRANCH   1   5
ATOM      5  C   UNL     1      -1.983  -0.125  -1.224  0.00  0.00    +0.096 C 
BRANCH   5   6
ATOM      6  C   UNL     1      -1.371  -0.601   0.095  0.00  0.00    +0.016 C 
BRANCH   6   7
ATOM      7  C   UNL     1       0.130  -0.488   0.023  0.00  0.00    +0.093 A 
ATOM      8  C   UNL     1       0.983  -1.497  -0.231  0.00  0.00    +0.043 A 
ATOM      9  C   UNL     1       2.285  -0.947  -0.204  0.00  0.00    +0.041 A 
ATOM     10  C   UNL     1       2.150   0.364   0.066  0.00  0.00    +0.195 A 
ATOM     11  O   UNL     1       0.842   0.637   0.196  0.00  0.00    -0.469 OA
ENDBRANCH   6   7
BRANCH   6  13
ATOM     12  C   UNL     1      -3.338   0.143   1.249  0.00  0.00    -0.096 C 
ATOM     13  N   UNL     1      -1.873   0.232   1.196  0.00  0.00    +0.384 N 
ATOM     14  C   UNL     1      -1.308  -0.244   2.466  0.00  0.00    -0.096 C 
ATOM     15  H   UNL     1      -1.599   1.191   1.044  0.00  0.00    -0.082 HD
ENDBRANCH   6  13
ENDBRANCH   5   6
ENDBRANCH   1   5
BRANCH   2  16
ATOM     16  C   UNL     1      -1.787   3.390  -2.728  0.00  0.00    +0.324 C 
BRANCH  16  17
ATOM     17  O   UNL     1      -2.276   3.814  -4.001  0.00  0.00    -0.480 OA
BRANCH  17  18
ATOM     18  C   UNL     1      -2.095   5.121  -4.329  0.00  0.00    +0.161 A 
ATOM     19  C   UNL     1      -3.058   6.062  -3.993  0.00  0.00    +0.104 A 
ATOM     20  C   UNL     1      -2.872   7.392  -4.327  0.00  0.00    +0.083 A 
ATOM     21  C   UNL     1      -1.724   7.784  -4.995  0.00  0.00    +0.081 A 
ATOM     22  C   UNL     1      -0.762   6.847  -5.330  0.00  0.00    +0.083 A 
ATOM     23  C   UNL     1      -0.943   5.517  -4.994  0.00  0.00    +0.104 A 
ATOM     24 CL   UNL     1       0.268   4.344  -5.408  0.00  0.00    -0.078 Cl
ATOM     25 CL   UNL     1       0.676   7.342  -6.168  0.00  0.00    -0.080 Cl
ATOM     26 CL   UNL     1      -1.492   9.453  -5.413  0.00  0.00    -0.080 Cl
ATOM     27 CL   UNL     1      -4.077   8.569  -3.908  0.00  0.00    -0.080 Cl
ATOM     28 CL   UNL     1      -4.497   5.570  -3.156  0.00  0.00    -0.078 Cl
ENDBRANCH  17  18
ENDBRANCH  16  17
ENDBRANCH   2  16
TORSDOF 7
