REMARK  Name = ZINC04525617
REMARK  6 active torsions:
REMARK  status: ('A' for Active; 'I' for Inactive)
REMARK    1  A    between atoms: C_1  and  O_2
REMARK    2  A    between atoms: O_2  and  C_3
REMARK    3  A    between atoms: C_5  and  C_10
REMARK    4  A    between atoms: C_8  and  O_9
REMARK    5  A    between atoms: C_21  and  C_22
REMARK    6  A    between atoms: C_21  and  N_53
REMARK                            x       y       z     vdW  Elec       q    Type
REMARK                         _______ _______ _______ _____ _____    ______ ____
ROOT
ATOM      1  C   UNL     1      -0.066   0.494   5.332  0.00  0.00    +0.190 C 
ATOM      2  N   UNL     1      -1.286   1.202   4.904  0.00  0.00    -0.316 N 
ATOM      3  C   UNL     1      -1.329   1.618   3.598  0.00  0.00    +0.080 A 
ATOM      4  C   UNL     1      -0.565   1.024   2.581  0.00  0.00    +0.068 A 
ATOM      5  C   UNL     1      -0.739   1.584   1.253  0.00  0.00    -0.027 A 
ATOM      6  C   UNL     1      -1.614   2.612   1.158  0.00  0.00    -0.021 A 
ATOM      7  S   UNL     1      -2.217   2.851   2.807  0.00  0.00    -0.080 S 
ATOM      8  C   UNL     1      -1.973   3.364  -0.085  0.00  0.00    -0.035 C 
ATOM      9  C   UNL     1      -0.765   1.599  -1.223  0.00  0.00    -0.073 C 
ATOM     10  C   UNL     1      -0.013   1.086   0.008  0.00  0.00    +0.018 C 
ATOM     11  C   UNL     1       0.329  -0.094   2.961  0.00  0.00    +0.248 C 
ATOM     12  O   UNL     1       0.937  -0.732   2.122  0.00  0.00    -0.270 OA
ATOM     13  N   UNL     1       0.441  -0.376   4.276  0.00  0.00    -0.289 N 
ATOM     14  H   UNL     1      -2.021   1.365   5.515  0.00  0.00    +0.149 HD
ATOM     15  H   UNL     1       0.882  -1.201   4.532  0.00  0.00    +0.151 HD
ATOM     16  N   UNL     1      -0.947   3.061  -1.111  0.00  0.00    +0.386 N 
ATOM     17  H   UNL     1      -0.056   3.488  -0.830  0.00  0.00    -0.081 HD
ENDROOT
BRANCH   1  20
ATOM     18  C   UNL     1       3.305   2.122   5.845  0.00  0.00    +0.162 A 
ATOM     19  C   UNL     1       2.330   1.191   5.523  0.00  0.00    +0.056 A 
ATOM     20  C   UNL     1       0.994   1.505   5.687  0.00  0.00    -0.006 A 
ATOM     21  C   UNL     1       0.627   2.744   6.181  0.00  0.00    +0.011 A 
ATOM     22  C   UNL     1       1.595   3.675   6.509  0.00  0.00    +0.049 A 
ATOM     23  C   UNL     1       2.936   3.368   6.342  0.00  0.00    +0.158 A 
BRANCH  18  25
ATOM     24  C   UNL     1       4.924   0.519   5.164  0.00  0.00    +0.277 C 
ATOM     25  O   UNL     1       4.620   1.816   5.679  0.00  0.00    -0.491 OA
ENDBRANCH  18  25
BRANCH  23  26
ATOM     26  O   UNL     1       3.889   4.282   6.665  0.00  0.00    -0.503 OA
ATOM     27  H   UNL     1       4.194   4.227   7.581  0.00  0.00    +0.292 HD
ENDBRANCH  23  26
ENDBRANCH   1  20
BRANCH  16  28
ATOM     28  C   UNL     1      -1.357   3.621  -2.417  0.00  0.00    -0.043 C 
BRANCH  28  29
ATOM     29  C   UNL     1      -1.319   5.125  -2.336  0.00  0.00    -0.064 A 
ATOM     30  C   UNL     1      -2.450   5.826  -1.958  0.00  0.00    +0.002 A 
ATOM     31  C   UNL     1      -2.413   7.205  -1.879  0.00  0.00    +0.000 A 
ATOM     32  C   UNL     1      -1.250   7.885  -2.188  0.00  0.00    +0.000 A 
ATOM     33  C   UNL     1      -0.121   7.185  -2.571  0.00  0.00    +0.000 A 
ATOM     34  C   UNL     1      -0.156   5.805  -2.646  0.00  0.00    +0.002 A 
ENDBRANCH  28  29
ENDBRANCH  16  28
TORSDOF 5
