REMARK  Name = ZINC67313712
REMARK  6 active torsions:
REMARK  status: ('A' for Active; 'I' for Inactive)
REMARK    1  A    between atoms: C_1  and  C_2
REMARK    2  A    between atoms: C_5  and  N_11
REMARK    3  A    between atoms: C_7  and  C_8
REMARK    4  A    between atoms: N_14  and  C_15
REMARK    5  A    between atoms: N_14  and  C_16
REMARK    6  A    between atoms: C_16  and  C_17
REMARK                            x       y       z     vdW  Elec       q    Type
REMARK                         _______ _______ _______ _____ _____    ______ ____
ROOT
ATOM      1  N   UNL     1       0.144  -4.328   0.193  0.00  0.00    -0.269 N 
ATOM      2  C   UNL     1       0.207  -5.123  -0.894  0.00  0.00    +0.306 C 
ATOM      3  O   UNL     1       0.130  -4.639  -2.007  0.00  0.00    -0.252 OA
ATOM      4  N   UNL     1       0.356  -6.454  -0.747  0.00  0.00    -0.284 N 
ATOM      5  C   UNL     1       0.449  -7.038   0.593  0.00  0.00    +0.134 C 
ATOM      6  H   UNL     1       0.130  -4.720   1.080  0.00  0.00    +0.156 HD
ENDROOT
BRANCH   1  11
ATOM      7  C   UNL     1      -0.020   1.322  -0.399  0.00  0.00    +0.044 C 
ATOM      8  C   UNL     1       0.021  -0.177  -0.245  0.00  0.00    -0.038 A 
ATOM      9  C   UNL     1       0.698  -0.743   0.816  0.00  0.00    +0.006 A 
ATOM     10  C   UNL     1       0.739  -2.117   0.962  0.00  0.00    +0.023 A 
ATOM     11  C   UNL     1       0.099  -2.937   0.041  0.00  0.00    +0.036 A 
ATOM     12  C   UNL     1      -0.584  -2.379  -1.028  0.00  0.00    +0.036 A 
ATOM     13  C   UNL     1      -0.629  -0.992  -1.173  0.00  0.00    +0.041 A 
BRANCH  13  14
ATOM     14  C   UNL     1      -1.360  -0.388  -2.307  0.00  0.00    +0.242 C 
ATOM     15  O   UNL     1      -1.346   0.817  -2.467  0.00  0.00    -0.270 OA
ATOM     16  N   UNL     1      -2.041  -1.174  -3.165  0.00  0.00    -0.325 N 
ATOM     17  H   UNL     1      -2.052  -2.135  -3.038  0.00  0.00    +0.145 HD
ATOM     18  H   UNL     1      -2.521  -0.777  -3.909  0.00  0.00    +0.145 HD
ENDBRANCH  13  14
ENDBRANCH   1  11
BRANCH   4  19
ATOM     19  C   UNL     1       0.425  -7.318  -1.929  0.00  0.00    +0.144 C 
BRANCH  19  20
ATOM     20  C   UNL     1       1.860  -7.460  -2.364  0.00  0.00    -0.026 A 
ATOM     21  C   UNL     1       2.399  -6.563  -3.268  0.00  0.00    +0.009 A 
ATOM     22  C   UNL     1       3.715  -6.691  -3.671  0.00  0.00    +0.050 A 
ATOM     23  C   UNL     1       4.499  -7.719  -3.169  0.00  0.00    +0.162 A 
ATOM     24  C   UNL     1       3.958  -8.620  -2.259  0.00  0.00    +0.162 A 
ATOM     25  C   UNL     1       2.638  -8.483  -1.856  0.00  0.00    +0.054 A 
ATOM     26  O   UNL     1       4.711  -9.632  -1.749  0.00  0.00    -0.485 OA
ATOM     27  C   UNL     1       5.916  -9.955  -2.452  0.00  0.00    +0.270 C 
ATOM     28  C   UNL     1       6.652  -8.647  -2.772  0.00  0.00    +0.270 C 
ATOM     29  O   UNL     1       5.792  -7.835  -3.579  0.00  0.00    -0.485 OA
ENDBRANCH  19  20
ENDBRANCH   4  19
TORSDOF 4
