REMARK  Name = ZINC08826574
REMARK  5 active torsions:
REMARK  status: ('A' for Active; 'I' for Inactive)
REMARK    1  A    between atoms: C_3  and  N_34
REMARK    2  A    between atoms: C_6  and  N_7
REMARK    3  A    between atoms: C_16  and  C_22
REMARK    4  A    between atoms: C_22  and  N_23
REMARK    5  A    between atoms: C_24  and  C_26
REMARK                            x       y       z     vdW  Elec       q    Type
REMARK                         _______ _______ _______ _____ _____    ______ ____
ROOT
ATOM      1  N   UNL     1      -0.017   1.378   0.010  0.00  0.00    -0.210 N 
ATOM      2  C   UNL     1       1.249   1.919   0.000  0.00  0.00    +0.233 C 
ATOM      3  O   UNL     1       1.589   3.026   0.359  0.00  0.00    -0.274 OA
ATOM      4  C   UNL     1       2.117   0.818  -0.559  0.00  0.00    +0.123 C 
ATOM      5  C   UNL     1       3.502   0.527   0.020  0.00  0.00    +0.155 C 
ATOM      6  C   UNL     1       3.547   0.354   1.519  0.00  0.00    +0.004 C 
ATOM      7  C   UNL     1       2.983  -0.799   1.851  0.00  0.00    +0.008 C 
ATOM      8  C   UNL     1       2.414  -1.345   0.505  0.00  0.00    +0.116 C 
ATOM      9  C   UNL     1       1.373  -0.304   0.280  0.00  0.00    +0.128 C 
ATOM     10  C   UNL     1       0.002  -0.004   0.002  0.00  0.00    +0.233 C 
ATOM     11  O   UNL     1      -0.916  -0.772  -0.192  0.00  0.00    -0.274 OA
ATOM     12  O   UNL     1       3.545  -0.914  -0.356  0.00  0.00    -0.359 OA
ENDROOT
BRANCH   1  18
ATOM     13  C   UNL     1      -2.430   1.514   0.016  0.00  0.00    +0.026 A 
ATOM     14  C   UNL     1      -3.586   2.270   0.033  0.00  0.00    +0.034 A 
ATOM     15  C   UNL     1      -3.511   3.651   0.039  0.00  0.00    +0.126 A 
ATOM     16  C   UNL     1      -2.280   4.279   0.036  0.00  0.00    +0.034 A 
ATOM     17  C   UNL     1      -1.120   3.529   0.027  0.00  0.00    +0.026 A 
ATOM     18  C   UNL     1      -1.192   2.142   0.019  0.00  0.00    +0.044 A 
BRANCH  15  19
ATOM     19  N   UNL     1      -4.752   4.458   0.050  0.00  0.00    +0.056 N 
ATOM     20  O   UNL     1      -4.688   5.674   0.056  0.00  0.00    -0.126 OA
ATOM     21  O   UNL     1      -5.838   3.905   0.052  0.00  0.00    -0.126 OA
ENDBRANCH  15  19
ENDBRANCH   1  18
BRANCH   8  22
ATOM     22  C   UNL     1       1.978  -2.809   0.422  0.00  0.00    +0.144 C 
BRANCH  22  23
ATOM     23  N   UNL     1       3.102  -3.675   0.787  0.00  0.00    -0.308 N 
ATOM     24  C   UNL     1       2.950  -5.014   0.785  0.00  0.00    +0.246 C 
ATOM     25  O   UNL     1       1.879  -5.504   0.480  0.00  0.00    -0.270 OA
ATOM     26  H   UNL     1       3.956  -3.284   1.030  0.00  0.00    +0.149 HD
BRANCH  24  27
ATOM     27  C   UNL     1       4.083  -5.887   1.153  0.00  0.00    +0.055 A 
ATOM     28  C   UNL     1       5.314  -5.328   1.503  0.00  0.00    +0.016 A 
ATOM     29  C   UNL     1       6.368  -6.147   1.846  0.00  0.00    +0.021 A 
ATOM     30  C   UNL     1       6.209  -7.524   1.843  0.00  0.00    +0.042 A 
ATOM     31  C   UNL     1       4.992  -8.086   1.497  0.00  0.00    +0.040 A 
ATOM     32  C   UNL     1       3.927  -7.276   1.157  0.00  0.00    +0.054 A 
ATOM     33 CL   UNL     1       2.399  -7.981   0.730  0.00  0.00    -0.083 Cl
ATOM     34 CL   UNL     1       7.542  -8.548   2.276  0.00  0.00    -0.083 Cl
ENDBRANCH  24  27
ENDBRANCH  22  23
ENDBRANCH   8  22
TORSDOF 5
