REMARK  Name = ZINC58111706
REMARK  6 active torsions:
REMARK  status: ('A' for Active; 'I' for Inactive)
REMARK    1  A    between atoms: C_1  and  C_2
REMARK    2  A    between atoms: C_6  and  C_9
REMARK    3  A    between atoms: C_9  and  C_11
REMARK    4  A    between atoms: C_9  and  O_12
REMARK    5  A    between atoms: C_13  and  C_17
REMARK    6  A    between atoms: C_13  and  C_18
REMARK                            x       y       z     vdW  Elec       q    Type
REMARK                         _______ _______ _______ _____ _____    ______ ____
ROOT
ATOM      1  C   UNL     1      -0.018   1.503   0.010  0.00  0.00    +0.047 C 
ATOM      2  C   UNL     1       0.002  -0.004   0.002  0.00  0.00    -0.010 A 
ATOM      3  C   UNL     1       0.006  -0.693  -1.209  0.00  0.00    +0.042 A 
ATOM      4  C   UNL     1       0.025  -2.082  -1.193  0.00  0.00    -0.011 A 
ATOM      5  C   UNL     1       0.039  -2.773  -0.003  0.00  0.00    +0.014 A 
ATOM      6  C   UNL     1       0.035  -2.084   1.197  0.00  0.00    -0.000 A 
ATOM      7  C   UNL     1       0.023  -0.699   1.194  0.00  0.00    +0.051 A 
ATOM      8 CL   UNL     1       0.026   0.167   2.699  0.00  0.00    -0.083 Cl
ATOM      9  C   UNL     1       0.024  -2.524  -2.639  0.00  0.00    +0.068 C 
ATOM     10  C   UNL     1       0.003  -1.227  -3.420  0.00  0.00    +0.227 C 
ATOM     11  O   UNL     1      -0.004  -1.114  -4.627  0.00  0.00    -0.275 OA
ATOM     12  N   UNL     1      -0.006  -0.226  -2.524  0.00  0.00    -0.284 N 
ATOM     13  C   UNL     1       1.292  -3.320  -2.956  0.00  0.00    +0.025 C 
ATOM     14  C   UNL     1      -1.223  -3.355  -2.945  0.00  0.00    +0.025 C 
ATOM     15  H   UNL     1      -0.021   0.714  -2.764  0.00  0.00    +0.155 HD
ENDROOT
BRANCH   6  16
ATOM     16  C   UNL     1       0.051  -2.837   2.502  0.00  0.00    +0.143 C 
ATOM     17  C   UNL     1       1.492  -2.964   3.000  0.00  0.00    +0.043 C 
BRANCH  16  18
ATOM     18  O   UNL     1      -0.502  -4.140   2.306  0.00  0.00    -0.387 OA
ATOM     19  H   UNL     1      -0.524  -4.682   3.107  0.00  0.00    +0.210 HD
ENDBRANCH  16  18
ENDBRANCH   6  16
TORSDOF 2
