REMARK  Name = ZINC13128814
REMARK  6 active torsions:
REMARK  status: ('A' for Active; 'I' for Inactive)
REMARK    1  A    between atoms: C_1  and  O_2
REMARK    2  A    between atoms: O_2  and  C_3
REMARK    3  A    between atoms: C_6  and  C_9
REMARK    4  A    between atoms: C_15  and  C_17
REMARK    5  A    between atoms: C_17  and  N_18
REMARK    6  A    between atoms: C_24  and  C_26
REMARK                            x       y       z     vdW  Elec       q    Type
REMARK                         _______ _______ _______ _____ _____    ______ ____
ROOT
ATOM      1  C   UNL     1       5.479  -1.857  -9.601  0.00  0.00    +0.181 C 
ENDROOT
BRANCH   1   8
ATOM      2  C   UNL     1       2.496  -2.495  -4.366  0.00  0.00    +0.080 A 
ATOM      3  C   UNL     1       2.544  -3.858  -4.447  0.00  0.00    +0.076 A 
ATOM      4  S   UNL     1       3.423  -4.067  -5.990  0.00  0.00    -0.060 S 
ATOM      5  C   UNL     1       3.634  -2.332  -6.364  0.00  0.00    +0.165 A 
ATOM      6  N   UNL     1       3.039  -1.766  -5.330  0.00  0.00    -0.225 NA
ATOM      7  N   UNL     1       4.255  -1.737  -7.455  0.00  0.00    -0.264 N 
ATOM      8  C   UNL     1       4.805  -2.502  -8.418  0.00  0.00    +0.233 C 
ATOM      9  O   UNL     1       4.758  -3.711  -8.333  0.00  0.00    -0.274 OA
ATOM     10  H   UNL     1       4.293  -0.770  -7.523  0.00  0.00    +0.157 HD
BRANCH   2  14
ATOM     11  C   UNL     1       0.606  -0.607  -1.056  0.00  0.00    +0.120 A 
ATOM     12  C   UNL     1       1.173   0.164  -2.062  0.00  0.00    +0.046 A 
ATOM     13  C   UNL     1       1.786  -0.446  -3.136  0.00  0.00    +0.013 A 
ATOM     14  C   UNL     1       1.837  -1.836  -3.212  0.00  0.00    +0.001 A 
ATOM     15  C   UNL     1       1.267  -2.608  -2.200  0.00  0.00    +0.013 A 
ATOM     16  C   UNL     1       0.659  -1.992  -1.125  0.00  0.00    +0.046 A 
BRANCH  11  18
ATOM     17  C   UNL     1      -0.017   1.425   0.010  0.00  0.00    +0.277 C 
ATOM     18  O   UNL     1       0.002  -0.004   0.002  0.00  0.00    -0.495 OA
ENDBRANCH  11  18
ENDBRANCH   2  14
ENDBRANCH   1   8
BRANCH   1  19
ATOM     19  N   UNL     1       5.993  -2.898 -10.501  0.00  0.00    -0.291 NA
ATOM     20  C   UNL     1       7.065  -3.668  -9.856  0.00  0.00    +0.104 C 
ATOM     21  C   UNL     1       7.447  -4.852 -10.751  0.00  0.00    +0.123 C 
ATOM     22  N   UNL     1       7.769  -4.340 -12.091  0.00  0.00    -0.296 N 
ATOM     23  C   UNL     1       6.800  -3.448 -12.746  0.00  0.00    +0.123 C 
ATOM     24  C   UNL     1       6.443  -2.319 -11.774  0.00  0.00    +0.104 C 
ATOM     25  C   UNL     1       8.920  -4.680 -12.704  0.00  0.00    +0.260 C 
ATOM     26  O   UNL     1       9.707  -5.418 -12.149  0.00  0.00    -0.271 OA
BRANCH  25  27
ATOM     27  C   UNL     1       9.230  -4.144 -14.078  0.00  0.00    +0.296 C 
ATOM     28  C   UNL     1       8.222  -4.705 -15.091  0.00  0.00    +0.283 C 
ATOM     29  O   UNL     1       8.553  -4.188 -16.385  0.00  0.00    -0.484 OA
ATOM     30  C   UNL     1       9.865  -4.234 -16.744  0.00  0.00    +0.162 A 
ATOM     31  C   UNL     1      10.210  -4.098 -18.081  0.00  0.00    +0.049 A 
ATOM     32  C   UNL     1      11.537  -4.138 -18.461  0.00  0.00    +0.004 A 
ATOM     33  C   UNL     1      12.526  -4.314 -17.511  0.00  0.00    +0.004 A 
ATOM     34  C   UNL     1      12.189  -4.452 -16.178  0.00  0.00    +0.049 A 
ATOM     35  C   UNL     1      10.858  -4.413 -15.789  0.00  0.00    +0.163 A 
ATOM     36  O   UNL     1      10.542  -4.558 -14.473  0.00  0.00    -0.473 OA
ENDBRANCH  25  27
ENDBRANCH   1  19
TORSDOF 5
