REMARK  Name = ZINC59587209
REMARK  10 active torsions:
REMARK  status: ('A' for Active; 'I' for Inactive)
REMARK    1  A    between atoms: C_1  and  O_2
REMARK    2  A    between atoms: O_2  and  C_3
REMARK    3  A    between atoms: C_5  and  C_19
REMARK    4  A    between atoms: C_8  and  O_9
REMARK    5  A    between atoms: O_9  and  C_10
REMARK    6  A    between atoms: C_10  and  C_11
REMARK    7  A    between atoms: C_19  and  N_20
REMARK    8  A    between atoms: N_20  and  C_21
REMARK    9  A    between atoms: N_24  and  C_27
REMARK   10  A    between atoms: C_27  and  C_28
REMARK                            x       y       z     vdW  Elec       q    Type
REMARK                         _______ _______ _______ _____ _____    ______ ____
ROOT
ATOM      1  C   UNL     1      -1.201  -0.638   0.010  0.00  0.00    +0.163 A 
ATOM      2  C   UNL     1      -2.374   0.100   0.019  0.00  0.00    +0.054 A 
ATOM      3  C   UNL     1      -3.597  -0.546   0.028  0.00  0.00    -0.029 A 
ATOM      4  C   UNL     1      -3.653  -1.927   0.028  0.00  0.00    +0.024 A 
ATOM      5  C   UNL     1      -2.486  -2.669   0.018  0.00  0.00    +0.063 A 
ATOM      6  C   UNL     1      -1.257  -2.028   0.003  0.00  0.00    +0.176 A 
ATOM      7 BR   UNL     1      -2.567  -4.559   0.019  0.00  0.00    -0.046 Br
ENDROOT
BRANCH   1   9
ATOM      8  C   UNL     1      -0.017   1.425   0.010  0.00  0.00    +0.277 C 
ATOM      9  O   UNL     1       0.002  -0.004   0.002  0.00  0.00    -0.491 OA
ENDBRANCH   1   9
BRANCH   6  10
ATOM     10  O   UNL     1      -0.108  -2.756  -0.012  0.00  0.00    -0.483 OA
BRANCH  10  11
ATOM     11  C   UNL     1       0.452  -3.110   1.254  0.00  0.00    +0.264 C 
BRANCH  11  12
ATOM     12  C   UNL     1       1.712  -3.909   1.040  0.00  0.00    -0.010 A 
ATOM     13  C   UNL     1       1.648  -5.286   0.938  0.00  0.00    +0.008 A 
ATOM     14  C   UNL     1       2.803  -6.019   0.742  0.00  0.00    +0.020 A 
ATOM     15  C   UNL     1       4.024  -5.374   0.648  0.00  0.00    +0.041 A 
ATOM     16  C   UNL     1       4.087  -3.996   0.751  0.00  0.00    +0.020 A 
ATOM     17  C   UNL     1       2.931  -3.264   0.942  0.00  0.00    +0.008 A 
ATOM     18 CL   UNL     1       5.475  -6.294   0.403  0.00  0.00    -0.084 Cl
ENDBRANCH  11  12
ENDBRANCH  10  11
ENDBRANCH   6  10
BRANCH   3  19
ATOM     19  C   UNL     1      -4.871   0.258   0.039  0.00  0.00    +0.116 C 
BRANCH  19  20
ATOM     20  N   UNL     1      -5.296   0.521  -1.342  0.00  0.00    -0.309 NA
ATOM     21  H   UNL     1      -4.566   0.982  -1.864  0.00  0.00    +0.123 HD
BRANCH  20  22
ATOM     22  C   UNL     1      -6.538   1.305  -1.371  0.00  0.00    +0.050 C 
ATOM     23  C   UNL     1      -7.741   0.362  -1.261  0.00  0.00    -0.000 C 
ATOM     24  C   UNL     1      -9.032   1.177  -1.371  0.00  0.00    -0.077 C 
ATOM     25  N   UNL     1      -9.068   1.870  -2.665  0.00  0.00    +0.382 N 
ATOM     26  C   UNL     1      -7.959   2.827  -2.748  0.00  0.00    -0.077 C 
ATOM     27  C   UNL     1      -6.627   2.076  -2.691  0.00  0.00    -0.000 C 
ATOM     28  H   UNL     1      -8.985   1.194  -3.409  0.00  0.00    -0.081 HD
BRANCH  25  29
ATOM     29  C   UNL     1     -10.343   2.587  -2.798  0.00  0.00    -0.043 C 
BRANCH  29  30
ATOM     30  C   UNL     1     -10.435   3.197  -4.173  0.00  0.00    -0.064 A 
ATOM     31  C   UNL     1      -9.953   4.473  -4.397  0.00  0.00    +0.002 A 
ATOM     32  C   UNL     1     -10.036   5.033  -5.658  0.00  0.00    +0.000 A 
ATOM     33  C   UNL     1     -10.602   4.316  -6.696  0.00  0.00    +0.000 A 
ATOM     34  C   UNL     1     -11.083   3.039  -6.473  0.00  0.00    +0.000 A 
ATOM     35  C   UNL     1     -10.995   2.478  -5.213  0.00  0.00    +0.002 A 
ENDBRANCH  29  30
ENDBRANCH  25  29
ENDBRANCH  20  22
ENDBRANCH  19  20
ENDBRANCH   3  19
TORSDOF 9
