REMARK  Name = ZINC23058031
REMARK  6 active torsions:
REMARK  status: ('A' for Active; 'I' for Inactive)
REMARK    1  A    between atoms: C_1  and  C_2
REMARK    2  A    between atoms: C_5  and  C_8
REMARK    3  A    between atoms: C_14  and  C_16
REMARK    4  A    between atoms: C_16  and  N_17
REMARK    5  A    between atoms: N_22  and  C_27
REMARK    6  A    between atoms: N_25  and  C_26
REMARK                            x       y       z     vdW  Elec       q    Type
REMARK                         _______ _______ _______ _____ _____    ______ ____
ROOT
ATOM      1  C   UNL     1       7.302   3.245  -4.770  0.00  0.00    +0.080 A 
ATOM      2  C   UNL     1       6.278   3.439  -5.654  0.00  0.00    +0.076 A 
ATOM      3  S   UNL     1       4.910   3.683  -4.529  0.00  0.00    -0.060 S 
ATOM      4  C   UNL     1       5.838   3.512  -3.010  0.00  0.00    +0.165 A 
ATOM      5  N   UNL     1       7.054   3.287  -3.469  0.00  0.00    -0.225 NA
ATOM      6  N   UNL     1       5.394   3.590  -1.696  0.00  0.00    -0.263 N 
ATOM      7  C   UNL     1       4.094   3.831  -1.436  0.00  0.00    +0.239 C 
ATOM      8  O   UNL     1       3.311   3.981  -2.350  0.00  0.00    -0.273 OA
ATOM      9  H   UNL     1       6.104   3.454  -0.867  0.00  0.00    +0.157 HD
ENDROOT
BRANCH   1  14
ATOM     10  C   UNL     1      12.643   2.255  -6.681  0.00  0.00    +0.044 C 
ATOM     11  C   UNL     1      11.246   2.514  -6.181  0.00  0.00    -0.050 A 
ATOM     12  C   UNL     1      10.997   2.557  -4.820  0.00  0.00    +0.004 A 
ATOM     13  C   UNL     1       9.719   2.793  -4.357  0.00  0.00    +0.010 A 
ATOM     14  C   UNL     1       8.678   2.990  -5.262  0.00  0.00    +0.001 A 
ATOM     15  C   UNL     1       8.933   2.941  -6.631  0.00  0.00    +0.010 A 
ATOM     16  C   UNL     1      10.216   2.709  -7.083  0.00  0.00    +0.004 A 
ENDBRANCH   1  14
BRANCH   7  17
ATOM     17  C   UNL     1       3.613   3.916  -0.010  0.00  0.00    +0.221 C 
BRANCH  17  18
ATOM     18  N   UNL     1       2.173   4.184   0.004  0.00  0.00    -0.295 N 
ATOM     19  C   UNL     1       1.182   3.252   0.008  0.00  0.00    +0.151 A 
ATOM     20  C   UNL     1      -0.017   3.954   0.024  0.00  0.00    +0.172 A 
ATOM     21  C   UNL     1      -1.267   3.193   0.031  0.00  0.00    +0.284 A 
ATOM     22  O   UNL     1      -2.342   3.763   0.044  0.00  0.00    -0.265 OA
ATOM     23  N   UNL     1      -1.200   1.844   0.018  0.00  0.00    -0.262 N 
ATOM     24  C   UNL     1      -0.014   1.212   0.009  0.00  0.00    +0.333 A 
ATOM     25  O   UNL     1       0.002  -0.004   0.002  0.00  0.00    -0.246 OA
ATOM     26  N   UNL     1       1.154   1.877   0.001  0.00  0.00    -0.281 N 
ATOM     27  C   UNL     1       2.413   1.127  -0.015  0.00  0.00    +0.155 C 
ATOM     28  C   UNL     1      -2.437   1.059   0.020  0.00  0.00    +0.157 C 
ATOM     29  N   UNL     1       0.287   5.275   0.028  0.00  0.00    -0.214 NA
ATOM     30  C   UNL     1       1.582   5.414   0.017  0.00  0.00    +0.180 A 
ATOM     31 BR   UNL     1       2.502   7.067   0.018  0.00  0.00    -0.008 Br
ENDBRANCH  17  18
ENDBRANCH   7  17
TORSDOF 3
