REMARK  Name = ZINC09019579
REMARK  7 active torsions:
REMARK  status: ('A' for Active; 'I' for Inactive)
REMARK    1  A    between atoms: C_1  and  C_2
REMARK    2  A    between atoms: C_5  and  C_8
REMARK    3  A    between atoms: C_9  and  N_27
REMARK    4  A    between atoms: N_12  and  C_13
REMARK    5  A    between atoms: N_19  and  C_20
REMARK    6  A    between atoms: C_20  and  C_21
REMARK    7  A    between atoms: C_28  and  C_30
REMARK                            x       y       z     vdW  Elec       q    Type
REMARK                         _______ _______ _______ _____ _____    ______ ____
ROOT
ATOM      1  C   UNL     1      -5.193   3.078  -1.311  0.00  0.00    +0.079 A 
ATOM      2  C   UNL     1      -6.442   3.397  -0.885  0.00  0.00    +0.100 A 
ATOM      3  S   UNL     1      -6.728   2.177   0.387  0.00  0.00    -0.036 S 
ATOM      4  C   UNL     1      -5.167   1.318   0.266  0.00  0.00    +0.154 A 
ATOM      5  N   UNL     1      -4.733   0.279   0.954  0.00  0.00    -0.336 N 
ATOM      6  N   UNL     1      -4.534   2.023  -0.729  0.00  0.00    -0.317 N 
ATOM      7  H   UNL     1      -5.415  -0.254   1.633  0.00  0.00    +0.168 HD
ENDROOT
BRANCH   1  12
ATOM      8  C   UNL     1      -2.686   6.117  -5.502  0.00  0.00    +0.044 C 
ATOM      9  C   UNL     1      -3.342   5.321  -4.404  0.00  0.00    -0.050 A 
ATOM     10  C   UNL     1      -4.616   4.812  -4.590  0.00  0.00    +0.004 A 
ATOM     11  C   UNL     1      -5.223   4.083  -3.589  0.00  0.00    +0.010 A 
ATOM     12  C   UNL     1      -4.549   3.857  -2.386  0.00  0.00    +0.001 A 
ATOM     13  C   UNL     1      -3.266   4.378  -2.204  0.00  0.00    +0.010 A 
ATOM     14  C   UNL     1      -2.669   5.101  -3.216  0.00  0.00    +0.004 A 
ENDBRANCH   1  12
BRANCH   5  15
ATOM     15  C   UNL     1      -3.437  -0.136   0.823  0.00  0.00    +0.041 A 
ATOM     16  C   UNL     1      -3.115  -1.161  -0.070  0.00  0.00    +0.025 A 
ATOM     17  C   UNL     1      -1.804  -1.570  -0.201  0.00  0.00    +0.002 A 
ATOM     18  C   UNL     1      -0.811  -0.976   0.558  0.00  0.00    +0.000 A 
ATOM     19  C   UNL     1      -1.123   0.037   1.448  0.00  0.00    +0.002 A 
ATOM     20  C   UNL     1      -2.429   0.460   1.585  0.00  0.00    +0.025 A 
ENDBRANCH   5  15
BRANCH   2  21
ATOM     21  N   UNL     1      -7.285   4.414  -1.327  0.00  0.00    -0.274 N 
ATOM     22  C   UNL     1      -8.545   4.497  -0.857  0.00  0.00    +0.255 C 
ATOM     23  O   UNL     1      -8.946   3.684  -0.045  0.00  0.00    -0.269 OA
ATOM     24  H   UNL     1      -6.922   5.149  -2.061  0.00  0.00    +0.156 HD
BRANCH  22  25
ATOM     25  C   UNL     1      -9.431   5.567  -1.322  0.00  0.00    +0.074 A 
ATOM     26  C   UNL     1     -10.747   5.826  -0.972  0.00  0.00    +0.021 A 
ATOM     27  C   UNL     1     -11.350   6.910  -1.561  0.00  0.00    +0.008 A 
ATOM     28  C   UNL     1     -10.645   7.657  -2.451  0.00  0.00    +0.046 A 
ATOM     29  S   UNL     1      -9.100   6.873  -2.492  0.00  0.00    -0.092 S 
ENDBRANCH  22  25
ENDBRANCH   2  21
BRANCH   6  30
ATOM     30  C   UNL     1      -3.185   1.653  -1.164  0.00  0.00    +0.156 C 
BRANCH  30  31
ATOM     31  C   UNL     1      -3.277   0.644  -2.309  0.00  0.00    +0.138 C 
ATOM     32  C   UNL     1      -1.867   0.161  -2.698  0.00  0.00    +0.035 C 
ATOM     33  C   UNL     1      -1.736   0.535  -4.194  0.00  0.00    +0.031 C 
ATOM     34  C   UNL     1      -3.218   0.676  -4.625  0.00  0.00    +0.160 C 
ATOM     35  O   UNL     1      -3.848   1.272  -3.470  0.00  0.00    -0.375 OA
ENDBRANCH  30  31
ENDBRANCH   6  30
TORSDOF 6
