REMARK  Name = ZINC06279827
REMARK  7 active torsions:
REMARK  status: ('A' for Active; 'I' for Inactive)
REMARK    1  A    between atoms: C_1  and  C_2
REMARK    2  A    between atoms: C_3  and  C_28
REMARK    3  A    between atoms: C_4  and  N_9
REMARK    4  A    between atoms: C_6  and  C_8
REMARK    5  A    between atoms: N_17  and  C_18
REMARK    6  A    between atoms: C_28  and  C_29
REMARK    7  A    between atoms: C_28  and  C_30
REMARK                            x       y       z     vdW  Elec       q    Type
REMARK                         _______ _______ _______ _____ _____    ______ ____
ROOT
ATOM      1  N   UNL     1       1.515  -2.587   2.114  0.00  0.00    -0.312 N 
ATOM      2  C   UNL     1       2.498  -1.578   2.532  0.00  0.00    +0.125 C 
ATOM      3  C   UNL     1       3.193  -2.048   3.814  0.00  0.00    +0.128 C 
ATOM      4  N   UNL     1       3.743  -3.393   3.582  0.00  0.00    -0.283 N 
ATOM      5  C   UNL     1       2.849  -4.424   3.032  0.00  0.00    +0.128 C 
ATOM      6  C   UNL     1       2.167  -3.861   1.781  0.00  0.00    +0.125 C 
ATOM      7  C   UNL     1       5.030  -3.672   3.865  0.00  0.00    +0.303 C 
ATOM      8  O   UNL     1       5.778  -2.787   4.232  0.00  0.00    -0.253 OA
ATOM      9  N   UNL     1       5.489  -4.934   3.741  0.00  0.00    -0.294 N 
ATOM     10  H   UNL     1       4.913  -5.626   3.380  0.00  0.00    +0.151 HD
ENDROOT
BRANCH   9  11
ATOM     11  C   UNL     1       6.857  -5.259   4.150  0.00  0.00    +0.037 C 
ATOM     12  C   UNL     1       7.846  -4.424   3.333  0.00  0.00    +0.029 C 
ATOM     13  C   UNL     1       9.275  -4.764   3.760  0.00  0.00    -0.008 C 
ATOM     14  C   UNL     1       9.541  -6.251   3.517  0.00  0.00    +0.007 C 
ATOM     15  C   UNL     1       8.552  -7.086   4.333  0.00  0.00    -0.008 C 
ATOM     16  C   UNL     1       7.123  -6.746   3.906  0.00  0.00    +0.029 C 
ATOM     17  C   UNL     1       8.728  -6.773   5.821  0.00  0.00    +0.007 C 
ATOM     18  C   UNL     1       8.462  -5.286   6.064  0.00  0.00    -0.008 C 
ATOM     19  C   UNL     1       9.451  -4.451   5.248  0.00  0.00    +0.007 C 
ATOM     20  C   UNL     1       7.033  -4.946   5.637  0.00  0.00    +0.029 C 
ENDBRANCH   9  11
BRANCH   1  24
ATOM     21  C   UNL     1      -2.840  -1.348   0.184  0.00  0.00    +0.066 C 
ATOM     22  C   UNL     1      -1.346  -1.521   0.095  0.00  0.00    +0.047 A 
ATOM     23  C   UNL     1      -0.630  -1.983   1.183  0.00  0.00    +0.016 A 
ATOM     24  C   UNL     1       0.753  -2.127   1.052  0.00  0.00    +0.129 A 
ATOM     25  N   UNL     1       1.326  -1.817  -0.107  0.00  0.00    -0.217 NA
ATOM     26  C   UNL     1       0.604  -1.381  -1.119  0.00  0.00    +0.128 A 
ATOM     27  N   UNL     1      -0.704  -1.238  -1.029  0.00  0.00    -0.237 NA
ATOM     28  C   UNL     1       1.290  -1.040  -2.416  0.00  0.00    +0.088 C 
BRANCH  23  29
ATOM     29  C   UNL     1      -1.323  -2.321   2.477  0.00  0.00    +0.018 C 
ATOM     30  C   UNL     1      -1.074  -3.791   2.820  0.00  0.00    +0.012 C 
ATOM     31  C   UNL     1      -0.774  -1.435   3.597  0.00  0.00    +0.012 C 
ENDBRANCH  23  29
ENDBRANCH   1  24
TORSDOF 3
