REMARK  Name = ZINC13394719
REMARK  4 active torsions:
REMARK  status: ('A' for Active; 'I' for Inactive)
REMARK    1  A    between atoms: C_1  and  C_2
REMARK    2  A    between atoms: C_2  and  C_5
REMARK    3  A    between atoms: N_3  and  O_4
REMARK    4  A    between atoms: C_8  and  C_10
REMARK                            x       y       z     vdW  Elec       q    Type
REMARK                         _______ _______ _______ _____ _____    ______ ____
ROOT
ATOM      1  C   UNL     1      -0.000  -0.750  -1.307  0.00  0.00    +0.044 C 
ATOM      2  C   UNL     1      -1.208  -1.638  -1.612  0.00  0.00    +0.019 C 
ATOM      3  C   UNL     1       0.137  -2.273  -1.252  0.00  0.00    +0.028 C 
ENDROOT
BRANCH   3   4
ATOM      4  C   UNL     1       0.265  -2.912   0.107  0.00  0.00    -0.044 A 
ATOM      5  C   UNL     1      -0.745  -2.761   1.038  0.00  0.00    +0.005 A 
ATOM      6  C   UNL     1      -0.629  -3.347   2.285  0.00  0.00    +0.020 A 
ATOM      7  C   UNL     1       0.498  -4.084   2.600  0.00  0.00    +0.041 A 
ATOM      8  C   UNL     1       1.509  -4.235   1.667  0.00  0.00    +0.020 A 
ATOM      9  C   UNL     1       1.389  -3.653   0.419  0.00  0.00    +0.005 A 
ATOM     10 CL   UNL     1       0.645  -4.819   4.166  0.00  0.00    -0.084 Cl
ENDBRANCH   3   4
BRANCH   1  12
ATOM     11  C   UNL     1      -0.018   1.503   0.010  0.00  0.00    +0.064 C 
ATOM     12  C   UNL     1       0.002  -0.004   0.002  0.00  0.00    +0.058 C 
ATOM     13  N   UNL     1       0.021  -0.650   1.107  0.00  0.00    -0.097 NA
BRANCH  13  14
ATOM     14  O   UNL     1       0.023   0.052   2.337  0.00  0.00    -0.409 OA
ATOM     15  H   UNL     1       0.039  -0.521   3.116  0.00  0.00    +0.328 HD
ENDBRANCH  13  14
ENDBRANCH   1  12
TORSDOF 3
