REMARK  Name = ZINC55645761
REMARK  7 active torsions:
REMARK  status: ('A' for Active; 'I' for Inactive)
REMARK    1  A    between atoms: C_4  and  S_7
REMARK    2  A    between atoms: S_7  and  N_10
REMARK    3  A    between atoms: C_17  and  C_19
REMARK    4  A    between atoms: C_19  and  C_20
REMARK    5  A    between atoms: C_20  and  C_21
REMARK    6  A    between atoms: C_21  and  C_22
REMARK    7  A    between atoms: C_22  and  N_23
REMARK                            x       y       z     vdW  Elec       q    Type
REMARK                         _______ _______ _______ _____ _____    ______ ____
ROOT
ATOM      1  N   UNL     1       4.378  -1.079   1.536  0.00  0.00    -0.175 NA
ATOM      2  C   UNL     1       5.172  -0.084   2.197  0.00  0.00    +0.111 C 
ATOM      3  C   UNL     1       6.650  -0.376   1.891  0.00  0.00    +0.036 C 
ATOM      4  C   UNL     1       7.172  -1.477   2.717  0.00  0.00    +0.109 C 
ATOM      5  N   UNL     1       6.377  -2.708   2.496  0.00  0.00    -0.300 N 
ATOM      6  C   UNL     1       5.089  -2.853   3.114  0.00  0.00    +0.125 C 
ATOM      7  C   UNL     1       3.935  -2.323   2.222  0.00  0.00    +0.128 C 
ATOM      8  C   UNL     1       6.863  -3.693   1.714  0.00  0.00    +0.216 C 
ATOM      9  O   UNL     1       6.213  -4.700   1.533  0.00  0.00    -0.276 OA
ENDROOT
BRANCH   1  10
ATOM     10  S   UNL     1       3.934  -0.832  -0.041  0.00  0.00    +0.061 S 
ATOM     11  O   UNL     1       3.674  -2.114  -0.595  0.00  0.00    -0.153 OA
ATOM     12  O   UNL     1       4.890   0.060  -0.597  0.00  0.00    -0.153 OA
BRANCH  10  16
ATOM     13  C   UNL     1      -0.017   1.378   0.010  0.00  0.00    +0.000 A 
ATOM     14  C   UNL     1       1.171   2.086   0.002  0.00  0.00    +0.002 A 
ATOM     15  C   UNL     1       2.377   1.411  -0.013  0.00  0.00    +0.028 A 
ATOM     16  C   UNL     1       2.396   0.029  -0.020  0.00  0.00    +0.105 A 
ATOM     17  C   UNL     1       1.208  -0.679  -0.012  0.00  0.00    +0.028 A 
ATOM     18  C   UNL     1       0.002  -0.004   0.002  0.00  0.00    +0.002 A 
ENDBRANCH  10  16
ENDBRANCH   1  10
BRANCH   8  19
ATOM     19  C   UNL     1       8.214  -3.541   1.064  0.00  0.00    +0.096 C 
BRANCH  19  20
ATOM     20  C   UNL     1       8.525  -4.790   0.237  0.00  0.00    +0.011 C 
BRANCH  20  21
ATOM     21  C   UNL     1       9.897  -4.636  -0.422  0.00  0.00    +0.019 C 
BRANCH  21  22
ATOM     22  C   UNL     1      10.209  -5.885  -1.250  0.00  0.00    +0.106 C 
BRANCH  22  23
ATOM     23  N   UNL     1      11.522  -5.738  -1.881  0.00  0.00    -0.300 N 
ATOM     24  C   UNL     1      12.008  -6.722  -2.663  0.00  0.00    +0.297 C 
ATOM     25  O   UNL     1      11.356  -7.732  -2.844  0.00  0.00    -0.253 OA
ATOM     26  N   UNL     1      13.217  -6.587  -3.244  0.00  0.00    -0.313 N 
ATOM     27  H   UNL     1      12.042  -4.932  -1.736  0.00  0.00    +0.150 HD
ATOM     28  H   UNL     1      13.737  -5.781  -3.099  0.00  0.00    +0.146 HD
ATOM     29  H   UNL     1      13.566  -7.295  -3.807  0.00  0.00    +0.146 HD
ENDBRANCH  22  23
ENDBRANCH  21  22
ENDBRANCH  20  21
ENDBRANCH  19  20
ENDBRANCH   8  19
TORSDOF 7
