REMARK  Name = ZINC63813064
REMARK  8 active torsions:
REMARK  status: ('A' for Active; 'I' for Inactive)
REMARK    1  A    between atoms: C_1  and  C_2
REMARK    2  A    between atoms: C_2  and  N_3
REMARK    3  A    between atoms: C_5  and  N_8
REMARK    4  A    between atoms: N_11  and  C_12
REMARK    5  A    between atoms: C_12  and  C_13
REMARK    6  A    between atoms: C_15  and  C_25
REMARK    7  A    between atoms: C_21  and  C_24
REMARK    8  A    between atoms: C_22  and  C_23
REMARK                            x       y       z     vdW  Elec       q    Type
REMARK                         _______ _______ _______ _____ _____    ______ ____
ROOT
ATOM      1  C   UNL     1      -7.627  -3.485  -0.839  0.00  0.00    +0.143 C 
ENDROOT
BRANCH   1   2
ATOM      2  C   UNL     1      -8.402  -4.429  -1.721  0.00  0.00    -0.006 A 
ATOM      3  C   UNL     1      -9.258  -3.934  -2.680  0.00  0.00    +0.010 A 
ATOM      4  C   UNL     1      -9.977  -4.793  -3.499  0.00  0.00    -0.049 A 
ATOM      5  C   UNL     1      -9.848  -6.147  -3.368  0.00  0.00    +0.013 A 
ATOM      6  C   UNL     1      -8.985  -6.671  -2.403  0.00  0.00    +0.003 A 
ATOM      7  C   UNL     1      -8.250  -5.804  -1.574  0.00  0.00    +0.052 A 
ATOM      8  N   UNL     1      -7.491  -6.590  -0.736  0.00  0.00    -0.358 N 
ATOM      9  H   UNL     1      -6.888  -6.256  -0.054  0.00  0.00    +0.166 HD
ATOM     10  C   UNL     1      -7.716  -7.912  -1.008  0.00  0.00    +0.017 A 
ATOM     11  C   UNL     1      -8.614  -8.029  -2.000  0.00  0.00    -0.022 A 
ATOM     12  C   UNL     1      -9.130  -9.314  -2.595  0.00  0.00    +0.046 C 
ATOM     13  C   UNL     1      -7.061  -9.066  -0.294  0.00  0.00    +0.063 C 
ATOM     14  C   UNL     1     -10.909  -4.228  -4.540  0.00  0.00    +0.044 C 
ENDBRANCH   1   2
BRANCH   1  18
ATOM     15  N   UNL     1      -4.122  -2.428  -1.183  0.00  0.00    -0.267 N 
ATOM     16  C   UNL     1      -5.379  -2.551  -0.715  0.00  0.00    +0.304 C 
ATOM     17  O   UNL     1      -5.720  -1.941   0.280  0.00  0.00    -0.252 OA
ATOM     18  N   UNL     1      -6.260  -3.351  -1.349  0.00  0.00    -0.295 N 
ATOM     19  H   UNL     1      -3.850  -2.915  -1.977  0.00  0.00    +0.156 HD
ATOM     20  H   UNL     1      -5.988  -3.838  -2.142  0.00  0.00    +0.151 HD
BRANCH  15  23
ATOM     21  N   UNL     1      -1.372  -0.511   0.012  0.00  0.00    -0.270 N 
ATOM     22  C   UNL     1      -1.911  -1.378  -0.884  0.00  0.00    +0.131 A 
ATOM     23  C   UNL     1      -3.202  -1.592  -0.521  0.00  0.00    +0.072 A 
ATOM     24  C   UNL     1      -3.456  -0.833   0.630  0.00  0.00    +0.157 A 
ATOM     25  N   UNL     1      -2.362  -0.193   0.952  0.00  0.00    -0.178 NA
BRANCH  21  27
ATOM     26  C   UNL     1      -0.019   1.526   0.010  0.00  0.00    +0.029 C 
ATOM     27  C   UNL     1       0.002  -0.004   0.002  0.00  0.00    +0.140 C 
ENDBRANCH  21  27
ENDBRANCH  15  23
ENDBRANCH   1  18
TORSDOF 4
