REMARK  Name = ZINC05652325
REMARK  8 active torsions:
REMARK  status: ('A' for Active; 'I' for Inactive)
REMARK    1  A    between atoms: C_1  and  C_2
REMARK    2  A    between atoms: N_6  and  N_7
REMARK    3  A    between atoms: C_8  and  C_10
REMARK    4  A    between atoms: C_13  and  N_16
REMARK    5  A    between atoms: N_16  and  S_17
REMARK    6  A    between atoms: S_17  and  C_20
REMARK    7  A    between atoms: C_26  and  C_28
REMARK    8  A    between atoms: C_26  and  C_29
REMARK                            x       y       z     vdW  Elec       q    Type
REMARK                         _______ _______ _______ _____ _____    ______ ____
ROOT
ATOM      1  C   UNL     1      -2.907  -3.013   3.148  0.00  0.00    +0.038 A 
ATOM      2  C   UNL     1      -3.601  -2.598   2.007  0.00  0.00    +0.015 A 
ATOM      3  C   UNL     1      -4.869  -3.074   1.764  0.00  0.00    +0.025 A 
ATOM      4  C   UNL     1      -5.466  -3.958   2.659  0.00  0.00    +0.048 A 
ATOM      5  C   UNL     1      -4.780  -4.368   3.799  0.00  0.00    +0.025 A 
ATOM      6  C   UNL     1      -3.509  -3.901   4.044  0.00  0.00    +0.015 A 
ENDROOT
BRANCH   1   8
ATOM      7  N   UNL     1      -0.966  -1.655   2.542  0.00  0.00    -0.203 N 
ATOM      8  C   UNL     1      -1.545  -2.511   3.408  0.00  0.00    +0.263 C 
ATOM      9  O   UNL     1      -0.944  -2.869   4.403  0.00  0.00    -0.268 OA
ATOM     10  H   UNL     1      -1.445  -1.369   1.749  0.00  0.00    +0.178 HD
BRANCH   7  15
ATOM     11  C   UNL     1       3.443   2.476   2.470  0.00  0.00    +0.008 C 
ATOM     12  C   UNL     1       2.062   1.842   2.295  0.00  0.00    -0.008 C 
ATOM     13  C   UNL     1       2.192   0.315   2.330  0.00  0.00    +0.055 C 
ATOM     14  C   UNL     1       0.840  -0.290   2.022  0.00  0.00    +0.038 C 
ATOM     15  N   UNL     1       0.328  -1.178   2.789  0.00  0.00    -0.189 NA
ATOM     16  C   UNL     1       0.108   0.182   0.785  0.00  0.00    +0.059 C 
ATOM     17  C   UNL     1       0.054   1.713   0.806  0.00  0.00    -0.029 C 
ATOM     18  C   UNL     1       1.471   2.270   0.951  0.00  0.00    +0.010 C 
ATOM     19  C   UNL     1      -0.562   2.219  -0.500  0.00  0.00    +0.011 C 
ATOM     20  C   UNL     1      -0.800   2.178   1.987  0.00  0.00    +0.011 C 
ENDBRANCH   7  15
ENDBRANCH   1   8
BRANCH   4  21
ATOM     21  N   UNL     1      -6.750  -4.432   2.414  0.00  0.00    -0.216 N 
ATOM     22  H   UNL     1      -6.948  -5.375   2.524  0.00  0.00    +0.174 HD
BRANCH  21  23
ATOM     23  S   UNL     1      -7.941  -3.386   1.934  0.00  0.00    +0.079 S 
ATOM     24  O   UNL     1      -7.419  -2.653   0.834  0.00  0.00    -0.149 OA
ATOM     25  O   UNL     1      -9.137  -4.147   1.843  0.00  0.00    -0.149 OA
BRANCH  23  26
ATOM     26  C   UNL     1      -8.177  -2.230   3.243  0.00  0.00    +0.146 A 
ATOM     27  C   UNL     1      -7.634  -0.998   3.402  0.00  0.00    +0.036 A 
ATOM     28  C   UNL     1      -7.968  -0.259   4.521  0.00  0.00    +0.010 A 
ATOM     29  C   UNL     1      -8.828  -0.787   5.426  0.00  0.00    +0.047 A 
ATOM     30  S   UNL     1      -9.201  -2.374   4.699  0.00  0.00    -0.077 S 
ENDBRANCH  23  26
ENDBRANCH  21  23
ENDBRANCH   4  21
TORSDOF 5
