REMARK  Name = ZINC66249256
REMARK  7 active torsions:
REMARK  status: ('A' for Active; 'I' for Inactive)
REMARK    1  A    between atoms: C_1  and  C_2
REMARK    2  A    between atoms: C_2  and  C_3
REMARK    3  A    between atoms: C_3  and  C_5
REMARK    4  A    between atoms: C_3  and  N_6
REMARK    5  A    between atoms: C_7  and  N_11
REMARK    6  A    between atoms: N_11  and  S_12
REMARK    7  A    between atoms: S_12  and  C_15
REMARK                            x       y       z     vdW  Elec       q    Type
REMARK                         _______ _______ _______ _____ _____    ______ ____
ROOT
ATOM      1  S   UNL     1       4.535  -3.205  -1.357  0.00  0.00    +0.076 S 
ATOM      2  O   UNL     1       5.784  -2.527  -1.369  0.00  0.00    -0.150 OA
ATOM      3  O   UNL     1       4.190  -4.147  -0.351  0.00  0.00    -0.150 OA
ENDROOT
BRANCH   1   4
ATOM      4  C   UNL     1       4.402  -4.044  -2.900  0.00  0.00    +0.144 A 
ATOM      5  C   UNL     1       5.438  -3.977  -3.814  0.00  0.00    +0.037 A 
ATOM      6  C   UNL     1       5.337  -4.634  -5.024  0.00  0.00    -0.024 A 
ATOM      7  C   UNL     1       4.194  -5.363  -5.325  0.00  0.00    +0.039 A 
ATOM      8  C   UNL     1       3.154  -5.430  -4.408  0.00  0.00    +0.064 A 
ATOM      9  C   UNL     1       3.263  -4.774  -3.194  0.00  0.00    +0.152 A 
ATOM     10  F   UNL     1       2.255  -4.843  -2.297  0.00  0.00    -0.203 F 
ATOM     11  N   UNL     1       4.093  -6.029  -6.551  0.00  0.00    -0.285 N 
ATOM     12  C   UNL     1       5.195  -6.289  -7.278  0.00  0.00    +0.218 C 
ATOM     13  O   UNL     1       5.089  -6.854  -8.346  0.00  0.00    -0.275 OA
ATOM     14  C   UNL     1       6.557  -5.885  -6.782  0.00  0.00    +0.101 C 
ATOM     15  C   UNL     1       6.464  -4.562  -6.021  0.00  0.00    +0.046 C 
ATOM     16  H   UNL     1       3.223  -6.306  -6.878  0.00  0.00    +0.155 HD
ENDBRANCH   1   4
BRANCH   1  17
ATOM     17  N   UNL     1       3.363  -2.036  -1.332  0.00  0.00    -0.200 N 
ATOM     18  H   UNL     1       2.653  -2.075  -0.672  0.00  0.00    +0.175 HD
BRANCH  17  20
ATOM     19  N   UNL     1       2.452  -0.043  -2.424  0.00  0.00    -0.247 N 
ATOM     20  C   UNL     1       3.396  -0.997  -2.259  0.00  0.00    +0.136 A 
ATOM     21  C   UNL     1       4.386  -0.757  -3.163  0.00  0.00    +0.066 A 
ATOM     22  C   UNL     1       4.027   0.378  -3.897  0.00  0.00    +0.136 A 
ATOM     23  N   UNL     1       2.869   0.801  -3.460  0.00  0.00    -0.178 NA
BRANCH  19  24
ATOM     24  C   UNL     1       1.208   0.081  -1.659  0.00  0.00    +0.106 C 
ATOM     25  C   UNL     1       1.180   1.435  -0.948  0.00  0.00    +0.032 C 
BRANCH  24  27
ATOM     26  C   UNL     1      -1.284  -0.018  -1.796  0.00  0.00    +0.006 C 
ATOM     27  C   UNL     1       0.013  -0.022  -2.608  0.00  0.00    +0.023 C 
ENDBRANCH  24  27
ENDBRANCH  19  24
ENDBRANCH  17  20
ENDBRANCH   1  17
TORSDOF 5
