REMARK  Name = ZINC64083990
REMARK  10 active torsions:
REMARK  status: ('A' for Active; 'I' for Inactive)
REMARK    1  A    between atoms: C_1  and  C_2
REMARK    2  A    between atoms: C_7  and  N_8
REMARK    3  A    between atoms: C_9  and  C_33
REMARK    4  A    between atoms: C_11  and  C_14
REMARK    5  A    between atoms: C_14  and  C_16
REMARK    6  A    between atoms: C_14  and  N_17
REMARK    7  A    between atoms: C_18  and  C_20
REMARK    8  A    between atoms: C_22  and  C_32
REMARK    9  A    between atoms: C_25  and  O_30
REMARK   10  A    between atoms: O_30  and  C_31
REMARK                            x       y       z     vdW  Elec       q    Type
REMARK                         _______ _______ _______ _____ _____    ______ ____
ROOT
ATOM      1  N   UNL     1      -1.047  -0.189   6.710  0.00  0.00    -0.307 N 
ATOM      2  C   UNL     1      -1.063  -0.139   8.057  0.00  0.00    +0.240 C 
ATOM      3  O   UNL     1      -1.098   0.933   8.624  0.00  0.00    -0.273 OA
ATOM      4  H   UNL     1      -1.020  -1.046   6.257  0.00  0.00    +0.149 HD
ENDROOT
BRANCH   2   5
ATOM      5  C   UNL     1      -1.038  -1.415   8.858  0.00  0.00    +0.193 C 
ATOM      6  C   UNL     1      -2.426  -2.011   8.933  0.00  0.00    -0.033 C 
ATOM      7  C   UNL     1      -2.749  -2.046  10.245  0.00  0.00    +0.003 A 
ATOM      8  C   UNL     1      -3.942  -2.506  10.965  0.00  0.00    +0.055 A 
ATOM      9  C   UNL     1      -3.983  -2.416  12.316  0.00  0.00    +0.121 A 
ATOM     10  C   UNL     1      -2.914  -1.893  13.065  0.00  0.00    +0.047 A 
ATOM     11  C   UNL     1      -1.776  -1.444  12.494  0.00  0.00    +0.029 A 
ATOM     12  C   UNL     1      -1.625  -1.495  11.036  0.00  0.00    +0.044 A 
ATOM     13  N   UNL     1      -0.644  -1.134  10.244  0.00  0.00    -0.370 N 
ATOM     14  C   UNL     1      -3.277  -2.472   7.777  0.00  0.00    +0.042 C 
ATOM     15  H   UNL     1       0.199  -0.747  10.525  0.00  0.00    +0.161 HD
BRANCH   9  16
ATOM     16  O   UNL     1      -5.094  -2.845  12.969  0.00  0.00    -0.495 OA
ATOM     17  C   UNL     1      -5.094  -2.731  14.394  0.00  0.00    +0.277 C 
ENDBRANCH   9  16
ENDBRANCH   2   5
BRANCH   1  18
ATOM     18  C   UNL     1      -1.071   1.052   5.931  0.00  0.00    +0.099 C 
ATOM     19  C   UNL     1      -2.519   1.512   5.750  0.00  0.00    +0.033 C 
BRANCH  18  22
ATOM     20  N   UNL     1       0.444   1.103   2.414  0.00  0.00    -0.246 N 
ATOM     21  C   UNL     1      -0.153   1.856   3.530  0.00  0.00    +0.120 C 
ATOM     22  C   UNL     1      -0.450   0.808   4.580  0.00  0.00    -0.013 C 
ATOM     23  C   UNL     1      -0.065  -0.355   4.098  0.00  0.00    +0.091 C 
ATOM     24  N   UNL     1       0.462  -0.237   2.827  0.00  0.00    -0.271 N 
ATOM     25  C   UNL     1       0.839   2.889   4.068  0.00  0.00    +0.035 C 
ATOM     26  H   UNL     1       0.798  -0.976   2.296  0.00  0.00    +0.169 HD
BRANCH  20  33
ATOM     27  C   UNL     1       3.120   0.545   1.629  0.00  0.00    +0.046 C 
ATOM     28  C   UNL     1       2.193   1.369   0.773  0.00  0.00    -0.028 A 
ATOM     29  C   UNL     1       2.632   1.873  -0.436  0.00  0.00    +0.005 A 
ATOM     30  C   UNL     1       1.782   2.628  -1.222  0.00  0.00    +0.000 A 
ATOM     31  C   UNL     1       0.489   2.881  -0.801  0.00  0.00    +0.002 A 
ATOM     32  C   UNL     1       0.043   2.380   0.406  0.00  0.00    +0.025 A 
ATOM     33  C   UNL     1       0.893   1.616   1.196  0.00  0.00    +0.051 A 
ENDBRANCH  20  33
ENDBRANCH  18  22
ENDBRANCH   1  18
TORSDOF 5
