REMARK  Name = ZINC36801636
REMARK  8 active torsions:
REMARK  status: ('A' for Active; 'I' for Inactive)
REMARK    1  A    between atoms: C_1  and  C_2
REMARK    2  A    between atoms: C_7  and  C_8
REMARK    3  A    between atoms: C_11  and  S_14
REMARK    4  A    between atoms: N_12  and  C_13
REMARK    5  A    between atoms: S_14  and  C_15
REMARK    6  A    between atoms: C_15  and  C_16
REMARK    7  A    between atoms: C_18  and  O_19
REMARK    8  A    between atoms: C_28  and  C_30
REMARK                            x       y       z     vdW  Elec       q    Type
REMARK                         _______ _______ _______ _____ _____    ______ ____
ROOT
ATOM      1  C   UNL     1      -0.425   2.986   8.875  0.00  0.00    -0.020 A 
ATOM      2  C   UNL     1      -1.523   2.614   9.625  0.00  0.00    +0.092 A 
ATOM      3  C   UNL     1      -1.374   2.332  10.976  0.00  0.00    +0.285 A 
ATOM      4  O   UNL     1      -0.182   2.410  11.576  0.00  0.00    -0.425 OA
ATOM      5  C   UNL     1       0.923   2.768  10.890  0.00  0.00    +0.141 A 
ATOM      6  C   UNL     1       0.832   3.062   9.511  0.00  0.00    +0.022 A 
ATOM      7  C   UNL     1       1.982   3.431   8.792  0.00  0.00    +0.013 A 
ATOM      8  C   UNL     1       3.184   3.499   9.423  0.00  0.00    +0.024 A 
ATOM      9  C   UNL     1       3.285   3.203  10.794  0.00  0.00    +0.037 A 
ATOM     10  C   UNL     1       2.150   2.847  11.524  0.00  0.00    +0.070 A 
ATOM     11  N   UNL     1       4.495   3.275  11.414  0.00  0.00    -0.286 N 
ATOM     12  C   UNL     1       4.670   2.695  12.585  0.00  0.00    +0.214 C 
ATOM     13  O   UNL     1       3.792   1.994  13.056  0.00  0.00    -0.276 OA
ATOM     14  C   UNL     1       5.958   2.899  13.342  0.00  0.00    +0.109 C 
ATOM     15  H   UNL     1       5.227   3.753  10.995  0.00  0.00    +0.155 HD
ENDROOT
BRANCH   3  16
ATOM     16  O   UNL     1      -2.453   1.970  11.696  0.00  0.00    -0.480 OA
ATOM     17  H   UNL     1      -2.263   1.791  12.627  0.00  0.00    +0.295 HD
ENDBRANCH   3  16
BRANCH   1  18
ATOM     18  C   UNL     1      -0.565   3.296   7.407  0.00  0.00    +0.113 C 
BRANCH  18  19
ATOM     19  S   UNL     1      -0.775   1.752   6.479  0.00  0.00    -0.081 S 
BRANCH  19  23
ATOM     20  C   UNL     1      -1.159   2.321   2.633  0.00  0.00    +0.165 A 
ATOM     21  N   UNL     1      -1.023   3.543   3.092  0.00  0.00    -0.128 NA
ATOM     22  N   UNL     1      -0.884   3.518   4.370  0.00  0.00    -0.122 NA
ATOM     23  C   UNL     1      -0.923   2.278   4.804  0.00  0.00    +0.192 A 
ATOM     24  N   UNL     1      -1.105   1.474   3.715  0.00  0.00    -0.305 N 
ATOM     25  C   UNL     1      -1.217   0.013   3.703  0.00  0.00    +0.153 C 
BRANCH  20  32
ATOM     26  C   UNL     1      -3.103   3.712   1.003  0.00  0.00    +0.044 C 
ATOM     27  C   UNL     1      -2.277   2.593   0.423  0.00  0.00    -0.040 A 
ATOM     28  C   UNL     1      -2.440   2.227  -0.897  0.00  0.00    +0.004 A 
ATOM     29  C   UNL     1      -1.683   1.199  -1.431  0.00  0.00    +0.000 A 
ATOM     30  C   UNL     1      -0.758   0.533  -0.646  0.00  0.00    +0.001 A 
ATOM     31  C   UNL     1      -0.586   0.889   0.676  0.00  0.00    +0.012 A 
ATOM     32  C   UNL     1      -1.343   1.929   1.219  0.00  0.00    +0.022 A 
ENDBRANCH  20  32
ENDBRANCH  19  23
ENDBRANCH  18  19
ENDBRANCH   1  18
TORSDOF 5
