REMARK  Name = ZINC04904521
REMARK  6 active torsions:
REMARK  status: ('A' for Active; 'I' for Inactive)
REMARK    1  A    between atoms: C_1  and  C_2
REMARK    2  A    between atoms: C_2  and  N_3
REMARK    3  A    between atoms: N_3  and  N_4
REMARK    4  A    between atoms: C_5  and  C_7
REMARK    5  A    between atoms: C_14  and  C_15
REMARK    6  A    between atoms: N_17  and  C_18
REMARK                            x       y       z     vdW  Elec       q    Type
REMARK                         _______ _______ _______ _____ _____    ______ ____
ROOT
ATOM      1  C   UNL     1       0.217   1.308  -0.458  0.00  0.00    +0.062 C 
ATOM      2  C   UNL     1      -0.840   1.746  -1.439  0.00  0.00    +0.024 C 
ATOM      3  C   UNL     1      -2.137   1.764  -1.069  0.00  0.00    +0.087 C 
ENDROOT
BRANCH   3   4
ATOM      4  C   UNL     1      -3.115   2.285  -1.948  0.00  0.00    +0.239 C 
ATOM      5  O   UNL     1      -2.804   2.617  -3.078  0.00  0.00    -0.271 OA
ATOM      6  N   UNL     1      -4.392   2.414  -1.535  0.00  0.00    -0.308 N 
ATOM      7  H   UNL     1      -4.639   2.150  -0.635  0.00  0.00    +0.149 HD
BRANCH   6   8
ATOM      8  C   UNL     1      -5.405   2.954  -2.445  0.00  0.00    +0.079 C 
ATOM      9  C   UNL     1      -5.385   4.482  -2.383  0.00  0.00    +0.010 C 
ATOM     10  C   UNL     1      -6.443   5.045  -3.333  0.00  0.00    +0.009 C 
ATOM     11  C   UNL     1      -7.825   4.536  -2.917  0.00  0.00    -0.010 C 
ATOM     12  C   UNL     1      -8.128   4.992  -1.489  0.00  0.00    +0.007 C 
ATOM     13  C   UNL     1      -7.069   4.429  -0.538  0.00  0.00    -0.010 C 
ATOM     14  C   UNL     1      -5.688   4.938  -0.954  0.00  0.00    +0.009 C 
ATOM     15  C   UNL     1      -7.090   2.900  -0.601  0.00  0.00    +0.009 C 
ATOM     16  C   UNL     1      -6.787   2.444  -2.030  0.00  0.00    +0.010 C 
ATOM     17  C   UNL     1      -7.845   3.008  -2.980  0.00  0.00    +0.009 C 
ENDBRANCH   6   8
ENDBRANCH   3   4
BRANCH   2  18
ATOM     18  N   UNL     1      -0.484   2.126  -2.703  0.00  0.00    -0.268 N 
ATOM     19  H   UNL     1      -1.151   2.489  -3.306  0.00  0.00    +0.170 HD
BRANCH  18  20
ATOM     20  N   UNL     1       0.845   1.991  -3.127  0.00  0.00    -0.233 N 
ATOM     21  C   UNL     1       1.218   2.459  -4.334  0.00  0.00    +0.261 C 
ATOM     22  O   UNL     1       0.385   2.916  -5.093  0.00  0.00    -0.269 OA
ATOM     23  H   UNL     1       1.496   1.560  -2.551  0.00  0.00    +0.173 HD
BRANCH  21  24
ATOM     24  C   UNL     1       2.639   2.417  -4.736  0.00  0.00    +0.056 A 
ATOM     25  C   UNL     1       3.581   1.792  -3.918  0.00  0.00    +0.014 A 
ATOM     26  C   UNL     1       4.906   1.756  -4.299  0.00  0.00    +0.001 A 
ATOM     27  C   UNL     1       5.304   2.338  -5.490  0.00  0.00    +0.001 A 
ATOM     28  C   UNL     1       4.377   2.960  -6.306  0.00  0.00    +0.021 A 
ATOM     29  C   UNL     1       3.046   2.999  -5.940  0.00  0.00    +0.053 A 
ATOM     30 CL   UNL     1       1.882   3.773  -6.969  0.00  0.00    -0.083 Cl
ENDBRANCH  21  24
ENDBRANCH  18  20
ENDBRANCH   2  18
TORSDOF 5
