REMARK  Name = ZINC20623924
REMARK  8 active torsions:
REMARK  status: ('A' for Active; 'I' for Inactive)
REMARK    1  A    between atoms: C_1  and  C_2
REMARK    2  A    between atoms: C_2  and  C_31
REMARK    3  A    between atoms: C_7  and  O_30
REMARK    4  A    between atoms: C_9  and  O_13
REMARK    5  A    between atoms: O_13  and  C_14
REMARK    6  A    between atoms: C_14  and  C_15
REMARK    7  A    between atoms: N_20  and  C_23
REMARK    8  A    between atoms: C_23  and  C_24
REMARK                            x       y       z     vdW  Elec       q    Type
REMARK                         _______ _______ _______ _____ _____    ______ ____
ROOT
ATOM      1  O   UNL     1       0.446   4.265   4.368  0.00  0.00    -0.483 OA
ENDROOT
BRANCH   1  10
ATOM      2  C   UNL     1       0.966   4.674  10.518  0.00  0.00    +0.056 C 
ATOM      3  C   UNL     1       2.350   5.037   9.978  0.00  0.00    +0.112 C 
ATOM      4  C   UNL     1       3.282   3.823  10.099  0.00  0.00    +0.127 C 
ATOM      5  C   UNL     1       2.684   2.712   9.255  0.00  0.00    +0.174 C 
ATOM      6  O   UNL     1       2.684   1.557   9.628  0.00  0.00    -0.292 OA
ATOM      7  C   UNL     1       2.106   3.106   7.966  0.00  0.00    +0.101 A 
ATOM      8  C   UNL     1       1.758   2.137   7.011  0.00  0.00    +0.134 A 
ATOM      9  C   UNL     1       1.203   2.535   5.808  0.00  0.00    +0.092 A 
ATOM     10  C   UNL     1       0.994   3.884   5.550  0.00  0.00    +0.128 A 
ATOM     11  C   UNL     1       1.345   4.847   6.486  0.00  0.00    +0.092 A 
ATOM     12  C   UNL     1       1.899   4.471   7.698  0.00  0.00    +0.139 A 
ATOM     13  O   UNL     1       2.242   5.415   8.606  0.00  0.00    -0.485 OA
ATOM     14  C   UNL     1       2.923   6.204  10.786  0.00  0.00    +0.056 C 
BRANCH   8  15
ATOM     15  O   UNL     1       1.965   0.821   7.266  0.00  0.00    -0.506 OA
ATOM     16  H   UNL     1       1.691   0.066   6.515  0.00  0.00    +0.292 HD
ENDBRANCH   8  15
ENDBRANCH   1  10
BRANCH   1  17
ATOM     17  C   UNL     1       0.112   3.227   3.444  0.00  0.00    +0.324 C 
BRANCH  17  18
ATOM     18  C   UNL     1      -0.480   3.835   2.199  0.00  0.00    +0.253 C 
ATOM     19  O   UNL     1      -0.603   5.039   2.111  0.00  0.00    -0.272 OA
ATOM     20  N   UNL     1      -0.872   3.042   1.182  0.00  0.00    -0.296 N 
ATOM     21  C   UNL     1      -0.731   1.581   1.268  0.00  0.00    +0.123 C 
ATOM     22  C   UNL     1      -0.013   1.086   0.008  0.00  0.00    +0.103 C 
ATOM     23  N   UNL     1      -0.724   1.573  -1.181  0.00  0.00    -0.295 NA
ATOM     24  C   UNL     1      -0.705   3.040  -1.250  0.00  0.00    +0.103 C 
ATOM     25  C   UNL     1      -1.452   3.615  -0.042  0.00  0.00    +0.123 C 
BRANCH  23  26
ATOM     26  C   UNL     1      -0.170   0.981  -2.406  0.00  0.00    +0.119 C 
BRANCH  26  27
ATOM     27  C   UNL     1      -0.749   1.679  -3.609  0.00  0.00    -0.033 A 
ATOM     28  C   UNL     1      -1.911   1.206  -4.189  0.00  0.00    +0.005 A 
ATOM     29  C   UNL     1      -2.446   1.850  -5.290  0.00  0.00    +0.000 A 
ATOM     30  C   UNL     1      -1.813   2.961  -5.816  0.00  0.00    +0.000 A 
ATOM     31  C   UNL     1      -0.648   3.430  -5.239  0.00  0.00    +0.000 A 
ATOM     32  C   UNL     1      -0.116   2.790  -4.135  0.00  0.00    +0.005 A 
ENDBRANCH  26  27
ENDBRANCH  23  26
ENDBRANCH  17  18
ENDBRANCH   1  17
TORSDOF 6
