REMARK  Name = ZINC32093525
REMARK  8 active torsions:
REMARK  status: ('A' for Active; 'I' for Inactive)
REMARK    1  A    between atoms: C_1  and  C_2
REMARK    2  A    between atoms: C_2  and  C_3
REMARK    3  A    between atoms: C_4  and  C_26
REMARK    4  A    between atoms: C_10  and  C_21
REMARK    5  A    between atoms: N_15  and  C_16
REMARK    6  A    between atoms: C_16  and  C_17
REMARK    7  A    between atoms: C_17  and  C_19
REMARK    8  A    between atoms: C_17  and  O_20
REMARK                            x       y       z     vdW  Elec       q    Type
REMARK                         _______ _______ _______ _____ _____    ______ ____
ROOT
ATOM      1  C   UNL     1      -6.788   3.079   0.044  0.00  0.00    -0.025 A 
ATOM      2  C   UNL     1      -8.131   3.128   0.049  0.00  0.00    -0.007 A 
ATOM      3  S   UNL     1      -8.605   1.410   0.040  0.00  0.00    -0.073 S 
ATOM      4  C   UNL     1      -6.989   0.678   0.031  0.00  0.00    +0.116 A 
ATOM      5  C   UNL     1      -6.127   1.789   0.035  0.00  0.00    +0.055 A 
ATOM      6  C   UNL     1      -4.687   1.465   0.028  0.00  0.00    +0.170 A 
ATOM      7  N   UNL     1      -3.596   2.205   0.028  0.00  0.00    -0.203 NA
ATOM      8  C   UNL     1      -2.518   1.410   0.019  0.00  0.00    +0.218 A 
ATOM      9  N   UNL     1      -2.908   0.149   0.007  0.00  0.00    -0.139 NA
ATOM     10  N   UNL     1      -4.310   0.152   0.018  0.00  0.00    -0.181 N 
ATOM     11  C   UNL     1      -5.247  -0.841   0.016  0.00  0.00    +0.219 A 
ATOM     12  N   UNL     1      -6.532  -0.569   0.022  0.00  0.00    -0.207 NA
ATOM     13  N   UNL     1      -4.837  -2.155   0.006  0.00  0.00    -0.311 N 
ATOM     14  C   UNL     1      -9.021   4.344   0.059  0.00  0.00    +0.052 C 
ATOM     15  H   UNL     1      -3.764  -2.396   0.001  0.00  0.00    +0.149 HD
ENDROOT
BRANCH   8  16
ATOM     16  C   UNL     1      -1.114   1.872   0.017  0.00  0.00    +0.173 A 
ATOM     17  C   UNL     1      -0.013   1.076   0.008  0.00  0.00    +0.053 A 
ATOM     18  C   UNL     1       1.107   1.932   0.002  0.00  0.00    +0.042 A 
ATOM     19  C   UNL     1       0.637   3.195   0.013  0.00  0.00    +0.196 A 
ATOM     20  O   UNL     1      -0.705   3.155   0.026  0.00  0.00    -0.460 OA
ENDBRANCH   8  16
BRANCH   1  22
ATOM     21  C   UNL     1      -5.709   4.789  -1.391  0.00  0.00    +0.009 C 
ATOM     22  C   UNL     1      -5.979   4.350   0.050  0.00  0.00    +0.033 C 
ENDBRANCH   1  22
BRANCH  13  23
ATOM     23  C   UNL     1      -5.830  -3.232   0.002  0.00  0.00    +0.135 C 
BRANCH  23  24
ATOM     24  C   UNL     1      -5.114  -4.585  -0.009  0.00  0.00    +0.128 C 
ATOM     25  C   UNL     1      -6.151  -5.710  -0.012  0.00  0.00    +0.039 C 
BRANCH  24  26
ATOM     26  O   UNL     1      -4.300  -4.684  -1.179  0.00  0.00    -0.391 OA
ATOM     27  H   UNL     1      -3.706  -5.591  -1.361  0.00  0.00    +0.210 HD
ENDBRANCH  24  26
ENDBRANCH  23  24
ENDBRANCH  13  23
TORSDOF 5
