REMARK  Name = ZINC11912261
REMARK  6 active torsions:
REMARK  status: ('A' for Active; 'I' for Inactive)
REMARK    1  A    between atoms: C_9  and  N_60
REMARK    2  A    between atoms: C_11  and  N_60
REMARK    3  A    between atoms: N_14  and  C_17
REMARK    4  A    between atoms: C_21  and  N_23
REMARK    5  A    between atoms: N_23  and  S_24
REMARK    6  A    between atoms: S_24  and  C_27
REMARK                            x       y       z     vdW  Elec       q    Type
REMARK                         _______ _______ _______ _____ _____    ______ ____
ROOT
ATOM      1  C   UNL     1       2.940  -1.331  -8.682  0.00  0.00    -0.068 C 
ATOM      2  C   UNL     1       3.771  -0.436  -7.758  0.00  0.00    +0.003 C 
ATOM      3  C   UNL     1       3.906  -1.110  -6.390  0.00  0.00    +0.103 C 
ATOM      4  N   UNL     1       2.572  -1.330  -5.817  0.00  0.00    -0.330 N 
ATOM      5  C   UNL     1       1.772  -2.224  -6.664  0.00  0.00    +0.103 C 
ATOM      6  C   UNL     1       1.573  -1.585  -8.040  0.00  0.00    +0.003 C 
ENDROOT
BRANCH   4   7
ATOM      7  C   UNL     1       2.661  -1.823  -4.514  0.00  0.00    +0.031 A 
ATOM      8  C   UNL     1       3.907  -2.037  -3.935  0.00  0.00    +0.023 A 
ATOM      9  C   UNL     1       3.997  -2.524  -2.646  0.00  0.00    +0.004 A 
ATOM     10  C   UNL     1       2.849  -2.799  -1.926  0.00  0.00    +0.024 A 
ATOM     11  C   UNL     1       1.601  -2.587  -2.499  0.00  0.00    +0.050 A 
ATOM     12  C   UNL     1       1.507  -2.104  -3.796  0.00  0.00    +0.047 A 
BRANCH  11  13
ATOM     13  N   UNL     1       0.442  -2.866  -1.771  0.00  0.00    -0.216 N 
ATOM     14  H   UNL     1      -0.290  -3.345  -2.190  0.00  0.00    +0.174 HD
BRANCH  13  15
ATOM     15  S   UNL     1       0.317  -2.378  -0.194  0.00  0.00    +0.072 S 
ATOM     16  O   UNL     1       1.513  -2.789   0.454  0.00  0.00    -0.150 OA
ATOM     17  O   UNL     1      -0.970  -2.780   0.255  0.00  0.00    -0.150 OA
BRANCH  15  18
ATOM     18  C   UNL     1       0.324  -0.616  -0.191  0.00  0.00    +0.109 A 
ATOM     19  C   UNL     1      -0.867   0.080  -0.286  0.00  0.00    +0.031 A 
ATOM     20  C   UNL     1      -0.864   1.462  -0.283  0.00  0.00    +0.040 A 
ATOM     21  C   UNL     1       0.334   2.150  -0.186  0.00  0.00    +0.124 A 
ATOM     22  C   UNL     1       1.526   1.452  -0.092  0.00  0.00    +0.040 A 
ATOM     23  C   UNL     1       1.520   0.070  -0.094  0.00  0.00    +0.031 A 
ATOM     24  F   UNL     1       0.339   3.501  -0.184  0.00  0.00    -0.205 F 
ENDBRANCH  15  18
ENDBRANCH  13  15
ENDBRANCH  11  13
ENDBRANCH   4   7
BRANCH   1  25
ATOM     25  N   UNL     1       2.759  -0.653  -9.979  0.00  0.00    +0.386 N 
ATOM     26  H   UNL     1       1.939  -0.037  -9.928  0.00  0.00    -0.085 HD
ATOM     27  H   UNL     1       3.595  -0.094 -10.189  0.00  0.00    -0.085 HD
BRANCH  25  36
ATOM     28  C   UNL     1       0.805   0.149 -14.503  0.00  0.00    +0.000 A 
ATOM     29  C   UNL     1      -0.060  -0.181 -13.476  0.00  0.00    +0.000 A 
ATOM     30  C   UNL     1       0.428  -0.766 -12.324  0.00  0.00    +0.002 A 
ATOM     31  C   UNL     1       1.782  -1.024 -12.194  0.00  0.00    -0.058 A 
ATOM     32  C   UNL     1       2.647  -0.694 -13.220  0.00  0.00    -0.046 A 
ATOM     33  C   UNL     1       2.156  -0.107 -14.374  0.00  0.00    +0.004 A 
ATOM     34  C   UNL     1       4.062  -1.072 -12.838  0.00  0.00    +0.034 C 
ATOM     35  C   UNL     1       3.913  -2.060 -11.661  0.00  0.00    -0.007 C 
ATOM     36  C   UNL     1       2.557  -1.646 -11.052  0.00  0.00    -0.040 C 
ENDBRANCH  25  36
ENDBRANCH   1  25
TORSDOF 6
