REMARK  Name = ZINC04810870
REMARK  6 active torsions:
REMARK  status: ('A' for Active; 'I' for Inactive)
REMARK    1  A    between atoms: C_1  and  C_2
REMARK    2  A    between atoms: C_4  and  C_20
REMARK    3  A    between atoms: C_5  and  C_19
REMARK    4  A    between atoms: C_6  and  S_9
REMARK    5  A    between atoms: C_7  and  C_8
REMARK    6  A    between atoms: S_9  and  N_12
REMARK                            x       y       z     vdW  Elec       q    Type
REMARK                         _______ _______ _______ _____ _____    ______ ____
ROOT
ATOM      1  C   UNL     1       1.433  -2.668  -3.116  0.00  0.00    +0.044 C 
ATOM      2  C   UNL     1       0.316  -2.785  -2.110  0.00  0.00    -0.045 A 
ATOM      3  C   UNL     1       0.561  -3.336  -0.867  0.00  0.00    +0.007 A 
ATOM      4  C   UNL     1      -0.463  -3.443   0.056  0.00  0.00    -0.045 A 
ATOM      5  C   UNL     1      -1.732  -2.998  -0.266  0.00  0.00    -0.021 A 
ATOM      6  C   UNL     1      -1.976  -2.446  -1.509  0.00  0.00    +0.112 A 
ATOM      7  C   UNL     1      -0.953  -2.344  -2.433  0.00  0.00    -0.021 A 
ATOM      8  C   UNL     1      -1.221  -1.747  -3.791  0.00  0.00    +0.046 C 
ATOM      9  C   UNL     1      -2.848  -3.115   0.740  0.00  0.00    +0.046 C 
ATOM     10  C   UNL     1      -0.196  -4.044   1.411  0.00  0.00    +0.044 C 
ENDROOT
BRANCH   6  11
ATOM     11  S   UNL     1      -3.594  -1.879  -1.919  0.00  0.00    +0.061 S 
ATOM     12  O   UNL     1      -3.430  -0.840  -2.874  0.00  0.00    -0.153 OA
ATOM     13  O   UNL     1      -4.278  -1.682  -0.689  0.00  0.00    -0.153 OA
BRANCH  11  14
ATOM     14  N   UNL     1      -4.365  -3.120  -2.697  0.00  0.00    -0.177 NA
ATOM     15  C   UNL     1      -5.002  -4.165  -1.949  0.00  0.00    +0.109 C 
ATOM     16  C   UNL     1      -4.109  -5.374  -1.572  0.00  0.00    +0.017 C 
ATOM     17  C   UNL     1      -3.200  -5.758  -2.765  0.00  0.00    +0.001 C 
ATOM     18  C   UNL     1      -3.944  -5.632  -4.063  0.00  0.00    +0.001 C 
ATOM     19  C   UNL     1      -3.548  -4.271  -4.627  0.00  0.00    +0.017 C 
ATOM     20  C   UNL     1      -4.409  -3.170  -4.197  0.00  0.00    +0.109 C 
ENDBRANCH  11  14
ENDBRANCH   6  11
TORSDOF 2
