REMARK  Name = ZINC22418204
REMARK  9 active torsions:
REMARK  status: ('A' for Active; 'I' for Inactive)
REMARK    1  A    between atoms: C_1  and  N_2
REMARK    2  A    between atoms: N_2  and  C_3
REMARK    3  A    between atoms: N_2  and  C_4
REMARK    4  A    between atoms: C_7  and  C_10
REMARK    5  A    between atoms: C_10  and  C_12
REMARK    6  A    between atoms: C_10  and  N_27
REMARK    7  A    between atoms: C_12  and  N_13
REMARK    8  A    between atoms: C_14  and  C_16
REMARK    9  A    between atoms: C_16  and  C_17
REMARK                            x       y       z     vdW  Elec       q    Type
REMARK                         _______ _______ _______ _____ _____    ______ ____
ROOT
ATOM      1  C   UNL     1      -0.013   1.086   0.008  0.00  0.00    -0.020 C 
ENDROOT
BRANCH   1   2
ATOM      2  N   UNL     1      -0.492   1.754   1.225  0.00  0.00    +0.388 N 
ATOM      3  C   UNL     1      -1.897   1.413   1.496  0.00  0.00    -0.073 C 
ATOM      4  C   UNL     1      -2.228   1.820   2.932  0.00  0.00    +0.017 C 
ATOM      5  C   UNL     1      -1.802   3.246   3.173  0.00  0.00    -0.048 A 
ATOM      6  C   UNL     1      -2.321   3.915   4.272  0.00  0.00    +0.004 A 
ATOM      7  C   UNL     1      -1.954   5.220   4.531  0.00  0.00    +0.000 A 
ATOM      8  C   UNL     1      -1.064   5.864   3.691  0.00  0.00    +0.000 A 
ATOM      9  C   UNL     1      -0.548   5.199   2.597  0.00  0.00    +0.002 A 
ATOM     10  C   UNL     1      -0.917   3.888   2.334  0.00  0.00    -0.061 A 
ATOM     11  C   UNL     1      -0.333   3.208   1.124  0.00  0.00    -0.042 C 
ATOM     12  H   UNL     1       0.124   1.398   2.065  0.00  0.00    -0.080 HD
ENDBRANCH   1   2
BRANCH   1  16
ATOM     13  C   UNL     1      -2.617   2.021  -3.249  0.00  0.00    +0.029 A 
ATOM     14  C   UNL     1      -2.653   0.759  -2.670  0.00  0.00    +0.023 A 
ATOM     15  C   UNL     1      -1.810   0.460  -1.617  0.00  0.00    +0.004 A 
ATOM     16  C   UNL     1      -0.931   1.416  -1.140  0.00  0.00    -0.059 A 
ATOM     17  C   UNL     1      -0.897   2.675  -1.711  0.00  0.00    +0.004 A 
ATOM     18  C   UNL     1      -1.734   2.978  -2.767  0.00  0.00    +0.023 A 
BRANCH  13  20
ATOM     19  C   UNL     1      -4.401   1.316  -4.819  0.00  0.00    +0.129 C 
ATOM     20  N   UNL     1      -3.469   2.327  -4.313  0.00  0.00    -0.336 N 
ATOM     21  C   UNL     1      -3.430   3.658  -4.923  0.00  0.00    +0.129 C 
ENDBRANCH  13  20
ENDBRANCH   1  16
BRANCH   1  22
ATOM     22  C   UNL     1       1.403   1.569  -0.316  0.00  0.00    +0.093 C 
BRANCH  22  23
ATOM     23  N   UNL     1       2.269   1.357   0.846  0.00  0.00    -0.316 N 
ATOM     24  C   UNL     1       3.568   1.710   0.792  0.00  0.00    +0.217 C 
ATOM     25  O   UNL     1       4.021   2.203  -0.220  0.00  0.00    -0.275 OA
ATOM     26  H   UNL     1       1.859   0.909   1.764  0.00  0.00    +0.149 HD
BRANCH  24  27
ATOM     27  C   UNL     1       4.460   1.491   1.987  0.00  0.00    +0.131 C 
BRANCH  27  28
ATOM     28  C   UNL     1       5.853   1.967   1.668  0.00  0.00    -0.031 A 
ATOM     29  C   UNL     1       6.790   1.088   1.219  0.00  0.00    +0.005 A 
ATOM     30  C   UNL     1       8.084   1.509   0.919  0.00  0.00    +0.001 A 
ATOM     31  C   UNL     1       8.449   2.812   1.066  0.00  0.00    +0.008 A 
ATOM     32  C   UNL     1       7.509   3.749   1.527  0.00  0.00    -0.018 A 
ATOM     33  C   UNL     1       6.191   3.321   1.828  0.00  0.00    -0.014 A 
ATOM     34  C   UNL     1       5.252   4.258   2.293  0.00  0.00    +0.009 A 
ATOM     35  C   UNL     1       5.617   5.561   2.441  0.00  0.00    +0.001 A 
ATOM     36  C   UNL     1       6.911   5.982   2.142  0.00  0.00    +0.001 A 
ATOM     37  C   UNL     1       7.848   5.103   1.692  0.00  0.00    +0.008 A 
ENDBRANCH  27  28
ENDBRANCH  24  27
ENDBRANCH  22  23
ENDBRANCH   1  22
TORSDOF 7
