REMARK  Name = ZINC39946462
REMARK  7 active torsions:
REMARK  status: ('A' for Active; 'I' for Inactive)
REMARK    1  A    between atoms: C_1  and  C_2
REMARK    2  A    between atoms: C_5  and  N_8
REMARK    3  A    between atoms: C_12  and  S_14
REMARK    4  A    between atoms: S_14  and  C_15
REMARK    5  A    between atoms: C_15  and  C_17
REMARK    6  A    between atoms: C_15  and  C_23
REMARK    7  A    between atoms: C_23  and  C_25
REMARK                            x       y       z     vdW  Elec       q    Type
REMARK                         _______ _______ _______ _____ _____    ______ ____
ROOT
ATOM      1  C   UNL     1       0.604  -7.106   5.992  0.00  0.00    +0.154 C 
ENDROOT
BRANCH   1   2
ATOM      2  C   UNL     1      -0.740  -6.468   6.232  0.00  0.00    -0.027 A 
ATOM      3  C   UNL     1      -1.881  -7.247   6.251  0.00  0.00    +0.005 A 
ATOM      4  C   UNL     1      -3.114  -6.661   6.471  0.00  0.00    +0.000 A 
ATOM      5  C   UNL     1      -3.205  -5.297   6.674  0.00  0.00    +0.000 A 
ATOM      6  C   UNL     1      -2.063  -4.518   6.656  0.00  0.00    +0.000 A 
ATOM      7  C   UNL     1      -0.830  -5.104   6.440  0.00  0.00    +0.005 A 
ENDBRANCH   1   2
BRANCH   1   8
ATOM      8  C   UNL     1       0.873  -8.130   7.065  0.00  0.00    +0.179 C 
ATOM      9  O   UNL     1       0.607  -9.298   6.869  0.00  0.00    -0.291 OA
BRANCH   8  10
ATOM     10  C   UNL     1       1.434  -7.730   8.296  0.00  0.00    +0.025 C 
ATOM     11  C   UNL     1       1.746  -8.539   9.375  0.00  0.00    +0.006 A 
ATOM     12  C   UNL     1       1.622  -9.930   9.602  0.00  0.00    +0.010 A 
ATOM     13  C   UNL     1       2.016 -10.465  10.779  0.00  0.00    +0.001 A 
ATOM     14  C   UNL     1       2.557  -9.689  11.817  0.00  0.00    +0.002 A 
ATOM     15  C   UNL     1       2.718  -8.353  11.701  0.00  0.00    +0.026 A 
ATOM     16  C   UNL     1       2.314  -7.689  10.450  0.00  0.00    +0.043 A 
ATOM     17  N   UNL     1       2.355  -6.443  10.075  0.00  0.00    -0.380 N 
ATOM     18  C   UNL     1       1.827  -6.330   8.712  0.00  0.00    +0.152 C 
ATOM     19  H   UNL     1       2.687  -5.706  10.611  0.00  0.00    +0.160 HD
ENDBRANCH   8  10
ENDBRANCH   1   8
BRANCH   1  20
ATOM     20  S   UNL     1       0.607  -7.915   4.369  0.00  0.00    -0.081 S 
BRANCH  20  25
ATOM     21  N   UNL     1       0.057  -4.168  -0.021  0.00  0.00    -0.292 N 
ATOM     22  C   UNL     1       0.177  -4.868   1.174  0.00  0.00    +0.187 A 
ATOM     23  N   UNL     1       0.191  -4.413   2.412  0.00  0.00    -0.125 NA
ATOM     24  N   UNL     1       0.321  -5.291   3.463  0.00  0.00    -0.133 NA
ATOM     25  C   UNL     1       0.431  -6.584   3.228  0.00  0.00    +0.161 A 
ATOM     26  S   UNL     1       0.347  -6.626   1.444  0.00  0.00    -0.024 S 
ATOM     27  H   UNL     1      -0.021  -4.649  -0.859  0.00  0.00    +0.154 HD
BRANCH  21  32
ATOM     28  C   UNL     1       0.029   1.503   0.005  0.00  0.00    +0.044 C 
ATOM     29  C   UNL     1       0.036  -0.004  -0.002  0.00  0.00    -0.050 A 
ATOM     30  C   UNL     1       0.647  -0.695   1.028  0.00  0.00    +0.005 A 
ATOM     31  C   UNL     1       0.656  -2.076   1.025  0.00  0.00    +0.023 A 
ATOM     32  C   UNL     1       0.050  -2.771  -0.014  0.00  0.00    +0.033 A 
ATOM     33  C   UNL     1      -0.564  -2.073  -1.047  0.00  0.00    +0.023 A 
ATOM     34  C   UNL     1      -0.573  -0.692  -1.035  0.00  0.00    +0.005 A 
ENDBRANCH  21  32
ENDBRANCH  20  25
ENDBRANCH   1  20
TORSDOF 6
