REMARK  Name = ZINC52807772
REMARK  5 active torsions:
REMARK  status: ('A' for Active; 'I' for Inactive)
REMARK    1  A    between atoms: C_1  and  C_2
REMARK    2  A    between atoms: C_2  and  C_4
REMARK    3  A    between atoms: C_2  and  N_21
REMARK    4  A    between atoms: N_6  and  C_7
REMARK    5  A    between atoms: C_10  and  N_14
REMARK                            x       y       z     vdW  Elec       q    Type
REMARK                         _______ _______ _______ _____ _____    ______ ____
ROOT
ATOM      1  C   UNL     1       2.572  -0.549  -2.671  0.00  0.00    +0.035 A 
ATOM      2  C   UNL     1       1.823  -1.264  -3.597  0.00  0.00    +0.025 A 
ATOM      3  C   UNL     1       2.395  -1.662  -4.789  0.00  0.00    +0.026 A 
ATOM      4  C   UNL     1       3.720  -1.348  -5.063  0.00  0.00    +0.049 A 
ATOM      5  C   UNL     1       4.469  -0.632  -4.137  0.00  0.00    +0.064 A 
ATOM      6  C   UNL     1       3.895  -0.229  -2.947  0.00  0.00    +0.045 A 
ATOM      7 CL   UNL     1       6.125  -0.239  -4.479  0.00  0.00    -0.082 Cl
ENDROOT
BRANCH   4   8
ATOM      8  N   UNL     1       4.300  -1.752  -6.271  0.00  0.00    -0.318 N 
ATOM      9  C   UNL     1       4.978  -3.053  -6.397  0.00  0.00    +0.124 C 
ATOM     10  C   UNL     1       4.237  -3.878  -7.451  0.00  0.00    +0.123 C 
ATOM     11  N   UNL     1       3.972  -3.079  -8.640  0.00  0.00    -0.313 N 
ATOM     12  C   UNL     1       3.934  -1.746  -8.663  0.00  0.00    +0.230 C 
ATOM     13  O   UNL     1       3.624  -1.194  -9.698  0.00  0.00    -0.274 OA
ATOM     14  C   UNL     1       4.251  -0.898  -7.467  0.00  0.00    +0.200 C 
ATOM     15  H   UNL     1       3.813  -3.549  -9.473  0.00  0.00    +0.149 HD
ENDBRANCH   4   8
BRANCH   1  18
ATOM     16  C   UNL     1       2.335   1.034  -0.909  0.00  0.00    +0.240 C 
ATOM     17  O   UNL     1       3.208   1.709  -1.414  0.00  0.00    -0.273 OA
ATOM     18  N   UNL     1       1.991  -0.146  -1.462  0.00  0.00    -0.284 N 
ATOM     19  H   UNL     1       1.341  -0.716  -1.022  0.00  0.00    +0.155 HD
BRANCH  16  21
ATOM     20  C   UNL     1       1.848   0.504   1.464  0.00  0.00    +0.041 C 
ATOM     21  C   UNL     1       1.636   1.516   0.336  0.00  0.00    +0.171 C 
BRANCH  21  22
ATOM     22  N   UNL     1       2.186   2.814   0.734  0.00  0.00    -0.327 N 
ATOM     23  C   UNL     1       3.490   3.079   1.057  0.00  0.00    +0.105 A 
ATOM     24  C   UNL     1       3.558   4.389   1.359  0.00  0.00    +0.101 A 
ATOM     25  N   UNL     1       2.330   4.911   1.224  0.00  0.00    -0.352 N 
ATOM     26  C   UNL     1       1.504   3.974   0.845  0.00  0.00    +0.174 A 
ATOM     27  H   UNL     1       2.093   5.838   1.381  0.00  0.00    +0.166 HD
ENDBRANCH  21  22
ENDBRANCH  16  21
ENDBRANCH   1  18
TORSDOF 4
