REMARK  Name = ZINC04146686
REMARK  8 active torsions:
REMARK  status: ('A' for Active; 'I' for Inactive)
REMARK    1  A    between atoms: C_1  and  C_2
REMARK    2  A    between atoms: C_2  and  C_3
REMARK    3  A    between atoms: C_2  and  C_4
REMARK    4  A    between atoms: C_4  and  C_5
REMARK    5  A    between atoms: C_8  and  C_11
REMARK    6  A    between atoms: C_18  and  N_29
REMARK    7  A    between atoms: C_19  and  C_27
REMARK    8  A    between atoms: C_20  and  C_22
REMARK                            x       y       z     vdW  Elec       q    Type
REMARK                         _______ _______ _______ _____ _____    ______ ____
ROOT
ATOM      1  C   UNL     1      -1.366  -6.271  -0.492  0.00  0.00    +0.100 A 
ATOM      2  C   UNL     1      -0.680  -7.162   0.339  0.00  0.00    +0.057 A 
ATOM      3  C   UNL     1      -0.919  -8.428  -0.111  0.00  0.00    +0.223 A 
ATOM      4  N   UNL     1      -1.726  -8.335  -1.188  0.00  0.00    -0.246 N 
ATOM      5  H   UNL     1      -2.061  -9.078  -1.715  0.00  0.00    +0.192 HD
ATOM      6  N   UNL     1      -2.000  -6.977  -1.409  0.00  0.00    -0.171 NA
ATOM      7  O   UNL     1      -0.396  -9.528   0.486  0.00  0.00    -0.423 OA
ATOM      8  C   UNL     1       0.152  -9.374   1.709  0.00  0.00    +0.201 C 
ATOM      9  C   UNL     1       0.446  -8.173   2.255  0.00  0.00    +0.101 C 
ATOM     10  C   UNL     1       0.189  -6.873   1.536  0.00  0.00    +0.138 C 
ENDROOT
BRANCH   1  14
ATOM     11  C   UNL     1      -1.416  -2.035  -0.119  0.00  0.00    -0.047 A 
ATOM     12  C   UNL     1      -1.450  -2.617  -1.374  0.00  0.00    +0.004 A 
ATOM     13  C   UNL     1      -1.434  -3.991  -1.500  0.00  0.00    +0.010 A 
ATOM     14  C   UNL     1      -1.383  -4.792  -0.362  0.00  0.00    +0.003 A 
ATOM     15  C   UNL     1      -1.349  -4.201   0.899  0.00  0.00    +0.010 A 
ATOM     16  C   UNL     1      -1.360  -2.826   1.014  0.00  0.00    +0.004 A 
BRANCH  11  17
ATOM     17  C   UNL     1      -1.433  -0.534   0.013  0.00  0.00    +0.038 C 
BRANCH  17  19
ATOM     18  C   UNL     1      -0.019   1.526   0.010  0.00  0.00    +0.007 C 
ATOM     19  C   UNL     1       0.002  -0.004   0.002  0.00  0.00    -0.013 C 
ATOM     20  C   UNL     1       0.742  -0.511   1.242  0.00  0.00    +0.007 C 
ENDBRANCH  17  19
ENDBRANCH  11  17
ENDBRANCH   1  14
BRANCH  10  21
ATOM     21  C   UNL     1       1.496  -6.275   1.082  0.00  0.00    +0.118 A 
ATOM     22  C   UNL     1       1.971  -5.066   1.432  0.00  0.00    +0.045 A 
ATOM     23  C   UNL     1       3.218  -4.913   0.783  0.00  0.00    +0.041 A 
ATOM     24  C   UNL     1       3.430  -6.037   0.076  0.00  0.00    +0.195 A 
ATOM     25  O   UNL     1       2.386  -6.861   0.265  0.00  0.00    -0.467 OA
ENDBRANCH  10  21
BRANCH   8  26
ATOM     26  N   UNL     1       0.428 -10.502   2.440  0.00  0.00    -0.328 N 
ATOM     27  H   UNL     1       0.228 -11.378   2.075  0.00  0.00    +0.145 HD
ATOM     28  H   UNL     1       0.823 -10.424   3.323  0.00  0.00    +0.145 HD
ENDBRANCH   8  26
BRANCH   9  29
ATOM     29  C   UNL     1       1.023  -8.134   3.566  0.00  0.00    +0.101 C 
ATOM     30  N   UNL     1       1.480  -8.104   4.605  0.00  0.00    -0.191 NA
ENDBRANCH   9  29
TORSDOF 6
