REMARK  Name = ZINC67125879
REMARK  4 active torsions:
REMARK  status: ('A' for Active; 'I' for Inactive)
REMARK    1  A    between atoms: C_4  and  N_19
REMARK    2  A    between atoms: C_5  and  N_7
REMARK    3  A    between atoms: N_7  and  N_8
REMARK    4  A    between atoms: C_9  and  C_11
REMARK                            x       y       z     vdW  Elec       q    Type
REMARK                         _______ _______ _______ _____ _____    ______ ____
ROOT
ATOM      1  N   UNL     1      -0.138  -2.675   0.636  0.00  0.00    -0.232 N 
ATOM      2  C   UNL     1      -0.184  -4.002   0.867  0.00  0.00    +0.260 C 
ATOM      3  O   UNL     1       0.846  -4.643   0.934  0.00  0.00    -0.269 OA
ATOM      4  H   UNL     1      -0.960  -2.163   0.582  0.00  0.00    +0.173 HD
ENDROOT
BRANCH   2   5
ATOM      5  C   UNL     1      -1.488  -4.677   1.039  0.00  0.00    +0.041 A 
ATOM      6  C   UNL     1      -2.673  -3.943   0.957  0.00  0.00    +0.014 A 
ATOM      7  C   UNL     1      -3.887  -4.578   1.118  0.00  0.00    +0.019 A 
ATOM      8  C   UNL     1      -3.933  -5.940   1.361  0.00  0.00    +0.053 A 
ATOM      9  C   UNL     1      -2.760  -6.675   1.444  0.00  0.00    +0.138 A 
ATOM     10  C   UNL     1      -1.538  -6.051   1.279  0.00  0.00    +0.052 A 
ATOM     11  F   UNL     1      -2.812  -8.004   1.681  0.00  0.00    -0.204 F 
ATOM     12 BR   UNL     1      -5.602  -6.802   1.581  0.00  0.00    -0.047 Br
ENDBRANCH   2   5
BRANCH   1  13
ATOM     13  N   UNL     1       1.097  -2.035   0.472  0.00  0.00    -0.262 N 
ATOM     14  H   UNL     1       1.920  -2.547   0.526  0.00  0.00    +0.170 HD
BRANCH  13  19
ATOM     15  C   UNL     1       0.030   1.454   0.031  0.00  0.00    +0.002 A 
ATOM     16  C   UNL     1       1.240   2.065  -0.243  0.00  0.00    +0.002 A 
ATOM     17  C   UNL     1       2.403   1.317  -0.280  0.00  0.00    +0.034 A 
ATOM     18  C   UNL     1       2.359  -0.043  -0.043  0.00  0.00    +0.148 A 
ATOM     19  C   UNL     1       1.145  -0.659   0.233  0.00  0.00    +0.075 A 
ATOM     20  C   UNL     1      -0.021   0.095   0.269  0.00  0.00    +0.027 A 
BRANCH  18  21
ATOM     21  N   UNL     1       3.604  -0.842  -0.083  0.00  0.00    +0.058 N 
ATOM     22  O   UNL     1       4.636  -0.375   0.339  0.00  0.00    -0.126 OA
ATOM     23  O   UNL     1       3.589  -1.963  -0.537  0.00  0.00    -0.126 OA
ENDBRANCH  18  21
ENDBRANCH  13  19
ENDBRANCH   1  13
TORSDOF 4
