REMARK  Name = ZINC35485508
REMARK  10 active torsions:
REMARK  status: ('A' for Active; 'I' for Inactive)
REMARK    1  A    between atoms: C_1  and  C_2
REMARK    2  A    between atoms: C_4  and  C_31
REMARK    3  A    between atoms: C_6  and  N_8
REMARK    4  A    between atoms: C_9  and  C_11
REMARK    5  A    between atoms: C_11  and  C_13
REMARK    6  A    between atoms: C_11  and  N_17
REMARK    7  A    between atoms: C_13  and  C_14
REMARK    8  A    between atoms: C_14  and  C_15
REMARK    9  A    between atoms: C_14  and  C_16
REMARK   10  A    between atoms: C_18  and  C_20
REMARK                            x       y       z     vdW  Elec       q    Type
REMARK                         _______ _______ _______ _____ _____    ______ ____
ROOT
ATOM      1  C   UNL     1       0.280  -2.900   4.854  0.00  0.00    +0.159 C 
ENDROOT
BRANCH   1   3
ATOM      2  N   UNL     1       0.052  -2.797   2.393  0.00  0.00    -0.284 N 
ATOM      3  C   UNL     1       0.150  -2.134   3.562  0.00  0.00    +0.238 C 
ATOM      4  O   UNL     1       0.134  -0.922   3.575  0.00  0.00    -0.273 OA
ATOM      5  H   UNL     1      -0.012  -3.765   2.388  0.00  0.00    +0.155 HD
BRANCH   2  11
ATOM      6  C   UNL     1      -1.512  -2.365  -2.248  0.00  0.00    +0.044 C 
ATOM      7  C   UNL     1      -0.706  -1.857  -1.080  0.00  0.00    -0.048 A 
ATOM      8  C   UNL     1       0.025  -0.690  -1.201  0.00  0.00    +0.006 A 
ATOM      9  C   UNL     1       0.765  -0.220  -0.131  0.00  0.00    -0.048 A 
ATOM     10  C   UNL     1       0.776  -0.917   1.061  0.00  0.00    +0.026 A 
ATOM     11  C   UNL     1       0.043  -2.089   1.186  0.00  0.00    +0.034 A 
ATOM     12  C   UNL     1      -0.704  -2.555   0.112  0.00  0.00    +0.026 A 
ATOM     13  C   UNL     1       1.562   1.052  -0.268  0.00  0.00    +0.044 C 
ENDBRANCH   2  11
ENDBRANCH   1   3
BRANCH   1  14
ATOM     14  N   UNL     1       0.370  -1.959   5.973  0.00  0.00    -0.303 N 
ATOM     15  C   UNL     1      -0.006  -2.343   7.208  0.00  0.00    +0.231 C 
ATOM     16  O   UNL     1      -0.419  -3.468   7.394  0.00  0.00    -0.274 OA
ATOM     17  H   UNL     1       0.700  -1.059   5.824  0.00  0.00    +0.149 HD
BRANCH  15  18
ATOM     18  C   UNL     1       0.086  -1.375   8.359  0.00  0.00    +0.145 C 
ATOM     19  C   UNL     1       1.526  -1.317   8.869  0.00  0.00    +0.063 C 
ATOM     20  C   UNL     1       1.584  -0.545  10.162  0.00  0.00    -0.041 A 
ATOM     21  C   UNL     1       2.814  -0.076  10.597  0.00  0.00    +0.004 A 
ATOM     22  C   UNL     1       2.913   0.632  11.777  0.00  0.00    +0.000 A 
ATOM     23  C   UNL     1       1.779   0.875  12.531  0.00  0.00    +0.000 A 
ATOM     24  C   UNL     1       0.554   0.409  12.097  0.00  0.00    +0.005 A 
ATOM     25  C   UNL     1       0.453  -0.300  10.910  0.00  0.00    -0.030 A 
ATOM     26  C   UNL     1      -0.907  -0.778  10.473  0.00  0.00    +0.117 C 
ATOM     27  N   UNL     1      -0.784  -1.827   9.457  0.00  0.00    -0.301 NA
ATOM     28  H   UNL     1      -1.690  -2.104   9.109  0.00  0.00    +0.123 HD
ENDBRANCH  15  18
ENDBRANCH   1  14
BRANCH   1  29
ATOM     29  C   UNL     1       1.543  -3.763   4.811  0.00  0.00    +0.034 C 
BRANCH  29  30
ATOM     30  C   UNL     1       1.610  -4.633   6.067  0.00  0.00    -0.015 C 
ATOM     31  C   UNL     1       0.443  -5.623   6.064  0.00  0.00    +0.007 C 
ATOM     32  C   UNL     1       2.932  -5.402   6.085  0.00  0.00    +0.007 C 
ENDBRANCH  29  30
ENDBRANCH   1  29
TORSDOF 6
