REMARK  Name = ZINC48052155
REMARK  9 active torsions:
REMARK  status: ('A' for Active; 'I' for Inactive)
REMARK    1  A    between atoms: C_1  and  C_2
REMARK    2  A    between atoms: C_4  and  C_26
REMARK    3  A    between atoms: C_6  and  N_8
REMARK    4  A    between atoms: N_11  and  C_12
REMARK    5  A    between atoms: C_12  and  C_14
REMARK    6  A    between atoms: C_12  and  C_15
REMARK    7  A    between atoms: C_19  and  N_21
REMARK    8  A    between atoms: N_21  and  S_22
REMARK    9  A    between atoms: S_22  and  C_25
REMARK                            x       y       z     vdW  Elec       q    Type
REMARK                         _______ _______ _______ _____ _____    ______ ____
ROOT
ATOM      1  N   UNL     1       0.050  -2.797   2.393  0.00  0.00    -0.269 N 
ATOM      2  C   UNL     1       0.148  -2.135   3.562  0.00  0.00    +0.304 C 
ATOM      3  O   UNL     1       0.133  -0.919   3.575  0.00  0.00    -0.252 OA
ATOM      4  N   UNL     1       0.264  -2.819   4.718  0.00  0.00    -0.293 N 
ATOM      5  H   UNL     1      -0.015  -3.765   2.388  0.00  0.00    +0.156 HD
ATOM      6  H   UNL     1       0.276  -3.789   4.707  0.00  0.00    +0.151 HD
ENDROOT
BRANCH   1  12
ATOM      7  C   UNL     1      -1.509  -2.364  -2.250  0.00  0.00    +0.044 C 
ATOM      8  C   UNL     1      -0.705  -1.857  -1.081  0.00  0.00    -0.048 A 
ATOM      9  C   UNL     1       0.028  -0.690  -1.201  0.00  0.00    +0.006 A 
ATOM     10  C   UNL     1       0.767  -0.221  -0.131  0.00  0.00    -0.048 A 
ATOM     11  C   UNL     1       0.777  -0.917   1.062  0.00  0.00    +0.026 A 
ATOM     12  C   UNL     1       0.042  -2.089   1.186  0.00  0.00    +0.035 A 
ATOM     13  C   UNL     1      -0.704  -2.554   0.111  0.00  0.00    +0.026 A 
ATOM     14  C   UNL     1       1.564   1.051  -0.266  0.00  0.00    +0.044 C 
ENDBRANCH   1  12
BRANCH   4  15
ATOM     15  C   UNL     1       0.370  -2.099   5.989  0.00  0.00    +0.102 C 
ATOM     16  C   UNL     1      -1.030  -1.758   6.501  0.00  0.00    +0.033 C 
BRANCH  15  17
ATOM     17  C   UNL     1       1.078  -2.965   6.999  0.00  0.00    -0.026 A 
ATOM     18  C   UNL     1       0.811  -4.321   7.054  0.00  0.00    +0.005 A 
ATOM     19  C   UNL     1       1.458  -5.119   7.979  0.00  0.00    +0.002 A 
ATOM     20  C   UNL     1       2.373  -4.564   8.852  0.00  0.00    +0.024 A 
ATOM     21  C   UNL     1       2.644  -3.202   8.800  0.00  0.00    +0.048 A 
ATOM     22  C   UNL     1       1.996  -2.404   7.865  0.00  0.00    +0.030 A 
BRANCH  21  23
ATOM     23  N   UNL     1       3.569  -2.638   9.681  0.00  0.00    -0.221 N 
ATOM     24  H   UNL     1       3.361  -1.806  10.135  0.00  0.00    +0.173 HD
BRANCH  23  25
ATOM     25  S   UNL     1       5.021  -3.388   9.950  0.00  0.00    +0.040 S 
ATOM     26  O   UNL     1       5.684  -2.564  10.899  0.00  0.00    -0.155 OA
ATOM     27  O   UNL     1       4.681  -4.731  10.267  0.00  0.00    -0.155 OA
ATOM     28  C   UNL     1       5.882  -3.321   8.355  0.00  0.00    +0.218 C 
ENDBRANCH  23  25
ENDBRANCH  21  23
ENDBRANCH  15  17
ENDBRANCH   4  15
TORSDOF 5
