REMARK  Name = ZINC40549559
REMARK  9 active torsions:
REMARK  status: ('A' for Active; 'I' for Inactive)
REMARK    1  A    between atoms: C_1  and  C_2
REMARK    2  A    between atoms: C_4  and  C_36
REMARK    3  A    between atoms: C_5  and  C_9
REMARK    4  A    between atoms: C_6  and  O_8
REMARK    5  A    between atoms: C_11  and  C_15
REMARK    6  A    between atoms: N_17  and  C_18
REMARK    7  A    between atoms: C_19  and  C_26
REMARK    8  A    between atoms: N_28  and  C_29
REMARK    9  A    between atoms: C_29  and  C_30
REMARK                            x       y       z     vdW  Elec       q    Type
REMARK                         _______ _______ _______ _____ _____    ______ ____
ROOT
ATOM      1  C   UNL     1       0.105  -7.637   1.367  0.00  0.00    +0.266 C 
ATOM      2  O   UNL     1       0.105  -7.598   2.582  0.00  0.00    -0.268 OA
ATOM      3  N   UNL     1       0.121  -8.825   0.730  0.00  0.00    -0.274 N 
ATOM      4  H   UNL     1       0.120  -8.856  -0.239  0.00  0.00    +0.156 HD
ENDROOT
BRANCH   3   5
ATOM      5  C   UNL     1       0.137 -10.002   1.461  0.00  0.00    +0.085 A 
ATOM      6  C   UNL     1       0.160 -11.299   0.983  0.00  0.00    +0.069 A 
ATOM      7  C   UNL     1       0.174 -12.377   1.970  0.00  0.00    -0.023 A 
ATOM      8  C   UNL     1       0.161 -11.952   3.246  0.00  0.00    -0.004 A 
ATOM      9  S   UNL     1       0.141 -10.181   3.128  0.00  0.00    -0.077 S 
ATOM     10  C   UNL     1       0.173 -13.099   4.220  0.00  0.00    +0.043 C 
ATOM     11  C   UNL     1      -0.239 -14.328   3.380  0.00  0.00    +0.010 C 
ATOM     12  C   UNL     1       0.203 -13.904   1.964  0.00  0.00    +0.037 C 
BRANCH   6  13
ATOM     13  C   UNL     1       0.168 -11.582  -0.456  0.00  0.00    +0.247 C 
ATOM     14  O   UNL     1       1.226 -11.683  -1.050  0.00  0.00    -0.270 OA
ATOM     15  N   UNL     1      -0.995 -11.731  -1.121  0.00  0.00    -0.309 N 
ATOM     16  H   UNL     1      -1.837 -11.651  -0.647  0.00  0.00    +0.149 HD
BRANCH  15  17
ATOM     17  C   UNL     1      -0.986 -12.014  -2.558  0.00  0.00    +0.136 C 
BRANCH  17  18
ATOM     18  C   UNL     1      -2.425 -12.136  -3.063  0.00  0.00    +0.135 C 
ATOM     19  C   UNL     1      -2.438 -12.470  -4.575  0.00  0.00    +0.035 C 
ATOM     20  C   UNL     1      -3.822 -13.161  -4.713  0.00  0.00    +0.031 C 
ATOM     21  C   UNL     1      -3.960 -13.890  -3.359  0.00  0.00    +0.160 C 
ATOM     22  O   UNL     1      -3.085 -13.242  -2.426  0.00  0.00    -0.375 OA
ENDBRANCH  17  18
ENDBRANCH  15  17
ENDBRANCH   6  13
ENDBRANCH   3   5
BRANCH   1  25
ATOM     23  C   UNL     1       0.060  -4.260  -0.033  0.00  0.00    +0.097 A 
ATOM     24  C   UNL     1       0.071  -5.100   1.095  0.00  0.00    +0.062 A 
ATOM     25  C   UNL     1       0.088  -6.387   0.591  0.00  0.00    +0.121 A 
ATOM     26  N   UNL     1       0.086  -6.269  -0.771  0.00  0.00    -0.272 N 
ATOM     27  H   UNL     1       0.096  -7.012  -1.395  0.00  0.00    +0.189 HD
ATOM     28  N   UNL     1       0.064  -5.028  -1.101  0.00  0.00    -0.173 NA
BRANCH  23  33
ATOM     29  C   UNL     1      -0.018   1.503   0.010  0.00  0.00    +0.044 C 
ATOM     30  C   UNL     1       0.002  -0.004   0.002  0.00  0.00    -0.047 A 
ATOM     31  C   UNL     1       0.006  -0.686  -1.202  0.00  0.00    +0.007 A 
ATOM     32  C   UNL     1       0.024  -2.066  -1.219  0.00  0.00    -0.037 A 
ATOM     33  C   UNL     1       0.040  -2.776  -0.020  0.00  0.00    +0.046 A 
ATOM     34  C   UNL     1       0.037  -2.084   1.194  0.00  0.00    +0.127 A 
ATOM     35  C   UNL     1       0.023  -0.698   1.197  0.00  0.00    +0.049 A 
ATOM     36  C   UNL     1       0.027  -2.805  -2.532  0.00  0.00    +0.044 C 
BRANCH  34  37
ATOM     37  O   UNL     1       0.052  -2.768   2.368  0.00  0.00    -0.506 OA
ATOM     38  H   UNL     1       0.940  -2.954   2.703  0.00  0.00    +0.292 HD
ENDBRANCH  34  37
ENDBRANCH  23  33
ENDBRANCH   1  25
TORSDOF 7
