REMARK  Name = ZINC12897728
REMARK  9 active torsions:
REMARK  status: ('A' for Active; 'I' for Inactive)
REMARK    1  A    between atoms: C_1  and  C_2
REMARK    2  A    between atoms: C_9  and  N_14
REMARK    3  A    between atoms: C_15  and  C_17
REMARK    4  A    between atoms: C_17  and  C_19
REMARK    5  A    between atoms: C_17  and  N_23
REMARK    6  A    between atoms: C_19  and  C_20
REMARK    7  A    between atoms: C_20  and  S_21
REMARK    8  A    between atoms: S_21  and  C_22
REMARK    9  A    between atoms: C_24  and  C_26
REMARK                            x       y       z     vdW  Elec       q    Type
REMARK                         _______ _______ _______ _____ _____    ______ ____
ROOT
ATOM      1  N   UNL     1      -0.660   2.995   3.911  0.00  0.00    -0.284 N 
ATOM      2  C   UNL     1      -0.478   1.662   3.829  0.00  0.00    +0.238 C 
ATOM      3  O   UNL     1      -0.816   0.946   4.748  0.00  0.00    -0.273 OA
ATOM      4  H   UNL     1      -0.321   3.574   3.211  0.00  0.00    +0.155 HD
ENDROOT
BRANCH   1  12
ATOM      5  C   UNL     1      -5.226   5.213   9.751  0.00  0.00    +0.062 C 
ATOM      6  C   UNL     1      -4.728   4.831   8.356  0.00  0.00    +0.256 C 
ATOM      7  C   UNL     1      -4.912   3.349   8.146  0.00  0.00    +0.258 C 
ATOM      8  O   UNL     1      -5.803   2.759   8.720  0.00  0.00    -0.271 OA
ATOM      9  N   UNL     1      -4.081   2.682   7.317  0.00  0.00    -0.279 N 
ATOM     10  C   UNL     1      -3.038   3.381   6.693  0.00  0.00    +0.077 A 
ATOM     11  C   UNL     1      -2.373   2.837   5.607  0.00  0.00    +0.050 A 
ATOM     12  C   UNL     1      -1.338   3.543   5.007  0.00  0.00    +0.035 A 
ATOM     13  C   UNL     1      -0.980   4.795   5.490  0.00  0.00    +0.027 A 
ATOM     14  C   UNL     1      -1.647   5.340   6.571  0.00  0.00    +0.049 A 
ATOM     15  C   UNL     1      -2.676   4.638   7.174  0.00  0.00    +0.143 A 
ATOM     16  O   UNL     1      -3.342   5.164   8.238  0.00  0.00    -0.478 OA
ATOM     17  H   UNL     1      -4.204   1.734   7.155  0.00  0.00    +0.155 HD
ENDBRANCH   1  12
BRANCH   2  18
ATOM     18  C   UNL     1       0.145   1.061   2.596  0.00  0.00    +0.160 C 
BRANCH  18  19
ATOM     19  N   UNL     1       0.233  -0.393   2.752  0.00  0.00    -0.300 N 
ATOM     20  C   UNL     1       1.162  -1.090   2.068  0.00  0.00    +0.246 C 
ATOM     21  O   UNL     1       1.927  -0.512   1.321  0.00  0.00    -0.270 OA
ATOM     22  H   UNL     1      -0.378  -0.855   3.348  0.00  0.00    +0.150 HD
BRANCH  20  23
ATOM     23  C   UNL     1       1.250  -2.556   2.226  0.00  0.00    +0.055 A 
ATOM     24  C   UNL     1       0.372  -3.223   3.083  0.00  0.00    +0.016 A 
ATOM     25  C   UNL     1       0.459  -4.591   3.226  0.00  0.00    +0.021 A 
ATOM     26  C   UNL     1       1.416  -5.306   2.521  0.00  0.00    +0.042 A 
ATOM     27  C   UNL     1       2.289  -4.651   1.671  0.00  0.00    +0.040 A 
ATOM     28  C   UNL     1       2.209  -3.282   1.514  0.00  0.00    +0.054 A 
ATOM     29 CL   UNL     1       3.300  -2.463   0.440  0.00  0.00    -0.083 Cl
ATOM     30 CL   UNL     1       1.518  -7.029   2.708  0.00  0.00    -0.083 Cl
ENDBRANCH  20  23
ENDBRANCH  18  19
BRANCH  18  31
ATOM     31  C   UNL     1      -0.717   1.391   1.376  0.00  0.00    +0.042 C 
BRANCH  31  32
ATOM     32  C   UNL     1      -0.021   0.889   0.109  0.00  0.00    +0.071 C 
BRANCH  32  33
ATOM     33  S   UNL     1      -1.044   1.282  -1.337  0.00  0.00    -0.164 S 
ATOM     34  C   UNL     1      -0.092   0.629  -2.737  0.00  0.00    +0.084 C 
ENDBRANCH  32  33
ENDBRANCH  31  32
ENDBRANCH  18  31
ENDBRANCH   2  18
TORSDOF 7
