REMARK  Name = ZINC43130738
REMARK  4 active torsions:
REMARK  status: ('A' for Active; 'I' for Inactive)
REMARK    1  A    between atoms: C_1  and  C_2
REMARK    2  A    between atoms: C_2  and  C_4
REMARK    3  A    between atoms: C_2  and  N_9
REMARK    4  A    between atoms: N_9  and  C_10
REMARK                            x       y       z     vdW  Elec       q    Type
REMARK                         _______ _______ _______ _____ _____    ______ ____
ROOT
ATOM      1  N   UNL     1       0.688  -0.476  -1.203  0.00  0.00    -0.281 N 
ATOM      2  C   UNL     1       2.083  -0.102  -1.446  0.00  0.00    +0.134 C 
ATOM      3  C   UNL     1       0.035  -1.255  -2.088  0.00  0.00    +0.308 C 
ATOM      4  O   UNL     1      -1.123  -1.566  -1.887  0.00  0.00    -0.252 OA
ATOM      5  N   UNL     1       0.666  -1.690  -3.197  0.00  0.00    -0.247 N 
ATOM      6  C   UNL     1      -0.008  -2.494  -4.111  0.00  0.00    +0.189 A 
ATOM      7  N   UNL     1      -1.252  -2.930  -4.076  0.00  0.00    -0.126 NA
ATOM      8  N   UNL     1      -1.729  -3.661  -4.989  0.00  0.00    -0.148 NA
ATOM      9  C   UNL     1      -0.963  -3.998  -6.007  0.00  0.00    +0.183 A 
ATOM     10  S   UNL     1       0.550  -3.159  -5.556  0.00  0.00    -0.039 S 
ATOM     11  H   UNL     1       1.590  -1.442  -3.358  0.00  0.00    +0.158 HD
ENDROOT
BRANCH   1  13
ATOM     12  C   UNL     1      -0.019   1.526   0.010  0.00  0.00    +0.034 C 
ATOM     13  C   UNL     1       0.002  -0.004   0.002  0.00  0.00    +0.111 C 
BRANCH  13  14
ATOM     14  C   UNL     1       0.731  -0.503   1.223  0.00  0.00    +0.010 A 
ATOM     15  C   UNL     1       0.222  -0.979   2.386  0.00  0.00    +0.013 A 
ATOM     16  C   UNL     1       1.091  -1.386   3.381  0.00  0.00    +0.008 A 
ATOM     17  C   UNL     1       2.426  -1.298   3.164  0.00  0.00    +0.045 A 
ATOM     18  S   UNL     1       2.489  -0.629   1.510  0.00  0.00    -0.100 S 
ENDBRANCH  13  14
ENDBRANCH   1  13
TORSDOF 2
