REMARK  Name = ZINC36113051
REMARK  6 active torsions:
REMARK  status: ('A' for Active; 'I' for Inactive)
REMARK    1  A    between atoms: C_1  and  C_2
REMARK    2  A    between atoms: C_5  and  S_9
REMARK    3  A    between atoms: S_9  and  N_12
REMARK    4  A    between atoms: N_12  and  C_13
REMARK    5  A    between atoms: C_13  and  C_14
REMARK    6  A    between atoms: C_14  and  C_15
REMARK                            x       y       z     vdW  Elec       q    Type
REMARK                         _______ _______ _______ _____ _____    ______ ____
ROOT
ATOM      1  N   UNL     1       1.651  -5.000  -0.035  0.00  0.00    -0.190 NA
ATOM      2  H   UNL     1       2.012  -5.473  -0.801  0.00  0.00    +0.148 HD
ENDROOT
BRANCH   1   3
ATOM      3  S   UNL     1       0.063  -4.531  -0.024  0.00  0.00    +0.058 S 
ATOM      4  O   UNL     1      -0.476  -4.952   1.221  0.00  0.00    -0.153 OA
ATOM      5  O   UNL     1      -0.489  -4.937  -1.270  0.00  0.00    -0.153 OA
BRANCH   3  10
ATOM      6  C   UNL     1      -0.018   1.503   0.010  0.00  0.00    +0.045 C 
ATOM      7  C   UNL     1       0.002  -0.004   0.002  0.00  0.00    -0.032 A 
ATOM      8  C   UNL     1       0.006  -0.689  -1.199  0.00  0.00    +0.007 A 
ATOM      9  C   UNL     1       0.025  -2.071  -1.207  0.00  0.00    +0.029 A 
ATOM     10  C   UNL     1       0.040  -2.769  -0.013  0.00  0.00    +0.107 A 
ATOM     11  C   UNL     1       0.036  -2.086   1.188  0.00  0.00    +0.048 A 
ATOM     12  C   UNL     1       0.023  -0.702   1.196  0.00  0.00    +0.046 A 
ATOM     13 CL   UNL     1       0.025   0.157   2.704  0.00  0.00    -0.083 Cl
ENDBRANCH   3  10
ENDBRANCH   1   3
BRANCH   1  14
ATOM     14  C   UNL     1       2.511  -4.700   1.112  0.00  0.00    +0.112 C 
BRANCH  14  15
ATOM     15  C   UNL     1       3.787  -5.541   1.028  0.00  0.00    +0.073 C 
BRANCH  15  16
ATOM     16  C   UNL     1       4.671  -5.232   2.208  0.00  0.00    +0.054 A 
ATOM     17  C   UNL     1       4.617  -6.007   3.293  0.00  0.00    +0.072 A 
ATOM     18  S   UNL     1       5.824  -5.227   4.355  0.00  0.00    -0.056 S 
ATOM     19  C   UNL     1       6.301  -3.923   3.247  0.00  0.00    +0.195 A 
ATOM     20  N   UNL     1       5.529  -4.160   2.152  0.00  0.00    -0.211 N 
ATOM     21  N   UNL     1       5.893  -3.133   1.243  0.00  0.00    -0.153 NA
ATOM     22  C   UNL     1       6.807  -2.398   1.818  0.00  0.00    +0.246 A 
ATOM     23  N   UNL     1       7.048  -2.874   3.038  0.00  0.00    -0.208 NA
ENDBRANCH  15  16
ENDBRANCH  14  15
ENDBRANCH   1  14
TORSDOF 5
