REMARK  Name = ZINC04150299
REMARK  9 active torsions:
REMARK  status: ('A' for Active; 'I' for Inactive)
REMARK    1  A    between atoms: C_1  and  C_2
REMARK    2  A    between atoms: C_2  and  C_3
REMARK    3  A    between atoms: C_2  and  S_4
REMARK    4  A    between atoms: S_4  and  C_5
REMARK    5  A    between atoms: C_16  and  C_18
REMARK    6  A    between atoms: C_21  and  O_24
REMARK    7  A    between atoms: O_24  and  C_25
REMARK    8  A    between atoms: C_29  and  C_31
REMARK    9  A    between atoms: C_29  and  C_32
REMARK                            x       y       z     vdW  Elec       q    Type
REMARK                         _______ _______ _______ _____ _____    ______ ____
ROOT
ATOM      1  C   UNL     1      -8.325   1.403  -1.358  0.00  0.00    +0.171 A 
ATOM      2  N   UNL     1      -7.967   2.265  -0.366  0.00  0.00    -0.302 N 
ATOM      3  H   UNL     1      -8.247   3.224  -0.414  0.00  0.00    +0.171 HD
ATOM      4  C   UNL     1      -7.235   1.828   0.680  0.00  0.00    +0.258 A 
ATOM      5  O   UNL     1      -6.908   2.593   1.573  0.00  0.00    -0.267 OA
ATOM      6  C   UNL     1      -6.858   0.479   0.721  0.00  0.00    +0.069 A 
ATOM      7  C   UNL     1      -7.252  -0.355  -0.309  0.00  0.00    +0.135 A 
ATOM      8  N   UNL     1      -7.974   0.133  -1.323  0.00  0.00    -0.208 NA
ATOM      9  N   UNL     1      -6.896  -1.689  -0.282  0.00  0.00    -0.302 N 
ATOM     10  C   UNL     1      -6.518  -2.285   0.890  0.00  0.00    +0.017 C 
ATOM     11  C   UNL     1      -6.104  -1.548   1.942  0.00  0.00    +0.024 C 
ATOM     12  C   UNL     1      -6.042  -0.043   1.866  0.00  0.00    +0.092 C 
ATOM     13  C   UNL     1      -5.713  -2.160   3.146  0.00  0.00    +0.162 C 
ATOM     14  O   UNL     1      -5.363  -1.467   4.081  0.00  0.00    -0.292 OA
ATOM     15  C   UNL     1      -5.719  -3.656   3.300  0.00  0.00    +0.086 C 
ATOM     16  C   UNL     1      -5.497  -4.299   1.927  0.00  0.00    -0.023 C 
ATOM     17  C   UNL     1      -6.581  -3.792   0.975  0.00  0.00    +0.058 C 
ATOM     18  C   UNL     1      -4.117  -3.908   1.393  0.00  0.00    +0.011 C 
ATOM     19  C   UNL     1      -5.589  -5.821   2.050  0.00  0.00    +0.011 C 
ATOM     20  H   UNL     1      -6.914  -2.208  -1.101  0.00  0.00    +0.153 HD
ENDROOT
BRANCH  12  21
ATOM     21  C   UNL     1      -4.608   0.382   1.683  0.00  0.00    -0.035 A 
ATOM     22  C   UNL     1      -3.999   1.183   2.632  0.00  0.00    +0.008 A 
ATOM     23  C   UNL     1      -2.685   1.574   2.467  0.00  0.00    +0.046 A 
ATOM     24  C   UNL     1      -1.975   1.163   1.348  0.00  0.00    +0.120 A 
ATOM     25  C   UNL     1      -2.589   0.364   0.395  0.00  0.00    +0.046 A 
ATOM     26  C   UNL     1      -3.902  -0.029   0.567  0.00  0.00    +0.008 A 
BRANCH  24  27
ATOM     27  O   UNL     1      -0.682   1.547   1.184  0.00  0.00    -0.495 OA
ATOM     28  C   UNL     1      -0.013   1.086   0.008  0.00  0.00    +0.277 C 
ENDBRANCH  24  27
ENDBRANCH  12  21
BRANCH   1  29
ATOM     29  S   UNL     1      -9.277   1.998  -2.717  0.00  0.00    -0.085 S 
BRANCH  29  31
ATOM     30  C   UNL     1     -10.360   0.720  -4.875  0.00  0.00    +0.019 C 
ATOM     31  C   UNL     1      -9.443   0.472  -3.676  0.00  0.00    +0.048 C 
ATOM     32  C   UNL     1      -8.065   0.029  -4.172  0.00  0.00    +0.019 C 
ENDBRANCH  29  31
ENDBRANCH   1  29
TORSDOF 4
