REMARK  Name = ZINC42146182
REMARK  10 active torsions:
REMARK  status: ('A' for Active; 'I' for Inactive)
REMARK    1  A    between atoms: C_1  and  C_2
REMARK    2  A    between atoms: C_2  and  N_3
REMARK    3  A    between atoms: N_3  and  C_4
REMARK    4  A    between atoms: N_3  and  C_12
REMARK    5  A    between atoms: C_4  and  C_5
REMARK    6  A    between atoms: C_9  and  C_11
REMARK    7  A    between atoms: C_12  and  C_13
REMARK    8  A    between atoms: N_15  and  C_16
REMARK    9  A    between atoms: C_19  and  C_25
REMARK   10  A    between atoms: C_26  and  C_28
REMARK                            x       y       z     vdW  Elec       q    Type
REMARK                         _______ _______ _______ _____ _____    ______ ____
ROOT
ATOM      1  C   UNL     1      -0.052   1.493   2.253  0.00  0.00    +0.203 C 
ATOM      2  O   UNL     1       0.462   2.117   1.349  0.00  0.00    -0.277 OA
ATOM      3  N   UNL     1      -0.726   2.143   3.223  0.00  0.00    -0.257 N 
ATOM      4  H   UNL     1      -1.137   1.643   3.946  0.00  0.00    +0.158 HD
ENDROOT
BRANCH   3   5
ATOM      5  C   UNL     1      -0.831   3.523   3.188  0.00  0.00    +0.206 A 
ATOM      6  C   UNL     1      -1.481   4.305   4.111  0.00  0.00    +0.110 A 
ATOM      7  C   UNL     1      -1.314   5.702   3.638  0.00  0.00    +0.053 A 
ATOM      8  C   UNL     1      -1.915   6.770   4.441  0.00  0.00    +0.070 A 
ATOM      9  N   UNL     1      -2.565   6.472   5.524  0.00  0.00    -0.175 NA
ATOM     10  N   UNL     1      -2.735   5.170   5.987  0.00  0.00    -0.242 N 
ATOM     11  H   UNL     1      -3.235   5.030   6.807  0.00  0.00    +0.192 HD
ATOM     12  C   UNL     1      -2.233   4.095   5.344  0.00  0.00    +0.277 A 
ATOM     13  O   UNL     1      -2.405   2.972   5.783  0.00  0.00    -0.266 OA
ATOM     14  C   UNL     1      -1.779   8.208   4.011  0.00  0.00    +0.068 C 
ATOM     15  C   UNL     1      -0.594   5.619   2.499  0.00  0.00    +0.114 A 
ATOM     16  O   UNL     1      -0.311   4.328   2.248  0.00  0.00    -0.445 OA
ATOM     17  C   UNL     1      -0.170   6.788   1.648  0.00  0.00    +0.087 C 
ENDBRANCH   3   5
BRANCH   1  18
ATOM     18  C   UNL     1       0.062  -0.009   2.292  0.00  0.00    +0.019 C 
BRANCH  18  19
ATOM     19  N   UNL     1       0.963  -0.459   1.223  0.00  0.00    +0.388 N 
ATOM     20  H   UNL     1       0.656  -0.076   0.341  0.00  0.00    -0.081 HD
BRANCH  19  22
ATOM     21  C   UNL     1      -0.448  -2.399   0.728  0.00  0.00    -0.017 C 
ATOM     22  C   UNL     1       0.944  -1.927   1.152  0.00  0.00    -0.081 C 
ENDBRANCH  19  22
BRANCH  19  23
ATOM     23  C   UNL     1       2.329  -0.000   1.508  0.00  0.00    -0.042 C 
BRANCH  23  24
ATOM     24  C   UNL     1       3.229  -0.355   0.352  0.00  0.00    -0.064 A 
ATOM     25  C   UNL     1       3.884  -1.573   0.335  0.00  0.00    +0.002 A 
ATOM     26  C   UNL     1       4.710  -1.898  -0.724  0.00  0.00    +0.000 A 
ATOM     27  C   UNL     1       4.881  -1.006  -1.767  0.00  0.00    +0.003 A 
ATOM     28  C   UNL     1       4.226   0.210  -1.750  0.00  0.00    -0.050 A 
ATOM     29  C   UNL     1       3.396   0.534  -0.692  0.00  0.00    +0.005 A 
ATOM     30  C   UNL     1       4.412   1.183  -2.886  0.00  0.00    +0.044 C 
ENDBRANCH  23  24
ENDBRANCH  19  23
ENDBRANCH  18  19
ENDBRANCH   1  18
TORSDOF 6
