REMARK  Name = ZINC63437328
REMARK  13 active torsions:
REMARK  status: ('A' for Active; 'I' for Inactive)
REMARK    1  A    between atoms: C_1  and  C_2
REMARK    2  A    between atoms: C_2  and  N_3
REMARK    3  A    between atoms: N_3  and  C_4
REMARK    4  A    between atoms: N_3  and  C_6
REMARK    5  A    between atoms: C_4  and  C_5
REMARK    6  A    between atoms: C_6  and  C_7
REMARK    7  A    between atoms: C_7  and  N_8
REMARK    8  A    between atoms: C_9  and  C_11
REMARK    9  A    between atoms: C_11  and  C_13
REMARK   10  A    between atoms: C_11  and  N_23
REMARK   11  A    between atoms: C_13  and  C_14
REMARK   12  A    between atoms: C_24  and  C_26
REMARK   13  A    between atoms: C_29  and  C_32
REMARK                            x       y       z     vdW  Elec       q    Type
REMARK                         _______ _______ _______ _____ _____    ______ ____
ROOT
ATOM      1  C   UNL     1      -3.947  -5.019   0.926  0.00  0.00    +0.163 C 
ENDROOT
BRANCH   1   3
ATOM      2  N   UNL     1      -2.698  -3.008   0.211  0.00  0.00    -0.316 N 
ATOM      3  C   UNL     1      -3.888  -3.617   0.377  0.00  0.00    +0.234 C 
ATOM      4  O   UNL     1      -4.912  -3.036   0.086  0.00  0.00    -0.274 OA
ATOM      5  H   UNL     1      -1.879  -3.472   0.444  0.00  0.00    +0.149 HD
BRANCH   2   6
ATOM      6  C   UNL     1      -2.641  -1.644  -0.322  0.00  0.00    +0.086 C 
BRANCH   6   7
ATOM      7  C   UNL     1      -1.182  -1.192  -0.410  0.00  0.00    -0.060 C 
BRANCH   7   8
ATOM      8  N   UNL     1      -1.119   0.144  -1.018  0.00  0.00    +0.380 N 
ATOM      9  H   UNL     1      -1.607   0.135  -1.901  0.00  0.00    -0.082 HD
BRANCH   8  11
ATOM     10  C   UNL     1      -1.796   2.488  -0.806  0.00  0.00    -0.017 C 
ATOM     11  C   UNL     1      -1.750   1.121  -0.121  0.00  0.00    -0.082 C 
ENDBRANCH   8  11
BRANCH   8  12
ATOM     12  C   UNL     1       0.285   0.516  -1.239  0.00  0.00    -0.082 C 
ATOM     13  C   UNL     1       0.899  -0.410  -2.290  0.00  0.00    -0.017 C 
ENDBRANCH   8  12
ENDBRANCH   7   8
ENDBRANCH   6   7
ENDBRANCH   2   6
ENDBRANCH   1   3
BRANCH   1  14
ATOM     14  N   UNL     1      -5.344  -5.452   1.010  0.00  0.00    -0.300 N 
ATOM     15  C   UNL     1      -5.646  -6.765   0.966  0.00  0.00    +0.245 C 
ATOM     16  O   UNL     1      -4.760  -7.590   0.856  0.00  0.00    -0.270 OA
ATOM     17  H   UNL     1      -6.051  -4.795   1.098  0.00  0.00    +0.150 HD
BRANCH  15  18
ATOM     18  C   UNL     1      -7.056  -7.202   1.051  0.00  0.00    +0.037 A 
ATOM     19  C   UNL     1      -8.077  -6.258   1.171  0.00  0.00    +0.013 A 
ATOM     20  C   UNL     1      -9.390  -6.673   1.250  0.00  0.00    +0.005 A 
ATOM     21  C   UNL     1      -9.697  -8.021   1.210  0.00  0.00    -0.041 A 
ATOM     22  C   UNL     1      -8.690  -8.963   1.091  0.00  0.00    +0.005 A 
ATOM     23  C   UNL     1      -7.373  -8.561   1.005  0.00  0.00    +0.013 A 
BRANCH  21  24
ATOM     24  C   UNL     1     -11.134  -8.467   1.296  0.00  0.00    -0.003 C 
ATOM     25  C   UNL     1     -11.924  -7.871   0.129  0.00  0.00    +0.015 C 
ATOM     26  C   UNL     1     -13.383  -8.324   0.217  0.00  0.00    -0.010 C 
ATOM     27  C   UNL     1     -13.448  -9.851   0.150  0.00  0.00    +0.007 C 
ATOM     28  C   UNL     1     -12.658 -10.447   1.318  0.00  0.00    -0.010 C 
ATOM     29  C   UNL     1     -11.199  -9.994   1.230  0.00  0.00    +0.015 C 
ATOM     30  C   UNL     1     -13.262  -9.967   2.639  0.00  0.00    +0.007 C 
ATOM     31  C   UNL     1     -13.196  -8.440   2.706  0.00  0.00    -0.010 C 
ATOM     32  C   UNL     1     -13.986  -7.845   1.539  0.00  0.00    +0.007 C 
ATOM     33  C   UNL     1     -11.738  -7.988   2.618  0.00  0.00    +0.015 C 
ENDBRANCH  21  24
ENDBRANCH  15  18
ENDBRANCH   1  14
BRANCH   1  34
ATOM     34  C   UNL     1      -3.319  -5.048   2.321  0.00  0.00    +0.065 C 
BRANCH  34  35
ATOM     35  C   UNL     1      -4.080  -4.122   3.233  0.00  0.00    -0.039 C 
ATOM     36  C   UNL     1      -5.099  -4.451   4.060  0.00  0.00    -0.001 A 
ATOM     37  C   UNL     1      -5.778  -5.721   4.345  0.00  0.00    +0.010 A 
ATOM     38  C   UNL     1      -6.789  -5.737   5.243  0.00  0.00    +0.001 A 
ATOM     39  C   UNL     1      -7.204  -4.574   5.907  0.00  0.00    +0.002 A 
ATOM     40  C   UNL     1      -6.630  -3.371   5.698  0.00  0.00    +0.026 A 
ATOM     41  C   UNL     1      -5.556  -3.237   4.774  0.00  0.00    +0.043 A 
ATOM     42  N   UNL     1      -4.848  -2.199   4.404  0.00  0.00    -0.380 N 
ATOM     43  C   UNL     1      -3.856  -2.637   3.416  0.00  0.00    +0.144 C 
ATOM     44  H   UNL     1      -4.958  -1.292   4.731  0.00  0.00    +0.160 HD
ENDBRANCH  34  35
ENDBRANCH   1  34
TORSDOF 11
