REMARK  Name = ZINC54681254
REMARK  4 active torsions:
REMARK  status: ('A' for Active; 'I' for Inactive)
REMARK    1  A    between atoms: C_4  and  O_22
REMARK    2  A    between atoms: C_5  and  C_7
REMARK    3  A    between atoms: O_22  and  C_23
REMARK    4  A    between atoms: C_23  and  C_24
REMARK                            x       y       z     vdW  Elec       q    Type
REMARK                         _______ _______ _______ _____ _____    ______ ____
ROOT
ATOM      1  C   UNL     1       1.192  -2.186  -0.030  0.00  0.00    +0.212 C 
ATOM      2  N   UNL     1       1.410  -2.701   1.334  0.00  0.00    -0.294 N 
ATOM      3  C   UNL     1       0.319  -2.748   2.191  0.00  0.00    +0.159 C 
ATOM      4  N   UNL     1      -0.823  -3.388   1.706  0.00  0.00    -0.259 N 
ATOM      5  C   UNL     1      -1.049  -3.240   0.340  0.00  0.00    +0.205 A 
ATOM      6  N   UNL     1      -0.107  -2.683  -0.497  0.00  0.00    -0.288 N 
ATOM      7  C   UNL     1      -0.628  -2.697  -1.759  0.00  0.00    +0.072 A 
ATOM      8  C   UNL     1      -0.136  -2.278  -2.990  0.00  0.00    +0.028 A 
ATOM      9  C   UNL     1      -0.961  -2.448  -4.090  0.00  0.00    +0.002 A 
ATOM     10  C   UNL     1      -2.222  -3.009  -3.983  0.00  0.00    +0.002 A 
ATOM     11  C   UNL     1      -2.734  -3.434  -2.770  0.00  0.00    +0.030 A 
ATOM     12  C   UNL     1      -1.918  -3.273  -1.645  0.00  0.00    +0.091 A 
ATOM     13  N   UNL     1      -2.110  -3.577  -0.342  0.00  0.00    -0.214 NA
ATOM     14  N   UNL     1       0.359  -2.225   3.383  0.00  0.00    -0.375 N 
ATOM     15  H   UNL     1       2.287  -2.997   1.624  0.00  0.00    +0.151 HD
ATOM     16  H   UNL     1       1.167  -1.787   3.694  0.00  0.00    +0.158 HD
ATOM     17  H   UNL     1      -1.416  -3.898   2.279  0.00  0.00    +0.158 HD
ATOM     18  H   UNL     1      -0.419  -2.273   3.960  0.00  0.00    +0.158 HD
ENDROOT
BRANCH   1  23
ATOM     19  C   UNL     1      -0.017   1.390  -0.058  0.00  0.00    +0.001 A 
ATOM     20  C   UNL     1       1.174   2.088   0.020  0.00  0.00    +0.004 A 
ATOM     21  C   UNL     1       2.373   1.406   0.081  0.00  0.00    +0.046 A 
ATOM     22  C   UNL     1       2.382   0.019   0.065  0.00  0.00    +0.128 A 
ATOM     23  C   UNL     1       1.186  -0.679  -0.012  0.00  0.00    +0.035 A 
ATOM     24  C   UNL     1      -0.011   0.008  -0.074  0.00  0.00    +0.011 A 
BRANCH  22  25
ATOM     25  O   UNL     1       3.561  -0.655   0.125  0.00  0.00    -0.487 OA
BRANCH  25  26
ATOM     26  C   UNL     1       4.757   0.126   0.084  0.00  0.00    +0.266 C 
BRANCH  26  27
ATOM     27  C   UNL     1       5.954  -0.790   0.041  0.00  0.00    +0.008 A 
ATOM     28  C   UNL     1       6.612  -1.142   1.209  0.00  0.00    +0.010 A 
ATOM     29  C   UNL     1       7.707  -1.986   1.121  0.00  0.00    +0.020 A 
ATOM     30  C   UNL     1       8.104  -2.447  -0.120  0.00  0.00    +0.111 A 
ATOM     31  N   UNL     1       7.455  -2.091  -1.211  0.00  0.00    -0.263 NA
ATOM     32  C   UNL     1       6.405  -1.294  -1.164  0.00  0.00    +0.117 A 
ENDBRANCH  26  27
ENDBRANCH  25  26
ENDBRANCH  22  25
ENDBRANCH   1  23
TORSDOF 4
