REMARK  Name = ZINC22708832
REMARK  6 active torsions:
REMARK  status: ('A' for Active; 'I' for Inactive)
REMARK    1  A    between atoms: C_1  and  N_2
REMARK    2  A    between atoms: C_8  and  C_16
REMARK    3  A    between atoms: N_18  and  C_19
REMARK    4  A    between atoms: C_22  and  N_25
REMARK    5  A    between atoms: N_25  and  C_26
REMARK    6  A    between atoms: N_25  and  C_27
REMARK                            x       y       z     vdW  Elec       q    Type
REMARK                         _______ _______ _______ _____ _____    ______ ____
ROOT
ATOM      1  C   UNL     1       0.709   1.484  -0.365  0.00  0.00    +0.105 C 
ATOM      2  N   UNL     1       0.667   0.017  -0.299  0.00  0.00    -0.300 NA
ATOM      3  C   UNL     1      -0.720  -0.469  -0.263  0.00  0.00    +0.089 C 
ATOM      4  C   UNL     1      -0.759  -1.967  -0.571  0.00  0.00    +0.052 C 
ATOM      5  C   UNL     1       0.229  -2.673   0.355  0.00  0.00    -0.026 A 
ATOM      6  C   UNL     1       0.203  -4.105   0.616  0.00  0.00    +0.010 A 
ATOM      7  C   UNL     1      -0.709  -5.039   0.071  0.00  0.00    +0.027 A 
ATOM      8  C   UNL     1      -0.533  -6.367   0.471  0.00  0.00    +0.075 A 
ATOM      9  C   UNL     1       0.490  -6.740   1.362  0.00  0.00    +0.107 A 
ATOM     10  N   UNL     1       1.340  -5.848   1.866  0.00  0.00    -0.337 N 
ATOM     11  C   UNL     1       1.199  -4.590   1.506  0.00  0.00    +0.087 A 
ATOM     12  S   UNL     1       2.102  -3.135   1.942  0.00  0.00    -0.074 S 
ATOM     13  C   UNL     1       1.190  -1.957   0.980  0.00  0.00    +0.010 A 
ATOM     14  C   UNL     1       1.420  -0.481   0.867  0.00  0.00    +0.126 C 
ATOM     15  N   UNL     1       0.616  -8.070   1.723  0.00  0.00    -0.344 N 
ATOM     16  H   UNL     1       0.048  -8.740   1.312  0.00  0.00    +0.144 HD
ATOM     17  H   UNL     1       1.271  -8.332   2.389  0.00  0.00    +0.144 HD
ATOM     18  H   UNL     1       2.041  -6.118   2.479  0.00  0.00    +0.168 HD
ENDROOT
BRANCH   8  19
ATOM     19  C   UNL     1      -1.443  -7.401  -0.052  0.00  0.00    +0.252 C 
ATOM     20  O   UNL     1      -1.024  -8.519  -0.282  0.00  0.00    -0.270 OA
ATOM     21  N   UNL     1      -2.739  -7.107  -0.274  0.00  0.00    -0.281 N 
ATOM     22  H   UNL     1      -3.059  -6.200  -0.152  0.00  0.00    +0.155 HD
BRANCH  21  23
ATOM     23  C   UNL     1      -3.624  -8.113  -0.683  0.00  0.00    +0.034 A 
ATOM     24  C   UNL     1      -4.944  -8.095  -0.250  0.00  0.00    +0.025 A 
ATOM     25  C   UNL     1      -5.816  -9.086  -0.653  0.00  0.00    +0.025 A 
ATOM     26  C   UNL     1      -5.375 -10.102  -1.491  0.00  0.00    +0.029 A 
ATOM     27  C   UNL     1      -4.055 -10.120  -1.924  0.00  0.00    +0.025 A 
ATOM     28  C   UNL     1      -3.184  -9.126  -1.525  0.00  0.00    +0.025 A 
BRANCH  26  29
ATOM     29  N   UNL     1      -6.259 -11.106  -1.899  0.00  0.00    -0.336 N 
ATOM     30  C   UNL     1      -7.676 -11.025  -1.539  0.00  0.00    +0.129 C 
ATOM     31  C   UNL     1      -5.766 -12.240  -2.686  0.00  0.00    +0.129 C 
ENDBRANCH  26  29
ENDBRANCH  21  23
ENDBRANCH   8  19
TORSDOF 3
