REMARK  Name = ZINC07092838
REMARK  11 active torsions:
REMARK  status: ('A' for Active; 'I' for Inactive)
REMARK    1  A    between atoms: C_1  and  C_2
REMARK    2  A    between atoms: C_6  and  C_29
REMARK    3  A    between atoms: C_7  and  N_8
REMARK    4  A    between atoms: C_9  and  C_11
REMARK    5  A    between atoms: C_11  and  N_12
REMARK    6  A    between atoms: C_13  and  C_15
REMARK    7  A    between atoms: C_15  and  C_17
REMARK    8  A    between atoms: C_15  and  N_52
REMARK    9  A    between atoms: C_18  and  C_20
REMARK   10  A    between atoms: C_18  and  C_21
REMARK   11  A    between atoms: C_18  and  N_52
REMARK                            x       y       z     vdW  Elec       q    Type
REMARK                         _______ _______ _______ _____ _____    ______ ____
ROOT
ATOM      1  N   UNL     1       2.217   2.243  -1.265  0.00  0.00    -0.308 N 
ATOM      2  C   UNL     1       1.436   2.749  -0.290  0.00  0.00    +0.199 C 
ATOM      3  O   UNL     1       1.874   2.876   0.833  0.00  0.00    -0.278 OA
ATOM      4  H   UNL     1       1.866   2.141  -2.164  0.00  0.00    +0.149 HD
ENDROOT
BRANCH   2   5
ATOM      5  C   UNL     1       0.017   3.156  -0.596  0.00  0.00    +0.014 C 
ATOM      6  C   UNL     1       0.019   4.245  -1.670  0.00  0.00    -0.004 C 
BRANCH   5   7
ATOM      7  N   UNL     1      -0.613   3.676   0.632  0.00  0.00    +0.391 N 
ATOM      8  H   UNL     1      -0.386   4.672   0.734  0.00  0.00    -0.084 HD
ATOM      9  H   UNL     1      -0.252   3.159   1.443  0.00  0.00    -0.084 HD
BRANCH   7  10
ATOM     10  C   UNL     1      -2.077   3.515   0.565  0.00  0.00    -0.042 C 
ATOM     11  C   UNL     1      -2.740   4.563   1.462  0.00  0.00    -0.009 C 
BRANCH  10  12
ATOM     12  C   UNL     1      -2.454   2.136   1.040  0.00  0.00    -0.043 A 
ATOM     13  C   UNL     1      -1.618   1.449   1.900  0.00  0.00    +0.005 A 
ATOM     14  C   UNL     1      -1.963   0.184   2.337  0.00  0.00    +0.020 A 
ATOM     15  C   UNL     1      -3.146  -0.396   1.913  0.00  0.00    +0.042 A 
ATOM     16  C   UNL     1      -3.984   0.291   1.053  0.00  0.00    +0.040 A 
ATOM     17  C   UNL     1      -3.640   1.560   0.621  0.00  0.00    +0.044 A 
ATOM     18 CL   UNL     1      -4.694   2.427  -0.452  0.00  0.00    -0.083 Cl
ATOM     19 CL   UNL     1      -3.580  -1.985   2.462  0.00  0.00    -0.083 Cl
ENDBRANCH  10  12
ENDBRANCH   7  10
ENDBRANCH   5   7
ENDBRANCH   2   5
BRANCH   1  20
ATOM     20  C   UNL     1       3.595   1.847  -0.968  0.00  0.00    +0.200 C 
BRANCH  20  22
ATOM     21  N   UNL     1       5.525   0.892  -2.186  0.00  0.00    -0.284 N 
ATOM     22  C   UNL     1       4.247   1.318  -2.220  0.00  0.00    +0.234 C 
ATOM     23  O   UNL     1       3.621   1.275  -3.258  0.00  0.00    -0.274 OA
ATOM     24  H   UNL     1       6.000   0.850  -1.341  0.00  0.00    +0.155 HD
BRANCH  21  31
ATOM     25  C   UNL     1       7.943   2.217  -2.890  0.00  0.00    +0.045 C 
ATOM     26  C   UNL     1       7.349   1.131  -3.750  0.00  0.00    -0.029 A 
ATOM     27  C   UNL     1       7.983   0.748  -4.916  0.00  0.00    +0.005 A 
ATOM     28  C   UNL     1       7.437  -0.245  -5.708  0.00  0.00    +0.001 A 
ATOM     29  C   UNL     1       6.257  -0.861  -5.334  0.00  0.00    +0.005 A 
ATOM     30  C   UNL     1       5.620  -0.486  -4.167  0.00  0.00    -0.029 A 
ATOM     31  C   UNL     1       6.167   0.510  -3.369  0.00  0.00    +0.039 A 
ATOM     32  C   UNL     1       4.335  -1.159  -3.760  0.00  0.00    +0.045 C 
ENDBRANCH  21  31
ENDBRANCH  20  22
ENDBRANCH   1  20
TORSDOF 7
