REMARK  Name = ZINC31254687
REMARK  8 active torsions:
REMARK  status: ('A' for Active; 'I' for Inactive)
REMARK    1  A    between atoms: C_1  and  C_2
REMARK    2  A    between atoms: C_2  and  O_3
REMARK    3  A    between atoms: O_3  and  C_4
REMARK    4  A    between atoms: C_4  and  C_6
REMARK    5  A    between atoms: N_12  and  C_13
REMARK    6  A    between atoms: C_13  and  C_14
REMARK    7  A    between atoms: C_16  and  O_17
REMARK    8  A    between atoms: C_26  and  C_28
REMARK                            x       y       z     vdW  Elec       q    Type
REMARK                         _______ _______ _______ _____ _____    ______ ____
ROOT
ATOM      1  C   UNL     1       0.153   1.360   4.040  0.00  0.00    -0.047 A 
ATOM      2  C   UNL     1      -0.057   2.215   5.075  0.00  0.00    +0.090 A 
ATOM      3  C   UNL     1       1.034   2.660   5.850  0.00  0.00    +0.285 A 
ATOM      4  O   UNL     1       2.291   2.269   5.589  0.00  0.00    -0.425 OA
ATOM      5  C   UNL     1       2.569   1.424   4.572  0.00  0.00    +0.141 A 
ATOM      6  C   UNL     1       1.527   0.937   3.761  0.00  0.00    +0.019 A 
ATOM      7  C   UNL     1       1.811   0.063   2.705  0.00  0.00    +0.013 A 
ATOM      8  C   UNL     1       3.099  -0.317   2.466  0.00  0.00    +0.024 A 
ATOM      9  C   UNL     1       4.136   0.162   3.266  0.00  0.00    +0.037 A 
ATOM     10  C   UNL     1       3.873   1.030   4.316  0.00  0.00    +0.070 A 
ATOM     11  N   UNL     1       5.449  -0.234   3.009  0.00  0.00    -0.286 N 
ATOM     12  C   UNL     1       6.316  -0.397   4.028  0.00  0.00    +0.214 C 
ATOM     13  O   UNL     1       5.934  -0.279   5.173  0.00  0.00    -0.276 OA
ATOM     14  C   UNL     1       7.759  -0.726   3.745  0.00  0.00    +0.109 C 
ATOM     15  H   UNL     1       5.777  -0.414   1.975  0.00  0.00    +0.155 HD
ENDROOT
BRANCH   3  16
ATOM     16  O   UNL     1       0.831   3.423   6.777  0.00  0.00    -0.480 OA
ATOM     17  H   UNL     1       1.671   3.779   7.391  0.00  0.00    +0.295 HD
ENDBRANCH   3  16
BRANCH   1  18
ATOM     18  C   UNL     1      -0.995   0.865   3.200  0.00  0.00    -0.041 C 
BRANCH  18  24
ATOM     19  C   UNL     1      -2.055   1.051   1.031  0.00  0.00    +0.043 C 
ATOM     20  C   UNL     1      -1.918   1.673  -0.360  0.00  0.00    -0.004 C 
ATOM     21  C   UNL     1      -1.992   3.197  -0.242  0.00  0.00    -0.003 C 
ATOM     22  C   UNL     1      -0.891   3.683   0.704  0.00  0.00    -0.019 C 
ATOM     23  C   UNL     1      -1.058   3.003   2.064  0.00  0.00    -0.077 C 
ATOM     24  N   UNL     1      -0.978   1.546   1.898  0.00  0.00    +0.391 N 
ATOM     25  H   UNL     1      -0.021   1.317   1.407  0.00  0.00    -0.080 HD
BRANCH  19  26
ATOM     26  C   UNL     1      -1.962  -0.449   0.922  0.00  0.00    +0.293 C 
ATOM     27  O   UNL     1      -0.886  -0.994   0.987  0.00  0.00    -0.253 OA
BRANCH  26  28
ATOM     28  O   UNL     1      -3.076  -1.180   0.753  0.00  0.00    -0.466 OA
BRANCH  28  30
ATOM     29  C   UNL     1      -4.270  -3.281   0.455  0.00  0.00    +0.048 C 
ATOM     30  C   UNL     1      -2.925  -2.624   0.773  0.00  0.00    +0.228 C 
ENDBRANCH  28  30
ENDBRANCH  26  28
ENDBRANCH  19  26
ENDBRANCH  18  24
ENDBRANCH   1  18
TORSDOF 6
