REMARK  Name = ZINC07986648
REMARK  9 active torsions:
REMARK  status: ('A' for Active; 'I' for Inactive)
REMARK    1  A    between atoms: C_3  and  O_25
REMARK    2  A    between atoms: C_6  and  C_7
REMARK    3  A    between atoms: C_10  and  S_13
REMARK    4  A    between atoms: N_11  and  N_12
REMARK    5  A    between atoms: S_13  and  C_14
REMARK    6  A    between atoms: C_14  and  C_15
REMARK    7  A    between atoms: N_17  and  C_18
REMARK    8  A    between atoms: C_18  and  C_19
REMARK    9  A    between atoms: O_25  and  C_26
REMARK                            x       y       z     vdW  Elec       q    Type
REMARK                         _______ _______ _______ _____ _____    ______ ____
ROOT
ATOM      1  C   UNL     1      -1.267  -0.762   0.011  0.00  0.00    +0.182 A 
ATOM      2  N   UNL     1      -2.458  -0.288   0.293  0.00  0.00    -0.127 NA
ATOM      3  N   UNL     1      -3.335  -1.222   0.203  0.00  0.00    -0.121 NA
ATOM      4  C   UNL     1      -2.759  -2.351  -0.142  0.00  0.00    +0.209 A 
ATOM      5  N   UNL     1      -1.423  -2.098  -0.281  0.00  0.00    -0.224 N 
ENDROOT
BRANCH   1  11
ATOM      6  C   UNL     1      -0.017   1.392   0.010  0.00  0.00    +0.015 A 
ATOM      7  C   UNL     1       1.169   2.095   0.002  0.00  0.00    +0.046 A 
ATOM      8  C   UNL     1       2.380   1.417  -0.013  0.00  0.00    +0.127 A 
ATOM      9  C   UNL     1       2.404   0.029  -0.021  0.00  0.00    +0.046 A 
ATOM     10  C   UNL     1       1.222  -0.682  -0.014  0.00  0.00    +0.015 A 
ATOM     11  C   UNL     1       0.002  -0.004   0.002  0.00  0.00    +0.021 A 
BRANCH   8  12
ATOM     12  O   UNL     1       3.547   2.115  -0.022  0.00  0.00    -0.434 OA
BRANCH  12  13
ATOM     13  C   UNL     1       4.757   1.355  -0.038  0.00  0.00    +0.541 C 
ATOM     14  F   UNL     1       4.812   0.542   1.100  0.00  0.00    -0.166 F 
ATOM     15  F   UNL     1       4.789   0.554  -1.185  0.00  0.00    -0.166 F 
ENDBRANCH  12  13
ENDBRANCH   8  12
ENDBRANCH   1  11
BRANCH   5  16
ATOM     16  N   UNL     1      -0.447  -2.985  -0.635  0.00  0.00    -0.295 N 
ATOM     17  H   UNL     1      -0.055  -3.434   0.179  0.00  0.00    +0.163 HD
ATOM     18  H   UNL     1      -0.798  -3.667  -1.290  0.00  0.00    +0.163 HD
ENDBRANCH   5  16
BRANCH   4  19
ATOM     19  S   UNL     1      -3.559  -3.902  -0.385  0.00  0.00    -0.075 S 
BRANCH  19  20
ATOM     20  C   UNL     1      -5.307  -3.551  -0.051  0.00  0.00    +0.173 C 
BRANCH  20  21
ATOM     21  C   UNL     1      -6.115  -4.811  -0.226  0.00  0.00    +0.223 C 
ATOM     22  O   UNL     1      -5.565  -5.844  -0.544  0.00  0.00    -0.275 OA
ATOM     23  N   UNL     1      -7.448  -4.790  -0.028  0.00  0.00    -0.312 N 
ATOM     24  H   UNL     1      -7.887  -3.963   0.226  0.00  0.00    +0.149 HD
BRANCH  23  25
ATOM     25  C   UNL     1      -8.233  -6.015  -0.198  0.00  0.00    +0.135 C 
BRANCH  25  26
ATOM     26  C   UNL     1      -9.707  -5.718   0.084  0.00  0.00    +0.135 C 
ATOM     27  C   UNL     1     -10.552  -7.010  -0.057  0.00  0.00    +0.035 C 
ATOM     28  C   UNL     1     -11.765  -6.669   0.851  0.00  0.00    +0.031 C 
ATOM     29  C   UNL     1     -11.114  -5.819   1.963  0.00  0.00    +0.160 C 
ATOM     30  O   UNL     1      -9.881  -5.301   1.447  0.00  0.00    -0.375 OA
ENDBRANCH  25  26
ENDBRANCH  23  25
ENDBRANCH  20  21
ENDBRANCH  19  20
ENDBRANCH   4  19
TORSDOF 9
