REMARK  Name = ZINC32919480
REMARK  1 active torsions:
REMARK  status: ('A' for Active; 'I' for Inactive)
REMARK    1  A    between atoms: C_4  and  C_7
REMARK                            x       y       z     vdW  Elec       q    Type
REMARK                         _______ _______ _______ _____ _____    ______ ____
ROOT
ATOM      1  C   UNL     1       2.490   1.048  -0.016  0.00  0.00    +0.217 C 
ATOM      2  C   UNL     1       2.999   0.906   1.403  0.00  0.00    +0.130 C 
ATOM      3  N   UNL     1       4.211   0.098   1.511  0.00  0.00    -0.308 NA
ATOM      4  C   UNL     1       5.382   0.756   0.922  0.00  0.00    +0.120 C 
ATOM      5  C   UNL     1       5.403   0.476  -0.569  0.00  0.00    +0.008 A 
ATOM      6  C   UNL     1       6.391  -0.317  -1.113  0.00  0.00    +0.008 A 
ATOM      7  C   UNL     1       6.409  -0.548  -2.477  0.00  0.00    +0.001 A 
ATOM      8  C   UNL     1       5.442   0.016  -3.289  0.00  0.00    +0.004 A 
ATOM      9  C   UNL     1       4.447   0.805  -2.741  0.00  0.00    +0.046 A 
ATOM     10  C   UNL     1       4.422   1.028  -1.371  0.00  0.00    +0.126 A 
ATOM     11  O   UNL     1       3.428   1.774  -0.820  0.00  0.00    -0.483 OA
ATOM     12  H   UNL     1       4.430  -0.094   2.572  0.00  0.00    +0.122 HD
ENDROOT
BRANCH   1  16
ATOM     13  C   UNL     1      -1.238   3.133   0.029  0.00  0.00    +0.000 A 
ATOM     14  C   UNL     1      -1.219   1.751   0.017  0.00  0.00    +0.000 A 
ATOM     15  C   UNL     1      -0.013   1.076   0.008  0.00  0.00    +0.007 A 
ATOM     16  C   UNL     1       1.175   1.783   0.000  0.00  0.00    -0.006 A 
ATOM     17  C   UNL     1       1.156   3.165   0.008  0.00  0.00    +0.007 A 
ATOM     18  C   UNL     1      -0.050   3.840   0.022  0.00  0.00    +0.000 A 
ENDBRANCH   1  16
TORSDOF 1
