REMARK  Name = ZINC43474143
REMARK  5 active torsions:
REMARK  status: ('A' for Active; 'I' for Inactive)
REMARK    1  A    between atoms: C_1  and  C_2
REMARK    2  A    between atoms: C_3  and  C_10
REMARK    3  A    between atoms: C_10  and  N_11
REMARK    4  A    between atoms: N_11  and  C_12
REMARK    5  A    between atoms: C_15  and  N_19
REMARK                            x       y       z     vdW  Elec       q    Type
REMARK                         _______ _______ _______ _____ _____    ______ ____
ROOT
ATOM      1  N   UNL     1      -1.392  -0.174  -2.978  0.00  0.00    -0.336 N 
ATOM      2  H   UNL     1      -2.123  -0.383  -2.376  0.00  0.00    +0.147 HD
ENDROOT
BRANCH   1   3
ATOM      3  C   UNL     1      -1.660   0.255  -4.282  0.00  0.00    +0.063 A 
ATOM      4  C   UNL     1      -0.615   0.549  -5.146  0.00  0.00    +0.028 A 
ATOM      5  C   UNL     1      -0.883   0.973  -6.434  0.00  0.00    +0.035 A 
ATOM      6  C   UNL     1      -2.191   1.105  -6.862  0.00  0.00    +0.129 A 
ATOM      7  C   UNL     1      -3.236   0.814  -6.004  0.00  0.00    +0.073 A 
ATOM      8  C   UNL     1      -2.975   0.384  -4.716  0.00  0.00    +0.146 A 
ATOM      9  F   UNL     1      -3.996   0.094  -3.880  0.00  0.00    -0.203 F 
BRANCH   6  10
ATOM     10  N   UNL     1      -2.474   1.560  -8.242  0.00  0.00    +0.057 N 
ATOM     11  O   UNL     1      -1.561   1.815  -8.993  0.00  0.00    -0.126 OA
ATOM     12  O   UNL     1      -3.617   1.675  -8.618  0.00  0.00    -0.126 OA
ENDBRANCH   6  10
ENDBRANCH   1   3
BRANCH   1  13
ATOM     13  C   UNL     1      -0.006  -0.309  -2.522  0.00  0.00    +0.157 C 
BRANCH  13  16
ATOM     14  C   UNL     1      -0.018   1.503   0.010  0.00  0.00    +0.067 C 
ATOM     15  C   UNL     1       0.002  -0.004   0.002  0.00  0.00    +0.062 A 
ATOM     16  C   UNL     1       0.008  -0.784  -1.092  0.00  0.00    +0.063 A 
ATOM     17  N   UNL     1       0.028  -2.110  -0.667  0.00  0.00    -0.296 N 
ATOM     18  C   UNL     1       0.043  -3.369  -1.226  0.00  0.00    +0.100 A 
ATOM     19  C   UNL     1       0.061  -4.457  -0.458  0.00  0.00    +0.067 A 
ATOM     20  S   UNL     1       0.059  -3.749   1.182  0.00  0.00    -0.058 S 
ATOM     21  C   UNL     1       0.034  -2.038   0.701  0.00  0.00    +0.178 A 
ATOM     22  N   UNL     1       0.024  -0.795   1.086  0.00  0.00    -0.226 NA
ENDBRANCH  13  16
ENDBRANCH   1  13
TORSDOF 4
