REMARK  Name = ZINC49402718
REMARK  5 active torsions:
REMARK  status: ('A' for Active; 'I' for Inactive)
REMARK    1  A    between atoms: C_1  and  C_2
REMARK    2  A    between atoms: N_8  and  C_23
REMARK    3  A    between atoms: C_10  and  C_14
REMARK    4  A    between atoms: C_23  and  C_24
REMARK    5  A    between atoms: C_28  and  C_30
REMARK                            x       y       z     vdW  Elec       q    Type
REMARK                         _______ _______ _______ _____ _____    ______ ____
ROOT
ATOM      1  C   UNL     1       0.132   1.457  -0.251  0.00  0.00    +0.044 C 
ATOM      2  C   UNL     1       0.110  -0.049  -0.185  0.00  0.00    -0.049 A 
ATOM      3  C   UNL     1       0.066  -0.788  -1.353  0.00  0.00    +0.005 A 
ATOM      4  C   UNL     1       0.048  -2.170  -1.294  0.00  0.00    +0.029 A 
ATOM      5  C   UNL     1       0.073  -2.806  -0.073  0.00  0.00    +0.118 A 
ATOM      6  C   UNL     1       0.113  -2.073   1.109  0.00  0.00    +0.077 A 
ATOM      7  C   UNL     1       0.140  -0.682   1.040  0.00  0.00    +0.030 A 
ATOM      8  N   UNL     1       0.123  -2.703   2.345  0.00  0.00    -0.216 N 
ATOM      9  N   UNL     1       0.493  -4.015   2.584  0.00  0.00    -0.155 NA
ATOM     10  C   UNL     1       0.512  -4.953   1.687  0.00  0.00    +0.261 C 
ATOM     11  S   UNL     1       0.057  -4.568   0.023  0.00  0.00    +0.050 S 
ATOM     12  O   UNL     1       1.109  -5.036  -0.811  0.00  0.00    -0.163 OA
ATOM     13  O   UNL     1      -1.293  -4.979  -0.141  0.00  0.00    -0.163 OA
ENDROOT
BRANCH  10  14
ATOM     14  C   UNL     1       0.907  -6.314   2.049  0.00  0.00    +0.285 C 
ATOM     15  O   UNL     1       1.043  -7.159   1.183  0.00  0.00    -0.267 OA
ATOM     16  N   UNL     1       1.120  -6.633   3.341  0.00  0.00    -0.295 N 
ATOM     17  C   UNL     1       0.815  -5.649   4.356  0.00  0.00    +0.108 C 
ATOM     18  C   UNL     1       2.060  -4.764   4.612  0.00  0.00    +0.019 C 
ATOM     19  C   UNL     1       3.097  -5.533   5.318  0.00  0.00    +0.002 C 
ATOM     20  C   UNL     1       3.636  -6.726   4.534  0.00  0.00    +0.002 C 
ATOM     21  C   UNL     1       2.737  -7.917   4.754  0.00  0.00    +0.019 C 
ATOM     22  C   UNL     1       1.648  -7.973   3.661  0.00  0.00    +0.108 C 
ENDBRANCH  10  14
BRANCH   8  23
ATOM     23  C   UNL     1      -0.294  -1.906   3.501  0.00  0.00    +0.167 C 
BRANCH  23  24
ATOM     24  C   UNL     1      -1.796  -1.943   3.621  0.00  0.00    -0.027 A 
ATOM     25  C   UNL     1      -2.564  -0.992   2.973  0.00  0.00    +0.005 A 
ATOM     26  C   UNL     1      -3.943  -1.018   3.078  0.00  0.00    +0.002 A 
ATOM     27  C   UNL     1      -4.562  -1.995   3.829  0.00  0.00    +0.019 A 
ATOM     28  C   UNL     1      -3.794  -2.959   4.485  0.00  0.00    +0.052 A 
ATOM     29  C   UNL     1      -2.402  -2.929   4.372  0.00  0.00    +0.024 A 
BRANCH  28  30
ATOM     30  C   UNL     1      -4.430  -3.976   5.267  0.00  0.00    +0.099 C 
ATOM     31  N   UNL     1      -4.934  -4.783   5.888  0.00  0.00    -0.191 NA
ENDBRANCH  28  30
ENDBRANCH  23  24
ENDBRANCH   8  23
TORSDOF 4
