REMARK  Name = ZINC39966449
REMARK  8 active torsions:
REMARK  status: ('A' for Active; 'I' for Inactive)
REMARK    1  A    between atoms: C_1  and  C_2
REMARK    2  A    between atoms: C_2  and  N_3
REMARK    3  A    between atoms: C_4  and  C_22
REMARK    4  A    between atoms: C_7  and  S_8
REMARK    5  A    between atoms: S_8  and  C_9
REMARK    6  A    between atoms: C_9  and  C_10
REMARK    7  A    between atoms: N_12  and  C_13
REMARK    8  A    between atoms: C_18  and  C_19
REMARK                            x       y       z     vdW  Elec       q    Type
REMARK                         _______ _______ _______ _____ _____    ______ ____
ROOT
ATOM      1  N   UNL     1       0.788  -0.321   1.383  0.00  0.00    -0.302 N 
ATOM      2  C   UNL     1       2.106  -0.708   1.455  0.00  0.00    +0.166 A 
ATOM      3  N   UNL     1       2.317  -1.131   2.679  0.00  0.00    -0.128 NA
ATOM      4  N   UNL     1       1.237  -1.038   3.369  0.00  0.00    -0.122 NA
ATOM      5  C   UNL     1       0.271  -0.544   2.630  0.00  0.00    +0.192 A 
ENDROOT
BRANCH   2   6
ATOM      6  C   UNL     1       3.097  -0.656   0.359  0.00  0.00    +0.030 A 
ATOM      7  C   UNL     1       2.784  -1.151  -0.873  0.00  0.00    +0.057 A 
ATOM      8  S   UNL     1       4.288  -0.843  -1.785  0.00  0.00    -0.101 S 
ATOM      9  C   UNL     1       5.215  -0.079  -0.478  0.00  0.00    -0.006 A 
ATOM     10  C   UNL     1       4.369  -0.090   0.581  0.00  0.00    -0.026 A 
ATOM     11  C   UNL     1       4.774   0.461   1.946  0.00  0.00    +0.036 C 
ATOM     12  C   UNL     1       5.846   1.530   1.777  0.00  0.00    +0.005 C 
ATOM     13  C   UNL     1       7.240   0.907   1.811  0.00  0.00    +0.001 C 
ATOM     14  C   UNL     1       7.411  -0.059   0.644  0.00  0.00    +0.005 C 
ATOM     15  C   UNL     1       6.606   0.465  -0.544  0.00  0.00    +0.043 C 
ENDBRANCH   2   6
BRANCH   1  17
ATOM     16  C   UNL     1       0.328   1.730   0.133  0.00  0.00    +0.027 C 
ATOM     17  C   UNL     1       0.086   0.221   0.218  0.00  0.00    +0.122 C 
ENDBRANCH   1  17
BRANCH   5  18
ATOM     18  S   UNL     1      -1.384  -0.230   3.147  0.00  0.00    -0.077 S 
BRANCH  18  19
ATOM     19  C   UNL     1      -1.405  -0.739   4.888  0.00  0.00    +0.173 C 
BRANCH  19  20
ATOM     20  C   UNL     1      -2.782  -0.520   5.459  0.00  0.00    +0.228 C 
ATOM     21  O   UNL     1      -3.663  -0.065   4.761  0.00  0.00    -0.275 OA
ATOM     22  N   UNL     1      -3.034  -0.829   6.746  0.00  0.00    -0.284 N 
ATOM     23  H   UNL     1      -2.314  -1.125   7.324  0.00  0.00    +0.155 HD
BRANCH  22  24
ATOM     24  C   UNL     1      -4.330  -0.724   7.247  0.00  0.00    +0.046 A 
ATOM     25  C   UNL     1      -5.118   0.371   6.917  0.00  0.00    +0.024 A 
ATOM     26  C   UNL     1      -6.402   0.473   7.414  0.00  0.00    +0.002 A 
ATOM     27  C   UNL     1      -6.913  -0.512   8.243  0.00  0.00    +0.001 A 
ATOM     28  C   UNL     1      -6.146  -1.605   8.581  0.00  0.00    +0.015 A 
ATOM     29  C   UNL     1      -4.847  -1.726   8.081  0.00  0.00    +0.058 A 
BRANCH  29  30
ATOM     30  C   UNL     1      -4.022  -2.897   8.433  0.00  0.00    +0.243 C 
ATOM     31  O   UNL     1      -2.890  -2.997   7.998  0.00  0.00    -0.270 OA
ATOM     32  N   UNL     1      -4.522  -3.857   9.236  0.00  0.00    -0.325 N 
ATOM     33  H   UNL     1      -5.424  -3.777   9.583  0.00  0.00    +0.145 HD
ATOM     34  H   UNL     1      -3.979  -4.627   9.468  0.00  0.00    +0.145 HD
ENDBRANCH  29  30
ENDBRANCH  22  24
ENDBRANCH  19  20
ENDBRANCH  18  19
ENDBRANCH   5  18
TORSDOF 7
