REMARK  Name = ZINC00306187
REMARK  1 active torsions:
REMARK  status: ('A' for Active; 'I' for Inactive)
REMARK    1  A    between atoms: C_17  and  C_20
REMARK                            x       y       z     vdW  Elec       q    Type
REMARK                         _______ _______ _______ _____ _____    ______ ____
ROOT
ATOM      1  C   UNL     1      -0.016   1.358   0.009  0.00  0.00    +0.001 A 
ATOM      2  C   UNL     1       1.167   2.090   0.002  0.00  0.00    +0.001 A 
ATOM      3  C   UNL     1       2.378   1.462  -0.013  0.00  0.00    +0.009 A 
ATOM      4  C   UNL     1       2.434   0.065  -0.020  0.00  0.00    -0.007 A 
ATOM      5  C   UNL     1       1.231  -0.682  -0.012  0.00  0.00    -0.017 A 
ATOM      6  C   UNL     1       0.002  -0.004   0.002  0.00  0.00    +0.008 A 
ATOM      7  C   UNL     1       1.293  -2.089  -0.016  0.00  0.00    +0.012 A 
ATOM      8  C   UNL     1       2.480  -2.743  -0.014  0.00  0.00    +0.047 A 
ATOM      9  C   UNL     1       3.703  -2.058  -0.019  0.00  0.00    +0.140 A 
ATOM     10  C   UNL     1       3.700  -0.657  -0.041  0.00  0.00    +0.030 A 
ATOM     11  C   UNL     1       4.949   0.032  -0.096  0.00  0.00    -0.014 A 
ATOM     12  C   UNL     1       6.071  -0.745  -0.290  0.00  0.00    +0.097 A 
ATOM     13  C   UNL     1       5.990  -2.188  -0.463  0.00  0.00    +0.351 A 
ATOM     14  O   UNL     1       6.875  -2.831  -1.000  0.00  0.00    -0.244 OA
ATOM     15  O   UNL     1       4.857  -2.768   0.017  0.00  0.00    -0.421 OA
ATOM     16  S   UNL     1       7.463   0.338  -0.264  0.00  0.00    -0.105 S 
ATOM     17  C   UNL     1       6.626   1.847   0.387  0.00  0.00    +0.160 C 
ATOM     18  C   UNL     1       5.161   1.508   0.008  0.00  0.00    +0.060 C 
ENDROOT
BRANCH  17  19
ATOM     19  C   UNL     1       7.112   3.108  -0.330  0.00  0.00    +0.402 C 
ATOM     20  F   UNL     1       6.429   4.221   0.171  0.00  0.00    -0.169 F 
ATOM     21  F   UNL     1       8.486   3.267  -0.114  0.00  0.00    -0.169 F 
ATOM     22  F   UNL     1       6.867   2.989  -1.702  0.00  0.00    -0.169 F 
ENDBRANCH  17  19
TORSDOF 1
