REMARK  Name = ZINC38672280
REMARK  9 active torsions:
REMARK  status: ('A' for Active; 'I' for Inactive)
REMARK    1  A    between atoms: C_1  and  C_2
REMARK    2  A    between atoms: C_2  and  C_3
REMARK    3  A    between atoms: C_6  and  C_9
REMARK    4  A    between atoms: N_11  and  C_12
REMARK    5  A    between atoms: C_12  and  C_13
REMARK    6  A    between atoms: C_13  and  C_15
REMARK    7  A    between atoms: C_13  and  N_25
REMARK    8  A    between atoms: N_23  and  C_24
REMARK    9  A    between atoms: N_28  and  C_31
REMARK                            x       y       z     vdW  Elec       q    Type
REMARK                         _______ _______ _______ _____ _____    ______ ____
ROOT
ATOM      1  C   UNL     1      -7.973  -3.006  -2.507  0.00  0.00    +0.104 C 
ENDROOT
BRANCH   1   2
ATOM      2  C   UNL     1      -9.371  -3.563  -2.429  0.00  0.00    -0.028 A 
ATOM      3  C   UNL     1      -9.569  -4.907  -2.164  0.00  0.00    +0.007 A 
ATOM      4  C   UNL     1     -10.846  -5.419  -2.093  0.00  0.00    +0.024 A 
ATOM      5  C   UNL     1     -11.951  -4.587  -2.287  0.00  0.00    +0.033 A 
ATOM      6  C   UNL     1     -11.742  -3.243  -2.551  0.00  0.00    -0.025 A 
ATOM      7  C   UNL     1     -10.460  -2.732  -2.616  0.00  0.00    +0.010 A 
ATOM      8  C   UNL     1     -13.087  -2.571  -2.718  0.00  0.00    +0.056 C 
ATOM      9  C   UNL     1     -14.110  -3.701  -2.517  0.00  0.00    +0.109 C 
ATOM     10  N   UNL     1     -13.311  -4.901  -2.257  0.00  0.00    -0.332 N 
ATOM     11  C   UNL     1     -13.859  -6.236  -2.003  0.00  0.00    +0.129 C 
ENDBRANCH   1   2
BRANCH   1  12
ATOM     12  N   UNL     1      -7.104  -3.961  -3.207  0.00  0.00    -0.297 NA
ATOM     13  C   UNL     1      -7.596  -4.222  -4.567  0.00  0.00    +0.066 C 
ATOM     14  C   UNL     1      -6.699  -5.263  -5.240  0.00  0.00    -0.064 C 
ATOM     15  N   UNL     1      -5.319  -4.764  -5.288  0.00  0.00    +0.379 N 
ATOM     16  C   UNL     1      -4.833  -4.532  -3.921  0.00  0.00    -0.064 C 
ATOM     17  C   UNL     1      -5.714  -3.484  -3.237  0.00  0.00    +0.066 C 
ATOM     18  C   UNL     1      -4.462  -5.756  -5.950  0.00  0.00    -0.096 C 
ATOM     19  H   UNL     1      -5.292  -3.898  -5.805  0.00  0.00    -0.082 HD
ENDBRANCH   1  12
BRANCH   1  20
ATOM     20  C   UNL     1      -7.438  -2.772  -1.092  0.00  0.00    +0.128 C 
BRANCH  20  23
ATOM     21  C   UNL     1      -8.042  -1.470   0.877  0.00  0.00    +0.244 C 
ATOM     22  O   UNL     1      -7.167  -2.048   1.491  0.00  0.00    -0.270 OA
ATOM     23  N   UNL     1      -8.258  -1.760  -0.422  0.00  0.00    -0.310 N 
ATOM     24  H   UNL     1      -8.956  -1.298  -0.912  0.00  0.00    +0.149 HD
BRANCH  21  28
ATOM     25  C   UNL     1     -10.417   1.466   2.821  0.00  0.00    -0.048 A 
ATOM     26  C   UNL     1      -9.423   0.809   3.523  0.00  0.00    +0.004 A 
ATOM     27  C   UNL     1      -8.648  -0.146   2.898  0.00  0.00    +0.013 A 
ATOM     28  C   UNL     1      -8.869  -0.448   1.553  0.00  0.00    +0.037 A 
ATOM     29  C   UNL     1      -9.874   0.218   0.851  0.00  0.00    +0.013 A 
ATOM     30  C   UNL     1     -10.646   1.167   1.489  0.00  0.00    +0.004 A 
BRANCH  25  32
ATOM     31  C   UNL     1     -12.487   1.840   4.135  0.00  0.00    +0.009 C 
ATOM     32  C   UNL     1     -11.260   2.508   3.511  0.00  0.00    +0.032 C 
ENDBRANCH  25  32
ENDBRANCH  21  28
ENDBRANCH  20  23
ENDBRANCH   1  20
TORSDOF 6
