REMARK  Name = ZINC37180819
REMARK  3 active torsions:
REMARK  status: ('A' for Active; 'I' for Inactive)
REMARK    1  A    between atoms: C_2  and  N_15
REMARK    2  A    between atoms: N_3  and  C_10
REMARK    3  A    between atoms: C_10  and  C_11
REMARK                            x       y       z     vdW  Elec       q    Type
REMARK                         _______ _______ _______ _____ _____    ______ ____
ROOT
ATOM      1  C   UNL     1      -0.017   1.399   0.010  0.00  0.00    +0.111 A 
ATOM      2  C   UNL     1       1.169   2.080   0.002  0.00  0.00    +0.105 A 
ATOM      3  N   UNL     1       2.349   1.377  -0.013  0.00  0.00    -0.282 N 
ATOM      4  C   UNL     1       2.341   0.032  -0.020  0.00  0.00    +0.331 A 
ATOM      5  O   UNL     1       3.395  -0.574  -0.033  0.00  0.00    -0.246 OA
ATOM      6  N   UNL     1       1.183  -0.654  -0.012  0.00  0.00    -0.275 N 
ATOM      7  H   UNL     1       1.198  -1.623  -0.017  0.00  0.00    +0.173 HD
ATOM      8  C   UNL     1       0.002  -0.004   0.002  0.00  0.00    +0.256 A 
ATOM      9  O   UNL     1      -1.043  -0.632   0.009  0.00  0.00    -0.268 OA
ENDROOT
BRANCH   2  10
ATOM     10  N   UNL     1       1.180   3.451   0.009  0.00  0.00    -0.344 N 
ATOM     11  H   UNL     1       0.344   3.943   0.019  0.00  0.00    +0.144 HD
ATOM     12  H   UNL     1       2.024   3.929   0.003  0.00  0.00    +0.144 HD
ENDBRANCH   2  10
BRANCH   3  13
ATOM     13  C   UNL     1       3.625   2.097  -0.022  0.00  0.00    +0.131 C 
BRANCH  13  14
ATOM     14  C   UNL     1       4.083   2.341   1.418  0.00  0.00    +0.009 C 
ATOM     15  C   UNL     1       3.526   3.636   2.031  0.00  0.00    +0.005 C 
ATOM     16  C   UNL     1       4.911   3.837   2.668  0.00  0.00    +0.001 C 
ATOM     17  C   UNL     1       5.476   2.984   1.520  0.00  0.00    +0.005 C 
ENDBRANCH  13  14
ENDBRANCH   3  13
TORSDOF 3
