REMARK  Name = ZINC43210988
REMARK  8 active torsions:
REMARK  status: ('A' for Active; 'I' for Inactive)
REMARK    1  A    between atoms: C_1  and  C_2
REMARK    2  A    between atoms: C_2  and  C_3
REMARK    3  A    between atoms: C_6  and  N_9
REMARK    4  A    between atoms: C_14  and  C_26
REMARK    5  A    between atoms: N_16  and  C_22
REMARK    6  A    between atoms: C_22  and  C_23
REMARK    7  A    between atoms: C_29  and  C_33
REMARK    8  A    between atoms: C_30  and  C_32
REMARK                            x       y       z     vdW  Elec       q    Type
REMARK                         _______ _______ _______ _____ _____    ______ ____
ROOT
ATOM      1  N   UNL     1      -5.323  -1.969   0.042  0.00  0.00    -0.208 N 
ATOM      2  C   UNL     1      -6.042  -2.235  -1.095  0.00  0.00    +0.234 C 
ATOM      3  O   UNL     1      -5.627  -2.312  -2.231  0.00  0.00    -0.274 OA
ATOM      4  C   UNL     1      -7.403  -2.405  -0.640  0.00  0.00    +0.139 C 
ATOM      5  C   UNL     1      -8.657  -3.031  -1.093  0.00  0.00    +0.130 C 
ATOM      6  N   UNL     1      -9.407  -3.221   0.195  0.00  0.00    -0.170 NA
ATOM      7  O   UNL     1      -8.495  -2.786   1.294  0.00  0.00    -0.282 OA
ATOM      8  C   UNL     1      -7.189  -3.087   0.769  0.00  0.00    +0.242 C 
ATOM      9  C   UNL     1      -6.022  -2.232   1.184  0.00  0.00    +0.258 C 
ATOM     10  O   UNL     1      -5.759  -1.854   2.305  0.00  0.00    -0.272 OA
ENDROOT
BRANCH   5  11
ATOM     11  C   UNL     1      -9.407  -2.114  -2.025  0.00  0.00    -0.027 A 
ATOM     12  C   UNL     1     -10.164  -1.077  -1.512  0.00  0.00    +0.005 A 
ATOM     13  C   UNL     1     -10.853  -0.236  -2.366  0.00  0.00    +0.004 A 
ATOM     14  C   UNL     1     -10.784  -0.432  -3.733  0.00  0.00    -0.048 A 
ATOM     15  C   UNL     1     -10.026  -1.468  -4.246  0.00  0.00    -0.047 A 
ATOM     16  C   UNL     1      -9.334  -2.307  -3.391  0.00  0.00    +0.009 A 
ATOM     17  C   UNL     1      -9.951  -1.682  -5.736  0.00  0.00    +0.044 C 
ATOM     18  C   UNL     1     -11.535   0.484  -4.665  0.00  0.00    +0.044 C 
ENDBRANCH   5  11
BRANCH   1  22
ATOM     19  C   UNL     1      -1.412  -0.526   0.013  0.00  0.00    -0.048 A 
ATOM     20  C   UNL     1      -2.050  -0.765   1.216  0.00  0.00    +0.005 A 
ATOM     21  C   UNL     1      -3.345  -1.244   1.229  0.00  0.00    +0.024 A 
ATOM     22  C   UNL     1      -4.008  -1.483   0.032  0.00  0.00    +0.044 A 
ATOM     23  C   UNL     1      -3.365  -1.241  -1.174  0.00  0.00    +0.024 A 
ATOM     24  C   UNL     1      -2.071  -0.758  -1.181  0.00  0.00    +0.005 A 
BRANCH  19  26
ATOM     25  C   UNL     1      -0.019   1.526   0.010  0.00  0.00    +0.009 C 
ATOM     26  C   UNL     1       0.002  -0.004   0.002  0.00  0.00    +0.032 C 
ENDBRANCH  19  26
ENDBRANCH   1  22
BRANCH   6  27
ATOM     27  C   UNL     1      -9.809  -4.623   0.369  0.00  0.00    +0.210 C 
BRANCH  27  28
ATOM     28  C   UNL     1     -10.760  -4.732   1.533  0.00  0.00    +0.227 C 
ATOM     29  O   UNL     1     -11.071  -3.740   2.157  0.00  0.00    -0.275 OA
ATOM     30  N   UNL     1     -11.264  -5.933   1.881  0.00  0.00    -0.328 N 
ATOM     31  H   UNL     1     -11.014  -6.726   1.382  0.00  0.00    +0.145 HD
ATOM     32  H   UNL     1     -11.875  -6.003   2.631  0.00  0.00    +0.145 HD
ENDBRANCH  27  28
ENDBRANCH   6  27
TORSDOF 5
