REMARK  Name = ZINC66508507
REMARK  9 active torsions:
REMARK  status: ('A' for Active; 'I' for Inactive)
REMARK    1  A    between atoms: C_1  and  C_2
REMARK    2  A    between atoms: C_6  and  N_9
REMARK    3  A    between atoms: C_7  and  C_8
REMARK    4  A    between atoms: N_9  and  C_10
REMARK    5  A    between atoms: C_12  and  C_13
REMARK    6  A    between atoms: C_12  and  C_15
REMARK    7  A    between atoms: C_15  and  C_17
REMARK    8  A    between atoms: C_20  and  N_24
REMARK    9  A    between atoms: C_21  and  C_23
REMARK                            x       y       z     vdW  Elec       q    Type
REMARK                         _______ _______ _______ _____ _____    ______ ____
ROOT
ATOM      1  C   UNL     1      -0.215  -6.316   3.580  0.00  0.00    +0.208 C 
ATOM      2  O   UNL     1      -0.168  -6.922   2.525  0.00  0.00    -0.286 OA
ENDROOT
BRANCH   1   3
ATOM      3  C   UNL     1      -0.421  -7.050   4.845  0.00  0.00    +0.024 A 
ATOM      4  C   UNL     1      -1.039  -6.419   5.928  0.00  0.00    +0.013 A 
ATOM      5  C   UNL     1      -1.230  -7.105   7.106  0.00  0.00    +0.024 A 
ATOM      6  C   UNL     1      -0.807  -8.426   7.219  0.00  0.00    +0.041 A 
ATOM      7  C   UNL     1      -0.191  -9.057   6.143  0.00  0.00    -0.028 A 
ATOM      8  C   UNL     1      -0.003  -8.378   4.960  0.00  0.00    +0.017 A 
ATOM      9  C   UNL     1       0.266 -10.487   6.270  0.00  0.00    +0.046 C 
BRANCH   6  10
ATOM     10  N   UNL     1      -1.002  -9.119   8.414  0.00  0.00    -0.254 N 
ATOM     11  C   UNL     1      -0.054  -9.162   9.537  0.00  0.00    +0.134 C 
ATOM     12  C   UNL     1      -0.757 -10.054  10.579  0.00  0.00    +0.125 C 
ATOM     13  N   UNL     1      -2.026 -10.419   9.932  0.00  0.00    -0.297 N 
ATOM     14  C   UNL     1      -2.083  -9.847   8.722  0.00  0.00    +0.307 C 
ATOM     15  O   UNL     1      -3.030  -9.979   7.970  0.00  0.00    -0.252 OA
ATOM     16  H   UNL     1      -2.714 -10.981  10.321  0.00  0.00    +0.150 HD
ENDBRANCH   6  10
ENDBRANCH   1   3
BRANCH   1  19
ATOM     17  C   UNL     1      -0.012  -4.154   2.393  0.00  0.00    +0.262 C 
ATOM     18  O   UNL     1      -0.097  -4.810   1.221  0.00  0.00    -0.269 OA
ATOM     19  C   UNL     1      -0.066  -4.861   3.594  0.00  0.00    +0.161 C 
BRANCH  17  20
ATOM     20  N   UNL     1       0.126  -2.799   2.407  0.00  0.00    -0.281 N 
ATOM     21  H   UNL     1       0.268  -2.334   3.246  0.00  0.00    +0.155 HD
BRANCH  20  27
ATOM     22  C   UNL     1       1.294   1.214  -0.182  0.00  0.00    +0.044 C 
ATOM     23  C   UNL     1       0.620  -0.130  -0.072  0.00  0.00    -0.046 A 
ATOM     24  C   UNL     1      -0.062  -0.650  -1.157  0.00  0.00    +0.004 A 
ATOM     25  C   UNL     1      -0.682  -1.883  -1.060  0.00  0.00    +0.002 A 
ATOM     26  C   UNL     1      -0.622  -2.597   0.120  0.00  0.00    +0.023 A 
ATOM     27  C   UNL     1       0.063  -2.077   1.210  0.00  0.00    +0.037 A 
ATOM     28  C   UNL     1       0.689  -0.842   1.109  0.00  0.00    -0.026 A 
ATOM     29  C   UNL     1       1.438  -0.276   2.288  0.00  0.00    +0.046 C 
ENDBRANCH  20  27
ENDBRANCH  17  20
BRANCH  19  30
ATOM     30  C   UNL     1       0.024  -4.163   4.841  0.00  0.00    +0.108 C 
ATOM     31  N   UNL     1       0.095  -3.609   5.831  0.00  0.00    -0.191 NA
ENDBRANCH  19  30
ENDBRANCH   1  19
TORSDOF 6
