REMARK  Name = ZINC61165545
REMARK  7 active torsions:
REMARK  status: ('A' for Active; 'I' for Inactive)
REMARK    1  A    between atoms: C_1  and  N_2
REMARK    2  A    between atoms: C_10  and  C_12
REMARK    3  A    between atoms: C_13  and  C_14
REMARK    4  A    between atoms: N_16  and  C_17
REMARK    5  A    between atoms: C_21  and  N_23
REMARK    6  A    between atoms: C_24  and  O_26
REMARK    7  A    between atoms: O_26  and  C_27
REMARK                            x       y       z     vdW  Elec       q    Type
REMARK                         _______ _______ _______ _____ _____    ______ ____
ROOT
ATOM      1  C   UNL     1       7.380  -2.963  -0.585  0.00  0.00    +0.241 C 
ATOM      2  O   UNL     1       7.524  -4.156  -0.389  0.00  0.00    -0.270 OA
ATOM      3  N   UNL     1       8.402  -2.231  -1.070  0.00  0.00    -0.282 N 
ATOM      4  H   UNL     1       8.313  -1.269  -1.154  0.00  0.00    +0.155 HD
ENDROOT
BRANCH   3   5
ATOM      5  C   UNL     1       9.592  -2.859  -1.451  0.00  0.00    +0.035 A 
ATOM      6  C   UNL     1      10.807  -2.205  -1.286  0.00  0.00    +0.023 A 
ATOM      7  C   UNL     1      11.983  -2.824  -1.662  0.00  0.00    +0.004 A 
ATOM      8  C   UNL     1      11.955  -4.095  -2.204  0.00  0.00    +0.023 A 
ATOM      9  C   UNL     1      10.744  -4.754  -2.371  0.00  0.00    +0.038 A 
ATOM     10  C   UNL     1       9.562  -4.137  -1.989  0.00  0.00    +0.046 A 
BRANCH   9  11
ATOM     11  N   UNL     1      10.717  -6.041  -2.921  0.00  0.00    -0.251 N 
ATOM     12  C   UNL     1      11.733  -6.895  -2.687  0.00  0.00    +0.404 C 
ATOM     13  O   UNL     1      12.626  -6.583  -1.924  0.00  0.00    -0.226 OA
ATOM     14  H   UNL     1       9.967  -6.319  -3.470  0.00  0.00    +0.158 HD
BRANCH  12  15
ATOM     15  O   UNL     1      11.759  -8.095  -3.298  0.00  0.00    -0.453 OA
ATOM     16  C   UNL     1      12.866  -8.949  -3.004  0.00  0.00    +0.282 C 
ENDBRANCH  12  15
ENDBRANCH   9  11
ENDBRANCH   3   5
BRANCH   1  18
ATOM     17  C   UNL     1       5.072  -3.058   0.191  0.00  0.00    +0.013 C 
ATOM     18  C   UNL     1       6.097  -2.325  -0.294  0.00  0.00    +0.068 C 
BRANCH  17  28
ATOM     19  C   UNL     1       0.047   0.868   1.365  0.00  0.00    +0.129 C 
ATOM     20  N   UNL     1       0.136  -0.593   1.314  0.00  0.00    -0.333 N 
ATOM     21  C   UNL     1      -1.055  -1.421   1.546  0.00  0.00    +0.105 C 
ATOM     22  C   UNL     1      -0.655  -2.563   2.491  0.00  0.00    +0.024 C 
ATOM     23  C   UNL     1       0.392  -3.433   1.796  0.00  0.00    +0.038 C 
ATOM     24  C   UNL     1       1.516  -2.582   1.265  0.00  0.00    -0.026 A 
ATOM     25  C   UNL     1       1.351  -1.219   1.039  0.00  0.00    +0.033 A 
ATOM     26  C   UNL     1       2.404  -0.455   0.537  0.00  0.00    +0.024 A 
ATOM     27  C   UNL     1       3.615  -1.045   0.259  0.00  0.00    +0.010 A 
ATOM     28  C   UNL     1       3.784  -2.417   0.483  0.00  0.00    -0.025 A 
ATOM     29  C   UNL     1       2.722  -3.175   0.998  0.00  0.00    +0.013 A 
ENDBRANCH  17  28
ENDBRANCH   1  18
TORSDOF 5
