REMARK  Name = ZINC58949776
REMARK  8 active torsions:
REMARK  status: ('A' for Active; 'I' for Inactive)
REMARK    1  A    between atoms: C_1  and  C_2
REMARK    2  A    between atoms: C_2  and  C_26
REMARK    3  A    between atoms: C_6  and  C_16
REMARK    4  A    between atoms: C_8  and  C_12
REMARK    5  A    between atoms: C_9  and  N_11
REMARK    6  A    between atoms: C_12  and  O_14
REMARK    7  A    between atoms: O_14  and  C_15
REMARK    8  A    between atoms: C_20  and  O_22
REMARK                            x       y       z     vdW  Elec       q    Type
REMARK                         _______ _______ _______ _____ _____    ______ ____
ROOT
ATOM      1  C   UNL     1      -0.038   1.531   0.005  0.00  0.00    +0.012 C 
ATOM      2  C   UNL     1      -0.012   0.002  -0.014  0.00  0.00    -0.021 C 
ATOM      3  C   UNL     1      -1.442  -0.538   0.057  0.00  0.00    +0.081 C 
ATOM      4  C   UNL     1      -1.415  -2.048   0.081  0.00  0.00    +0.115 C 
ATOM      5  C   UNL     1      -0.387  -2.708   0.644  0.00  0.00    +0.045 C 
ATOM      6  C   UNL     1      -0.366  -4.217   0.673  0.00  0.00    +0.098 C 
ATOM      7  C   UNL     1      -1.326  -4.771  -0.342  0.00  0.00    +0.105 C 
ATOM      8  C   UNL     1      -2.310  -3.988  -0.858  0.00  0.00    +0.195 C 
ATOM      9  O   UNL     1      -2.449  -2.709  -0.475  0.00  0.00    -0.446 OA
ATOM     10  C   UNL     1       0.698  -2.018   1.218  0.00  0.00    +0.164 C 
ATOM     11  O   UNL     1       1.599  -2.648   1.735  0.00  0.00    -0.292 OA
ATOM     12  C   UNL     1       0.762  -0.515   1.204  0.00  0.00    +0.086 C 
ATOM     13  C   UNL     1       0.663  -0.485  -1.297  0.00  0.00    +0.012 C 
ENDROOT
BRANCH   6  14
ATOM     14  C   UNL     1      -0.765  -4.696   2.046  0.00  0.00    -0.032 A 
ATOM     15  C   UNL     1      -2.008  -4.372   2.556  0.00  0.00    +0.005 A 
ATOM     16  C   UNL     1      -2.377  -4.809   3.814  0.00  0.00    +0.004 A 
ATOM     17  C   UNL     1      -1.503  -5.571   4.566  0.00  0.00    +0.045 A 
ATOM     18  C   UNL     1      -0.255  -5.897   4.056  0.00  0.00    +0.117 A 
ATOM     19  C   UNL     1       0.110  -5.462   2.790  0.00  0.00    +0.050 A 
BRANCH  18  20
ATOM     20  O   UNL     1       0.607  -6.646   4.793  0.00  0.00    -0.507 OA
ATOM     21  H   UNL     1       0.519  -7.599   4.652  0.00  0.00    +0.292 HD
ENDBRANCH  18  20
ENDBRANCH   6  14
BRANCH   8  22
ATOM     22  N   UNL     1      -3.172  -4.512  -1.783  0.00  0.00    -0.329 N 
ATOM     23  H   UNL     1      -3.127  -5.454  -2.009  0.00  0.00    +0.145 HD
ATOM     24  H   UNL     1      -3.828  -3.941  -2.213  0.00  0.00    +0.145 HD
ENDBRANCH   8  22
BRANCH   7  25
ATOM     25  C   UNL     1      -1.206  -6.105  -0.759  0.00  0.00    +0.341 C 
ATOM     26  O   UNL     1      -0.356  -6.414  -1.576  0.00  0.00    -0.245 OA
BRANCH  25  27
ATOM     27  O   UNL     1      -2.033  -7.047  -0.256  0.00  0.00    -0.465 OA
ATOM     28  C   UNL     1      -1.854  -8.385  -0.726  0.00  0.00    +0.280 C 
ENDBRANCH  25  27
ENDBRANCH   7  25
TORSDOF 5
