REMARK  Name = ZINC14014489
REMARK  5 active torsions:
REMARK  status: ('A' for Active; 'I' for Inactive)
REMARK    1  A    between atoms: C_1  and  C_2
REMARK    2  A    between atoms: C_5  and  N_9
REMARK    3  A    between atoms: C_6  and  C_8
REMARK    4  A    between atoms: C_21  and  C_23
REMARK    5  A    between atoms: C_23  and  C_24
REMARK                            x       y       z     vdW  Elec       q    Type
REMARK                         _______ _______ _______ _____ _____    ______ ____
ROOT
ATOM      1  N   UNL     1      -6.270   3.379   5.117  0.00  0.00    -0.214 N 
ATOM      2  C   UNL     1      -6.197   3.936   3.877  0.00  0.00    +0.171 A 
ATOM      3  C   UNL     1      -5.223   3.216   3.165  0.00  0.00    +0.103 A 
ATOM      4  C   UNL     1      -4.730   2.220   4.036  0.00  0.00    +0.150 A 
ATOM      5  N   UNL     1      -5.351   2.324   5.177  0.00  0.00    -0.172 NA
ATOM      6  C   UNL     1      -4.940   3.586   1.833  0.00  0.00    +0.266 A 
ATOM      7  O   UNL     1      -4.099   2.977   1.196  0.00  0.00    -0.267 OA
ATOM      8  N   UNL     1      -5.614   4.634   1.257  0.00  0.00    -0.283 N 
ATOM      9  C   UNL     1      -6.545   5.277   2.022  0.00  0.00    +0.174 A 
ATOM     10  N   UNL     1      -6.821   4.946   3.264  0.00  0.00    -0.203 NA
ATOM     11  S   UNL     1      -7.237   6.568   1.011  0.00  0.00    -0.085 S 
ATOM     12  C   UNL     1      -6.278   6.290  -0.524  0.00  0.00    +0.103 C 
ATOM     13  C   UNL     1      -5.401   5.100  -0.112  0.00  0.00    +0.112 C 
ENDROOT
BRANCH   1  18
ATOM     14  C   UNL     1      -9.705   5.044   9.316  0.00  0.00    +0.044 C 
ATOM     15  C   UNL     1      -8.792   4.603   8.201  0.00  0.00    -0.050 A 
ATOM     16  C   UNL     1      -8.725   5.338   7.031  0.00  0.00    +0.005 A 
ATOM     17  C   UNL     1      -7.890   4.935   6.008  0.00  0.00    +0.028 A 
ATOM     18  C   UNL     1      -7.117   3.791   6.154  0.00  0.00    +0.071 A 
ATOM     19  C   UNL     1      -7.190   3.052   7.327  0.00  0.00    -0.025 A 
ATOM     20  C   UNL     1      -8.024   3.463   8.349  0.00  0.00    +0.008 A 
ATOM     21  C   UNL     1      -6.357   1.806   7.487  0.00  0.00    +0.046 C 
ENDBRANCH   1  18
BRANCH  13  22
ATOM     22  C   UNL     1      -3.933   5.505  -0.263  0.00  0.00    +0.122 C 
BRANCH  22  23
ATOM     23  C   UNL     1      -3.643   5.813  -1.710  0.00  0.00    +0.220 C 
ATOM     24  O   UNL     1      -4.508   5.665  -2.546  0.00  0.00    -0.275 OA
ATOM     25  N   UNL     1      -2.422   6.253  -2.073  0.00  0.00    -0.268 N 
ATOM     26  C   UNL     1      -2.154   6.539  -3.412  0.00  0.00    +0.168 A 
ATOM     27  C   UNL     1      -3.053   6.423  -4.505  0.00  0.00    +0.088 A 
ATOM     28  C   UNL     1      -2.319   6.810  -5.574  0.00  0.00    +0.232 A 
ATOM     29  O   UNL     1      -1.102   7.125  -5.109  0.00  0.00    -0.361 OA
ATOM     30  N   UNL     1      -1.025   6.970  -3.912  0.00  0.00    -0.063 NA
ATOM     31  H   UNL     1      -1.730   6.371  -1.404  0.00  0.00    +0.156 HD
ENDBRANCH  22  23
ENDBRANCH  13  22
TORSDOF 3
