REMARK  Name = ZINC39442139
REMARK  3 active torsions:
REMARK  status: ('A' for Active; 'I' for Inactive)
REMARK    1  A    between atoms: C_4  and  C_7
REMARK    2  A    between atoms: N_15  and  C_16
REMARK    3  A    between atoms: C_16  and  C_17
REMARK                            x       y       z     vdW  Elec       q    Type
REMARK                         _______ _______ _______ _____ _____    ______ ____
ROOT
ATOM      1  C   UNL     1       2.872  -0.451  -2.509  0.00  0.00    -0.040 C 
ATOM      2  C   UNL     1       2.064   0.026  -3.689  0.00  0.00    +0.096 C 
ATOM      3  C   UNL     1       2.808  -0.444  -4.978  0.00  0.00    +0.023 C 
ATOM      4  C   UNL     1       2.655  -1.954  -4.997  0.00  0.00    -0.012 C 
ATOM      5  C   UNL     1       3.367  -2.486  -3.742  0.00  0.00    -0.078 C 
ATOM      6  N   UNL     1       2.804  -1.929  -2.518  0.00  0.00    +0.385 N 
ATOM      7  C   UNL     1       2.005   0.378  -5.979  0.00  0.00    +0.065 C 
ATOM      8  C   UNL     1       2.762   0.684  -7.232  0.00  0.00    -0.017 C 
ATOM      9  C   UNL     1       2.818   1.915  -7.729  0.00  0.00    -0.004 C 
ATOM     10  C   UNL     1       2.162   3.054  -7.092  0.00  0.00    +0.001 C 
ATOM     11  C   UNL     1       1.662   2.939  -5.836  0.00  0.00    +0.023 C 
ATOM     12  C   UNL     1       1.775   1.669  -5.198  0.00  0.00    +0.043 C 
ATOM     13  N   UNL     1       1.837   1.432  -3.923  0.00  0.00    -0.286 NA
ATOM     14  H   UNL     1       1.841  -2.213  -2.416  0.00  0.00    -0.081 HD
ENDROOT
BRANCH   1  18
ATOM     15  C   UNL     1       0.265   1.699   0.196  0.00  0.00    +0.000 C 
ATOM     16  C   UNL     1       1.717   2.166   0.070  0.00  0.00    +0.000 C 
ATOM     17  C   UNL     1       2.316   1.622  -1.229  0.00  0.00    +0.002 C 
ATOM     18  C   UNL     1       2.272   0.093  -1.210  0.00  0.00    -0.023 C 
ATOM     19  C   UNL     1       0.820  -0.373  -1.084  0.00  0.00    +0.002 C 
ATOM     20  C   UNL     1       0.221   0.170   0.214  0.00  0.00    +0.000 C 
ENDBRANCH   1  18
BRANCH   6  21
ATOM     21  C   UNL     1       3.574  -2.449  -1.380  0.00  0.00    -0.045 C 
BRANCH  21  22
ATOM     22  C   UNL     1       3.368  -3.961  -1.272  0.00  0.00    +0.136 C 
ATOM     23  C   UNL     1       4.136  -4.524  -0.090  0.00  0.00    +0.021 C 
ATOM     24  C   UNL     1       4.998  -5.380  -0.645  0.00  0.00    +0.132 C 
ATOM     25  N   UNL     1       4.851  -5.404  -1.988  0.00  0.00    -0.162 NA
ATOM     26  N   UNL     1       3.970  -4.652  -2.424  0.00  0.00    -0.182 NA
ENDBRANCH  21  22
ENDBRANCH   6  21
TORSDOF 3
