REMARK  Name = ZINC55674853
REMARK  6 active torsions:
REMARK  status: ('A' for Active; 'I' for Inactive)
REMARK    1  A    between atoms: C_1  and  C_2
REMARK    2  A    between atoms: C_5  and  C_24
REMARK    3  A    between atoms: C_6  and  N_8
REMARK    4  A    between atoms: N_8  and  C_9
REMARK    5  A    between atoms: N_8  and  S_10
REMARK    6  A    between atoms: S_10  and  C_13
REMARK                            x       y       z     vdW  Elec       q    Type
REMARK                         _______ _______ _______ _____ _____    ______ ____
ROOT
ATOM      1  S   UNL     1       1.490  -3.305   3.034  0.00  0.00    +0.075 S 
ATOM      2  O   UNL     1       1.191  -4.410   3.874  0.00  0.00    -0.150 OA
ATOM      3  O   UNL     1       2.409  -3.396   1.954  0.00  0.00    -0.150 OA
ENDROOT
BRANCH   1   4
ATOM      4  C   UNL     1       2.074  -2.017   4.085  0.00  0.00    +0.111 A 
ATOM      5  C   UNL     1       2.884  -1.021   3.570  0.00  0.00    +0.032 A 
ATOM      6  C   UNL     1       3.347  -0.006   4.388  0.00  0.00    +0.049 A 
ATOM      7  C   UNL     1       2.998   0.013   5.727  0.00  0.00    +0.142 A 
ATOM      8  C   UNL     1       2.181  -0.991   6.246  0.00  0.00    +0.078 A 
ATOM      9  C   UNL     1       1.717  -2.001   5.421  0.00  0.00    +0.055 A 
ATOM     10  N   UNL     1       1.837  -0.961   7.605  0.00  0.00    -0.280 N 
ATOM     11  C   UNL     1       2.029   0.179   8.304  0.00  0.00    +0.255 C 
ATOM     12  O   UNL     1       1.768   0.219   9.488  0.00  0.00    -0.272 OA
ATOM     13  C   UNL     1       2.570   1.401   7.606  0.00  0.00    +0.325 C 
ATOM     14  O   UNL     1       3.442   1.003   6.546  0.00  0.00    -0.481 OA
ATOM     15  H   UNL     1       1.466  -1.746   8.037  0.00  0.00    +0.155 HD
ENDBRANCH   1   4
BRANCH   1  16
ATOM     16  N   UNL     1       0.051  -2.796   2.390  0.00  0.00    -0.206 N 
ATOM     17  C   UNL     1      -1.206  -3.089   3.084  0.00  0.00    +0.157 C 
BRANCH  16  23
ATOM     18  C   UNL     1      -0.018   1.503   0.010  0.00  0.00    +0.044 C 
ATOM     19  C   UNL     1       0.002  -0.004   0.002  0.00  0.00    -0.049 A 
ATOM     20  C   UNL     1       0.006  -0.688  -1.200  0.00  0.00    +0.004 A 
ATOM     21  C   UNL     1       0.024  -2.071  -1.212  0.00  0.00    +0.005 A 
ATOM     22  C   UNL     1       0.039  -2.773  -0.023  0.00  0.00    -0.028 A 
ATOM     23  C   UNL     1       0.036  -2.089   1.186  0.00  0.00    +0.054 A 
ATOM     24  C   UNL     1       0.023  -0.700   1.194  0.00  0.00    +0.028 A 
ATOM     25  C   UNL     1       0.059  -4.280  -0.037  0.00  0.00    +0.046 C 
ENDBRANCH  16  23
ENDBRANCH   1  16
TORSDOF 3
