REMARK  Name = ZINC01165843
REMARK  8 active torsions:
REMARK  status: ('A' for Active; 'I' for Inactive)
REMARK    1  A    between atoms: C_1  and  C_2
REMARK    2  A    between atoms: C_4  and  C_17
REMARK    3  A    between atoms: C_5  and  C_16
REMARK    4  A    between atoms: N_6  and  C_7
REMARK    5  A    between atoms: C_11  and  N_13
REMARK    6  A    between atoms: N_21  and  C_25
REMARK    7  A    between atoms: C_25  and  C_26
REMARK    8  A    between atoms: N_28  and  C_29
REMARK                            x       y       z     vdW  Elec       q    Type
REMARK                         _______ _______ _______ _____ _____    ______ ____
ROOT
ATOM      1  C   UNL     1      -3.277   0.837   3.724  0.00  0.00    +0.030 C 
ATOM      2  C   UNL     1      -2.284   1.373   2.965  0.00  0.00    +0.080 C 
ATOM      3  C   UNL     1      -1.636   0.839   1.755  0.00  0.00    +0.261 C 
ATOM      4  O   UNL     1      -1.960  -0.233   1.276  0.00  0.00    -0.269 OA
ATOM      5  N   UNL     1      -0.685   1.581   1.213  0.00  0.00    -0.219 N 
ATOM      6  C   UNL     1      -0.326   2.765   1.748  0.00  0.00    +0.286 C 
ATOM      7  O   UNL     1       0.527   3.542   1.362  0.00  0.00    -0.262 OA
ATOM      8  S   UNL     1      -1.407   2.918   3.161  0.00  0.00    -0.026 S 
ENDROOT
BRANCH   1  12
ATOM      9  C   UNL     1      -3.907   4.376   7.338  0.00  0.00    +0.064 C 
ATOM     10  C   UNL     1      -4.036   3.136   6.492  0.00  0.00    +0.022 A 
ATOM     11  C   UNL     1      -3.308   2.862   5.396  0.00  0.00    +0.031 A 
ATOM     12  C   UNL     1      -3.771   1.560   4.900  0.00  0.00    -0.003 A 
ATOM     13  C   UNL     1      -4.770   1.156   5.764  0.00  0.00    +0.028 A 
ATOM     14  N   UNL     1      -4.912   2.112   6.717  0.00  0.00    -0.317 N 
ATOM     15  C   UNL     1      -5.562  -0.122   5.667  0.00  0.00    +0.064 C 
BRANCH  14  16
ATOM     16  C   UNL     1      -5.829   2.059   7.775  0.00  0.00    +0.049 A 
ATOM     17  C   UNL     1      -5.710   1.078   8.751  0.00  0.00    +0.026 A 
ATOM     18  C   UNL     1      -6.613   1.031   9.795  0.00  0.00    +0.004 A 
ATOM     19  C   UNL     1      -7.641   1.954   9.864  0.00  0.00    +0.033 A 
ATOM     20  C   UNL     1      -7.765   2.928   8.891  0.00  0.00    +0.128 A 
ATOM     21  C   UNL     1      -6.862   2.983   7.847  0.00  0.00    +0.058 A 
BRANCH  20  22
ATOM     22  N   UNL     1      -8.867   3.914   8.969  0.00  0.00    +0.056 N 
ATOM     23  O   UNL     1      -8.977   4.772   8.112  0.00  0.00    -0.126 OA
ATOM     24  O   UNL     1      -9.664   3.866   9.889  0.00  0.00    -0.126 OA
ENDBRANCH  20  22
ENDBRANCH  14  16
ENDBRANCH   1  12
BRANCH   5  25
ATOM     25  C   UNL     1      -0.002   1.103   0.008  0.00  0.00    +0.213 C 
BRANCH  25  26
ATOM     26  C   UNL     1      -0.738   1.591  -1.213  0.00  0.00    +0.235 C 
ATOM     27  O   UNL     1      -1.734   2.272  -1.089  0.00  0.00    -0.274 OA
ATOM     28  N   UNL     1      -0.288   1.272  -2.443  0.00  0.00    -0.282 N 
ATOM     29  H   UNL     1       0.543   0.783  -2.544  0.00  0.00    +0.155 HD
BRANCH  28  30
ATOM     30  C   UNL     1      -1.022   1.647  -3.576  0.00  0.00    +0.069 A 
ATOM     31  C   UNL     1      -1.723   2.845  -3.586  0.00  0.00    +0.026 A 
ATOM     32  C   UNL     1      -2.441   3.215  -4.707  0.00  0.00    +0.002 A 
ATOM     33  C   UNL     1      -2.473   2.387  -5.814  0.00  0.00    +0.003 A 
ATOM     34  C   UNL     1      -1.781   1.190  -5.807  0.00  0.00    +0.040 A 
ATOM     35  C   UNL     1      -1.055   0.816  -4.691  0.00  0.00    +0.144 A 
ATOM     36  F   UNL     1      -0.379  -0.353  -4.683  0.00  0.00    -0.204 F 
ENDBRANCH  28  30
ENDBRANCH  25  26
ENDBRANCH   5  25
TORSDOF 6
