REMARK  Name = ZINC28182454
REMARK  8 active torsions:
REMARK  status: ('A' for Active; 'I' for Inactive)
REMARK    1  A    between atoms: C_1  and  C_2
REMARK    2  A    between atoms: C_5  and  C_35
REMARK    3  A    between atoms: N_8  and  C_10
REMARK    4  A    between atoms: C_10  and  C_11
REMARK    5  A    between atoms: C_19  and  C_20
REMARK    6  A    between atoms: N_22  and  C_31
REMARK    7  A    between atoms: C_26  and  O_29
REMARK    8  A    between atoms: O_29  and  C_30
REMARK                            x       y       z     vdW  Elec       q    Type
REMARK                         _______ _______ _______ _____ _____    ______ ____
ROOT
ATOM      1  C   UNL     1       6.607   6.748  -0.029  0.00  0.00    +0.026 A 
ATOM      2  C   UNL     1       7.868   7.323  -0.040  0.00  0.00    +0.184 A 
ATOM      3  C   UNL     1       9.009   6.527  -0.055  0.00  0.00    +0.052 A 
ATOM      4  C   UNL     1       8.898   5.164  -0.059  0.00  0.00    +0.019 A 
ATOM      5  C   UNL     1       7.636   4.571  -0.050  0.00  0.00    +0.068 A 
ATOM      6  C   UNL     1       6.477   5.366  -0.034  0.00  0.00    +0.144 A 
ATOM      7  O   UNL     1       5.396   4.558  -0.032  0.00  0.00    -0.451 OA
ATOM      8  C   UNL     1       5.754   3.252  -0.037  0.00  0.00    +0.176 C 
ATOM      9  C   UNL     1       4.898   2.192  -0.034  0.00  0.00    +0.060 C 
ATOM     10  C   UNL     1       7.171   3.173  -0.051  0.00  0.00    +0.231 C 
ATOM     11  O   UNL     1       7.858   2.164  -0.062  0.00  0.00    -0.283 OA
ATOM     12  O   UNL     1       7.991   8.675  -0.035  0.00  0.00    -0.288 OA
ENDROOT
BRANCH   9  13
ATOM     13  C   UNL     1       3.454   2.418  -0.019  0.00  0.00    +0.004 A 
ATOM     14  C   UNL     1       2.808   3.636  -0.005  0.00  0.00    +0.094 A 
ATOM     15  N   UNL     1       1.468   3.437   0.006  0.00  0.00    -0.349 N 
ATOM     16  C   UNL     1       1.178   2.086   0.002  0.00  0.00    +0.050 A 
ATOM     17  C   UNL     1       2.397   1.389  -0.014  0.00  0.00    +0.011 A 
ATOM     18  C   UNL     1       2.406  -0.003  -0.021  0.00  0.00    +0.056 A 
ATOM     19  C   UNL     1       1.209  -0.695  -0.013  0.00  0.00    +0.121 A 
ATOM     20  C   UNL     1       0.002  -0.004   0.002  0.00  0.00    +0.047 A 
ATOM     21  C   UNL     1      -0.017   1.373   0.010  0.00  0.00    +0.030 A 
ATOM     22  C   UNL     1       0.465   4.505   0.022  0.00  0.00    +0.149 C 
BRANCH  19  23
ATOM     23  O   UNL     1       1.212  -2.055  -0.021  0.00  0.00    -0.495 OA
ATOM     24  C   UNL     1      -0.060  -2.707  -0.012  0.00  0.00    +0.277 C 
ENDBRANCH  19  23
ENDBRANCH   9  13
BRANCH   1  25
ATOM     25  C   UNL     1       5.380   7.621  -0.013  0.00  0.00    -0.035 C 
BRANCH  25  31
ATOM     26  C   UNL     1       3.847   5.697   4.247  0.00  0.00    +0.005 C 
ATOM     27  C   UNL     1       4.314   6.970   3.540  0.00  0.00    -0.031 C 
ATOM     28  C   UNL     1       3.233   8.048   3.660  0.00  0.00    +0.003 C 
ATOM     29  C   UNL     1       3.683   9.299   2.901  0.00  0.00    -0.031 C 
ATOM     30  C   UNL     1       3.954   8.932   1.440  0.00  0.00    -0.075 C 
ATOM     31  N   UNL     1       4.995   7.899   1.378  0.00  0.00    +0.383 N 
ATOM     32  C   UNL     1       4.567   6.671   2.060  0.00  0.00    -0.075 C 
ATOM     33  C   UNL     1       4.961   9.850   3.534  0.00  0.00    +0.005 C 
ATOM     34  H   UNL     1       5.881   8.284   1.905  0.00  0.00    -0.081 HD
ENDBRANCH  25  31
ENDBRANCH   1  25
TORSDOF 4
