REMARK  Name = ZINC06471535
REMARK  7 active torsions:
REMARK  status: ('A' for Active; 'I' for Inactive)
REMARK    1  A    between atoms: C_1  and  C_2
REMARK    2  A    between atoms: C_5  and  C_7
REMARK    3  A    between atoms: N_8  and  N_9
REMARK    4  A    between atoms: C_10  and  C_12
REMARK    5  A    between atoms: C_17  and  N_18
REMARK    6  A    between atoms: N_18  and  S_19
REMARK    7  A    between atoms: S_19  and  C_22
REMARK                            x       y       z     vdW  Elec       q    Type
REMARK                         _______ _______ _______ _____ _____    ______ ____
ROOT
ATOM      1  C   UNL     1      -4.172  -2.408   6.894  0.00  0.00    +0.063 A 
ATOM      2  C   UNL     1      -4.809  -1.424   7.655  0.00  0.00    +0.015 A 
ATOM      3  C   UNL     1      -5.521  -1.778   8.779  0.00  0.00    +0.001 A 
ATOM      4  C   UNL     1      -5.609  -3.108   9.162  0.00  0.00    +0.002 A 
ATOM      5  C   UNL     1      -4.985  -4.091   8.422  0.00  0.00    +0.027 A 
ATOM      6  C   UNL     1      -4.268  -3.753   7.281  0.00  0.00    +0.086 A 
ENDROOT
BRANCH   1   8
ATOM      7  N   UNL     1      -3.324  -0.742   5.318  0.00  0.00    -0.203 N 
ATOM      8  C   UNL     1      -3.408  -2.035   5.689  0.00  0.00    +0.265 C 
ATOM      9  O   UNL     1      -2.855  -2.895   5.030  0.00  0.00    -0.268 OA
ATOM     10  H   UNL     1      -3.824   0.035   5.914  0.00  0.00    +0.178 HD
BRANCH   7  12
ATOM     11  C   UNL     1      -2.517   0.860   3.815  0.00  0.00    +0.176 C 
ATOM     12  N   UNL     1      -2.598  -0.388   4.173  0.00  0.00    -0.184 NA
BRANCH  11  17
ATOM     13  C   UNL     1       0.305   0.488  -0.307  0.00  0.00    +0.086 C 
ATOM     14  C   UNL     1      -0.520   1.075   0.809  0.00  0.00    +0.103 A 
ATOM     15  C   UNL     1      -0.794   2.385   0.978  0.00  0.00    +0.045 A 
ATOM     16  C   UNL     1      -1.592   2.495   2.132  0.00  0.00    +0.051 A 
ATOM     17  C   UNL     1      -1.757   1.230   2.617  0.00  0.00    +0.148 A 
ATOM     18  O   UNL     1      -1.100   0.381   1.802  0.00  0.00    -0.459 OA
ENDBRANCH  11  17
ENDBRANCH   7  12
ENDBRANCH   1   8
BRANCH   6  19
ATOM     19  N   UNL     1      -3.643  -4.742   6.532  0.00  0.00    -0.097 NA
BRANCH  19  20
ATOM     20  S   UNL     1      -4.356  -6.227   6.363  0.00  0.00    +0.098 S 
ATOM     21  O   UNL     1      -3.556  -6.959   5.444  0.00  0.00    -0.148 OA
ATOM     22  O   UNL     1      -4.630  -6.697   7.676  0.00  0.00    -0.148 OA
BRANCH  20  23
ATOM     23  C   UNL     1      -5.915  -5.973   5.583  0.00  0.00    +0.148 A 
ATOM     24  C   UNL     1      -6.215  -5.960   4.261  0.00  0.00    +0.037 A 
ATOM     25  C   UNL     1      -7.524  -5.739   3.874  0.00  0.00    +0.010 A 
ATOM     26  C   UNL     1      -8.467  -5.540   4.827  0.00  0.00    +0.047 A 
ATOM     27  S   UNL     1      -7.509  -5.671   6.328  0.00  0.00    -0.077 S 
ENDBRANCH  20  23
ENDBRANCH  19  20
ENDBRANCH   6  19
TORSDOF 6
