REMARK  Name = ZINC63399683
REMARK  8 active torsions:
REMARK  status: ('A' for Active; 'I' for Inactive)
REMARK    1  A    between atoms: C_1  and  C_2
REMARK    2  A    between atoms: C_2  and  C_3
REMARK    3  A    between atoms: C_3  and  C_4
REMARK    4  A    between atoms: C_4  and  N_5
REMARK    5  A    between atoms: C_6  and  S_12
REMARK    6  A    between atoms: S_12  and  C_13
REMARK    7  A    between atoms: C_13  and  C_14
REMARK    8  A    between atoms: N_16  and  C_17
REMARK                            x       y       z     vdW  Elec       q    Type
REMARK                         _______ _______ _______ _____ _____    ______ ____
ROOT
ATOM      1  C   UNL     1      -4.094  -3.073   5.255  0.00  0.00    +0.225 C 
ATOM      2  O   UNL     1      -3.003  -2.673   5.601  0.00  0.00    -0.275 OA
ATOM      3  N   UNL     1      -5.011  -3.415   6.181  0.00  0.00    -0.288 N 
ATOM      4  H   UNL     1      -5.884  -3.735   5.904  0.00  0.00    +0.151 HD
ENDROOT
BRANCH   3   5
ATOM      5  C   UNL     1      -4.691  -3.302   7.606  0.00  0.00    +0.224 C 
ATOM      6  N   UNL     1      -5.895  -3.455   8.433  0.00  0.00    -0.316 N 
ATOM      7  C   UNL     1      -5.934  -4.531   9.323  0.00  0.00    +0.046 A 
ATOM      8  C   UNL     1      -6.998  -4.834  10.191  0.00  0.00    +0.073 A 
ATOM      9  C   UNL     1      -6.947  -5.923  11.040  0.00  0.00    +0.164 A 
ATOM     10  C   UNL     1      -5.834  -6.755  11.055  0.00  0.00    +0.163 A 
ATOM     11  C   UNL     1      -4.771  -6.475  10.208  0.00  0.00    +0.066 A 
ATOM     12  C   UNL     1      -4.830  -5.387   9.367  0.00  0.00    +0.036 A 
ATOM     13  S   UNL     1      -3.685  -4.733   8.172  0.00  0.00    -0.082 S 
ATOM     14  O   UNL     1      -5.772  -7.835  11.880  0.00  0.00    -0.485 OA
ATOM     15  C   UNL     1      -6.699  -7.864  12.971  0.00  0.00    +0.270 C 
ATOM     16  C   UNL     1      -8.085  -7.485  12.431  0.00  0.00    +0.270 C 
ATOM     17  O   UNL     1      -8.004  -6.173  11.867  0.00  0.00    -0.485 OA
ATOM     18  H   UNL     1      -6.635  -2.832   8.364  0.00  0.00    +0.149 HD
ENDBRANCH   3   5
BRANCH   1  19
ATOM     19  C   UNL     1      -4.425  -3.189   3.789  0.00  0.00    +0.173 C 
BRANCH  19  20
ATOM     20  S   UNL     1      -2.997  -2.659   2.804  0.00  0.00    -0.077 S 
BRANCH  20  22
ATOM     21  N   UNL     1      -2.787  -2.571   0.015  0.00  0.00    -0.271 N 
ATOM     22  C   UNL     1      -3.534  -2.850   1.137  0.00  0.00    +0.192 A 
ATOM     23  H   UNL     1      -5.481  -3.559  -1.198  0.00  0.00    +0.194 HD
ATOM     24  N   UNL     1      -4.704  -3.280   0.761  0.00  0.00    -0.145 NA
ATOM     25  N   UNL     1      -4.735  -3.286  -0.641  0.00  0.00    -0.226 N 
ATOM     26  C   UNL     1      -3.538  -2.837  -1.072  0.00  0.00    +0.345 A 
ATOM     27  O   UNL     1      -3.197  -2.701  -2.234  0.00  0.00    -0.245 OA
BRANCH  21  28
ATOM     28  C   UNL     1      -1.413  -2.063   0.004  0.00  0.00    +0.129 C 
BRANCH  28  29
ATOM     29  C   UNL     1      -1.433  -0.534   0.013  0.00  0.00    +0.021 C 
BRANCH  29  31
ATOM     30  C   UNL     1      -0.019   1.526   0.010  0.00  0.00    +0.004 C 
ATOM     31  C   UNL     1       0.002  -0.004   0.002  0.00  0.00    -0.002 C 
ENDBRANCH  29  31
ENDBRANCH  28  29
ENDBRANCH  21  28
ENDBRANCH  20  22
ENDBRANCH  19  20
ENDBRANCH   1  19
TORSDOF 7
