REMARK  Name = ZINC38685153
REMARK  15 active torsions:
REMARK  status: ('A' for Active; 'I' for Inactive)
REMARK    1  A    between atoms: C_1  and  C_2
REMARK    2  A    between atoms: C_2  and  C_3
REMARK    3  A    between atoms: C_3  and  C_4
REMARK    4  A    between atoms: C_4  and  O_5
REMARK    5  A    between atoms: O_5  and  C_6
REMARK    6  A    between atoms: C_10  and  C_12
REMARK    7  A    between atoms: C_17  and  O_26
REMARK    8  A    between atoms: C_21  and  N_25
REMARK    9  A    between atoms: C_22  and  C_23
REMARK   10  A    between atoms: O_26  and  C_27
REMARK   11  A    between atoms: C_27  and  C_29
REMARK   12  A    between atoms: C_29  and  O_30
REMARK   13  A    between atoms: O_30  and  C_31
REMARK   14  A    between atoms: C_32  and  C_38
REMARK   15  A    between atoms: C_36  and  C_37
REMARK                            x       y       z     vdW  Elec       q    Type
REMARK                         _______ _______ _______ _____ _____    ______ ____
ROOT
ATOM      1  C   UNL     1       3.044  -6.383   4.943  0.00  0.00    +0.098 C 
ATOM      2  C   UNL     1       2.083  -7.230   5.735  0.00  0.00    +0.008 A 
ATOM      3  C   UNL     1       1.200  -6.621   6.609  0.00  0.00    +0.012 A 
ATOM      4  C   UNL     1       0.311  -7.381   7.343  0.00  0.00    +0.047 A 
ATOM      5  C   UNL     1       0.303  -8.762   7.206  0.00  0.00    +0.135 A 
ATOM      6  C   UNL     1       1.187  -9.375   6.333  0.00  0.00    +0.093 A 
ATOM      7  C   UNL     1       2.079  -8.609   5.595  0.00  0.00    +0.138 A 
ATOM      8  O   UNL     1       2.937  -9.224   4.744  0.00  0.00    -0.441 OA
ATOM      9  C   UNL     1       4.040  -8.582   4.324  0.00  0.00    +0.199 C 
ATOM     10  C   UNL     1       4.150  -7.237   4.390  0.00  0.00    +0.098 C 
ENDROOT
BRANCH   1  15
ATOM     11  C   UNL     1       1.581  -3.738   2.676  0.00  0.00    +0.121 A 
ATOM     12  C   UNL     1       0.952  -4.517   1.715  0.00  0.00    +0.045 A 
ATOM     13  C   UNL     1       1.003  -5.895   1.803  0.00  0.00    +0.004 A 
ATOM     14  C   UNL     1       1.681  -6.497   2.847  0.00  0.00    +0.005 A 
ATOM     15  C   UNL     1       2.307  -5.723   3.806  0.00  0.00    -0.031 A 
ATOM     16  C   UNL     1       2.264  -4.345   3.720  0.00  0.00    +0.050 A 
BRANCH  11  17
ATOM     17  O   UNL     1       1.532  -2.382   2.591  0.00  0.00    -0.492 OA
BRANCH  17  18
ATOM     18  C   UNL     1       0.810  -1.827   1.490  0.00  0.00    +0.229 C 
BRANCH  18  19
ATOM     19  C   UNL     1       0.866  -0.299   1.563  0.00  0.00    +0.041 C 
BRANCH  19  21
ATOM     20  C   UNL     1       0.149   1.823   0.456  0.00  0.00    +0.004 C 
ATOM     21  C   UNL     1       0.094   0.296   0.384  0.00  0.00    -0.000 C 
ENDBRANCH  19  21
ENDBRANCH  18  19
ENDBRANCH  17  18
ENDBRANCH  11  17
ENDBRANCH   1  15
BRANCH   9  22
ATOM     22  N   UNL     1       5.082  -9.313   3.811  0.00  0.00    -0.328 N 
ATOM     23  H   UNL     1       5.016 -10.279   3.756  0.00  0.00    +0.145 HD
ATOM     24  H   UNL     1       5.885  -8.863   3.503  0.00  0.00    +0.145 HD
ENDBRANCH   9  22
BRANCH  10  25
ATOM     25  C   UNL     1       5.352  -6.613   3.924  0.00  0.00    +0.101 C 
ATOM     26  N   UNL     1       6.305  -6.118   3.553  0.00  0.00    -0.191 NA
ENDBRANCH  10  25
BRANCH   5  27
ATOM     27  O   UNL     1      -0.570  -9.513   7.929  0.00  0.00    -0.423 OA
BRANCH  27  28
ATOM     28  C   UNL     1      -0.075 -10.294   8.902  0.00  0.00    +0.350 C 
ATOM     29  O   UNL     1       1.099 -10.239   9.182  0.00  0.00    -0.247 OA
BRANCH  28  30
ATOM     30  C   UNL     1      -0.983 -11.241   9.644  0.00  0.00    +0.349 C 
BRANCH  30  31
ATOM     31  O   UNL     1      -0.227 -11.957  10.622  0.00  0.00    -0.480 OA
BRANCH  31  32
ATOM     32  C   UNL     1      -0.902 -12.858  11.384  0.00  0.00    +0.127 A 
ATOM     33  C   UNL     1      -1.484 -12.461  12.579  0.00  0.00    -0.009 A 
ATOM     34  C   UNL     1      -2.170 -13.378  13.351  0.00  0.00    +0.007 A 
ATOM     35  C   UNL     1      -2.274 -14.693  12.934  0.00  0.00    +0.001 A 
ATOM     36  C   UNL     1      -1.694 -15.092  11.745  0.00  0.00    +0.007 A 
ATOM     37  C   UNL     1      -1.013 -14.176  10.966  0.00  0.00    -0.009 A 
ATOM     38  C   UNL     1      -0.386 -14.611   9.666  0.00  0.00    +0.047 C 
ATOM     39  C   UNL     1      -1.370 -11.028  13.034  0.00  0.00    +0.047 C 
ENDBRANCH  31  32
ENDBRANCH  30  31
ENDBRANCH  28  30
ENDBRANCH  27  28
ENDBRANCH   5  27
TORSDOF 12
