REMARK  Name = ZINC36005425
REMARK  16 active torsions:
REMARK  status: ('A' for Active; 'I' for Inactive)
REMARK    1  A    between atoms: C_1  and  C_2
REMARK    2  A    between atoms: C_2  and  O_3
REMARK    3  A    between atoms: O_3  and  C_4
REMARK    4  A    between atoms: C_4  and  C_6
REMARK    5  A    between atoms: C_7  and  C_24
REMARK    6  A    between atoms: N_8  and  C_23
REMARK    7  A    between atoms: C_12  and  C_14
REMARK    8  A    between atoms: C_17  and  C_20
REMARK    9  A    between atoms: C_20  and  C_21
REMARK   10  A    between atoms: C_20  and  C_22
REMARK   11  A    between atoms: C_24  and  N_25
REMARK   12  A    between atoms: C_29  and  C_32
REMARK   13  A    between atoms: N_35  and  C_36
REMARK   14  A    between atoms: C_36  and  C_37
REMARK   15  A    between atoms: C_36  and  C_38
REMARK   16  A    between atoms: C_36  and  C_39
REMARK                            x       y       z     vdW  Elec       q    Type
REMARK                         _______ _______ _______ _____ _____    ______ ____
ROOT
ATOM      1  C   UNL     1       1.224  -2.350  -2.893  0.00  0.00    +0.080 C 
ATOM      2  C   UNL     1       1.450  -3.670  -3.067  0.00  0.00    +0.041 C 
ATOM      3  N   UNL     1       1.910  -4.155  -4.257  0.00  0.00    -0.260 N 
ATOM      4  C   UNL     1       2.169  -3.386  -5.322  0.00  0.00    +0.307 C 
ATOM      5  O   UNL     1       2.577  -3.910  -6.341  0.00  0.00    -0.252 OA
ATOM      6  N   UNL     1       1.993  -2.050  -5.302  0.00  0.00    -0.288 N 
ATOM      7  C   UNL     1       1.493  -1.427  -4.065  0.00  0.00    +0.144 C 
ATOM      8  C   UNL     1       2.133  -5.598  -4.376  0.00  0.00    +0.139 C 
ATOM      9  H   UNL     1       2.187  -1.512  -6.085  0.00  0.00    +0.151 HD
ENDROOT
BRANCH   7  10
ATOM     10  C   UNL     1       2.504  -0.401  -3.625  0.00  0.00    -0.022 A 
ATOM     11  C   UNL     1       3.848  -0.722  -3.597  0.00  0.00    +0.006 A 
ATOM     12  C   UNL     1       4.776   0.220  -3.194  0.00  0.00    +0.004 A 
ATOM     13  C   UNL     1       4.360   1.484  -2.820  0.00  0.00    -0.045 A 
ATOM     14  C   UNL     1       3.016   1.806  -2.849  0.00  0.00    +0.004 A 
ATOM     15  C   UNL     1       2.089   0.865  -3.256  0.00  0.00    +0.006 A 
BRANCH  13  16
ATOM     16  C   UNL     1       5.372   2.510  -2.380  0.00  0.00    +0.013 C 
ATOM     17  C   UNL     1       5.303   3.725  -3.308  0.00  0.00    +0.012 C 
ATOM     18  C   UNL     1       5.065   2.947  -0.946  0.00  0.00    +0.012 C 
ENDBRANCH  13  16
ENDBRANCH   7  10
BRANCH   1  19
ATOM     19  C   UNL     1       0.747  -1.846  -1.660  0.00  0.00    +0.339 C 
ATOM     20  O   UNL     1      -0.416  -1.506  -1.551  0.00  0.00    -0.245 OA
BRANCH  19  21
ATOM     21  O   UNL     1       1.582  -1.742  -0.605  0.00  0.00    -0.462 OA
BRANCH  21  23
ATOM     22  C   UNL     1       2.121  -1.181   1.683  0.00  0.00    +0.048 C 
ATOM     23  C   UNL     1       1.033  -1.224   0.609  0.00  0.00    +0.229 C 
ENDBRANCH  21  23
ENDBRANCH  19  21
ENDBRANCH   1  19
BRANCH   2  24
ATOM     24  C   UNL     1       1.191  -4.622  -1.928  0.00  0.00    +0.136 C 
BRANCH  24  25
ATOM     25  N   UNL     1       0.093  -5.530  -2.289  0.00  0.00    -0.294 NA
ATOM     26  C   UNL     1      -1.171  -4.795  -2.435  0.00  0.00    +0.104 C 
ATOM     27  C   UNL     1      -2.246  -5.739  -2.985  0.00  0.00    +0.125 C 
ATOM     28  N   UNL     1      -2.312  -6.926  -2.120  0.00  0.00    -0.280 N 
ATOM     29  C   UNL     1      -1.061  -7.637  -1.816  0.00  0.00    +0.088 C 
ATOM     30  C   UNL     1      -0.033  -6.619  -1.312  0.00  0.00    +0.107 C 
ATOM     31  C   UNL     1      -1.318  -8.691  -0.738  0.00  0.00    +0.029 C 
ATOM     32  C   UNL     1      -3.489  -7.352  -1.619  0.00  0.00    +0.303 C 
ATOM     33  O   UNL     1      -3.516  -8.283  -0.837  0.00  0.00    -0.253 OA
ATOM     34  N   UNL     1      -4.636  -6.746  -1.985  0.00  0.00    -0.294 N 
ATOM     35  H   UNL     1      -4.623  -6.050  -2.661  0.00  0.00    +0.151 HD
BRANCH  34  36
ATOM     36  C   UNL     1      -5.902  -7.137  -1.361  0.00  0.00    +0.028 C 
ATOM     37  C   UNL     1      -5.823  -6.898   0.148  0.00  0.00    +0.031 C 
ATOM     38  C   UNL     1      -7.041  -6.302  -1.950  0.00  0.00    +0.031 C 
ATOM     39  C   UNL     1      -6.166  -8.620  -1.629  0.00  0.00    +0.031 C 
ENDBRANCH  34  36
ENDBRANCH  24  25
ENDBRANCH   2  24
TORSDOF 8
