REMARK  Name = ZINC41584717
REMARK  5 active torsions:
REMARK  status: ('A' for Active; 'I' for Inactive)
REMARK    1  A    between atoms: C_1  and  C_2
REMARK    2  A    between atoms: C_4  and  O_37
REMARK    3  A    between atoms: C_5  and  C_20
REMARK    4  A    between atoms: C_11  and  C_12
REMARK    5  A    between atoms: C_20  and  N_21
REMARK                            x       y       z     vdW  Elec       q    Type
REMARK                         _______ _______ _______ _____ _____    ______ ____
ROOT
ATOM      1  C   UNL     1      -0.650   1.598   0.131  0.00  0.00    +0.045 C 
ATOM      2  C   UNL     1      -0.758   0.095   0.111  0.00  0.00    -0.033 A 
ATOM      3  C   UNL     1      -1.037  -0.555  -1.057  0.00  0.00    +0.050 A 
ATOM      4  C   UNL     1      -1.137  -1.944  -1.078  0.00  0.00    +0.122 A 
ATOM      5  C   UNL     1      -0.955  -2.681   0.081  0.00  0.00    +0.020 A 
ATOM      6  C   UNL     1      -0.670  -2.035   1.278  0.00  0.00    +0.145 A 
ATOM      7  C   UNL     1      -0.567  -0.634   1.285  0.00  0.00    +0.071 A 
ATOM      8  C   UNL     1      -0.255  -0.248   2.673  0.00  0.00    +0.232 C 
ATOM      9  O   UNL     1      -0.087   0.875   3.115  0.00  0.00    -0.283 OA
ATOM     10  C   UNL     1      -0.192  -1.523   3.405  0.00  0.00    +0.176 C 
ATOM     11  C   UNL     1       0.069  -1.675   4.728  0.00  0.00    +0.059 C 
ATOM     12  O   UNL     1      -0.454  -2.515   2.522  0.00  0.00    -0.451 OA
ENDROOT
BRANCH  11  13
ATOM     13  C   UNL     1      -0.018  -3.006   5.345  0.00  0.00    -0.003 A 
ATOM     14  C   UNL     1      -0.009  -4.155   4.545  0.00  0.00    +0.009 A 
ATOM     15  C   UNL     1      -0.091  -5.399   5.131  0.00  0.00    +0.001 A 
ATOM     16  C   UNL     1      -0.181  -5.516   6.508  0.00  0.00    +0.001 A 
ATOM     17  C   UNL     1      -0.191  -4.387   7.307  0.00  0.00    +0.020 A 
ATOM     18  C   UNL     1      -0.104  -3.133   6.737  0.00  0.00    +0.048 A 
ATOM     19 CL   UNL     1      -0.108  -1.717   7.741  0.00  0.00    -0.083 Cl
ENDBRANCH  11  13
BRANCH   4  20
ATOM     20  O   UNL     1      -1.416  -2.581  -2.244  0.00  0.00    -0.506 OA
ATOM     21  H   UNL     1      -0.633  -2.825  -2.755  0.00  0.00    +0.292 HD
ENDBRANCH   4  20
BRANCH   5  22
ATOM     22  C   UNL     1      -1.067  -4.183   0.044  0.00  0.00    -0.036 C 
BRANCH  22  23
ATOM     23  N   UNL     1       0.252  -4.765  -0.240  0.00  0.00    +0.383 N 
ATOM     24  C   UNL     1       0.170  -6.226  -0.150  0.00  0.00    -0.073 C 
ATOM     25  C   UNL     1       1.516  -6.871  -0.441  0.00  0.00    -0.007 C 
ATOM     26  C   UNL     1       2.040  -6.438  -1.813  0.00  0.00    +0.011 C 
ATOM     27  C   UNL     1       2.103  -4.906  -1.817  0.00  0.00    +0.020 C 
ATOM     28  C   UNL     1       0.678  -4.372  -1.592  0.00  0.00    -0.069 C 
ATOM     29  C   UNL     1       2.962  -4.444  -0.662  0.00  0.00    +0.023 A 
ATOM     30  C   UNL     1       3.625  -3.266  -0.804  0.00  0.00    +0.022 A 
ATOM     31  C   UNL     1       4.387  -2.747   0.249  0.00  0.00    +0.007 A 
ATOM     32  C   UNL     1       4.432  -3.431   1.428  0.00  0.00    +0.070 A 
ATOM     33  C   UNL     1       3.733  -4.641   1.543  0.00  0.00    +0.251 A 
ATOM     34  O   UNL     1       3.716  -5.229   2.612  0.00  0.00    -0.268 OA
ATOM     35  N   UNL     1       3.077  -5.163   0.478  0.00  0.00    -0.312 N 
ATOM     36  C   UNL     1       2.551  -6.519   0.615  0.00  0.00    +0.126 C 
ATOM     37  H   UNL     1       0.921  -4.426   0.434  0.00  0.00    -0.081 HD
ENDBRANCH  22  23
ENDBRANCH   5  22
TORSDOF 4
