REMARK  Name = ZINC47355043
REMARK  7 active torsions:
REMARK  status: ('A' for Active; 'I' for Inactive)
REMARK    1  A    between atoms: C_1  and  N_2
REMARK    2  A    between atoms: C_3  and  C_5
REMARK    3  A    between atoms: C_8  and  N_11
REMARK    4  A    between atoms: C_12  and  C_14
REMARK    5  A    between atoms: C_14  and  O_15
REMARK    6  A    between atoms: O_15  and  C_16
REMARK    7  A    between atoms: C_19  and  N_23
REMARK                            x       y       z     vdW  Elec       q    Type
REMARK                         _______ _______ _______ _____ _____    ______ ____
ROOT
ATOM      1  N   UNL     1       0.661  -6.305  -1.049  0.00  0.00    -0.283 N 
ATOM      2  C   UNL     1       1.159  -6.967  -2.113  0.00  0.00    +0.255 C 
ATOM      3  O   UNL     1       1.672  -6.352  -3.023  0.00  0.00    -0.272 OA
ATOM      4  H   UNL     1       0.321  -6.799  -0.287  0.00  0.00    +0.155 HD
ENDROOT
BRANCH   1   8
ATOM      5  C   UNL     1       0.587  -2.141  -1.034  0.00  0.00    +0.037 A 
ATOM      6  C   UNL     1       0.411  -2.840  -2.231  0.00  0.00    +0.015 A 
ATOM      7  C   UNL     1       0.437  -4.216  -2.233  0.00  0.00    +0.024 A 
ATOM      8  C   UNL     1       0.637  -4.911  -1.044  0.00  0.00    +0.034 A 
ATOM      9  C   UNL     1       0.812  -4.218   0.150  0.00  0.00    +0.024 A 
ATOM     10  C   UNL     1       0.793  -2.842   0.157  0.00  0.00    +0.015 A 
BRANCH   5  13
ATOM     11  C   UNL     1       0.335   1.474  -2.173  0.00  0.00    +0.128 C 
ATOM     12  N   UNL     1       0.361   0.010  -2.178  0.00  0.00    -0.314 N 
ATOM     13  C   UNL     1       0.560  -0.665  -1.028  0.00  0.00    +0.244 C 
ATOM     14  O   UNL     1       0.718  -0.058   0.013  0.00  0.00    -0.270 OA
ATOM     15  H   UNL     1       0.235  -0.475  -3.009  0.00  0.00    +0.149 HD
ENDBRANCH   5  13
ENDBRANCH   1   8
BRANCH   2  16
ATOM     16  C   UNL     1       1.077  -8.470  -2.171  0.00  0.00    +0.325 C 
BRANCH  16  17
ATOM     17  O   UNL     1       1.668  -8.933  -3.387  0.00  0.00    -0.480 OA
BRANCH  17  18
ATOM     18  C   UNL     1       1.676 -10.276  -3.597  0.00  0.00    +0.156 A 
ATOM     19  C   UNL     1       1.123 -11.130  -2.655  0.00  0.00    +0.051 A 
ATOM     20  C   UNL     1       1.133 -12.495  -2.871  0.00  0.00    +0.036 A 
ATOM     21  C   UNL     1       1.694 -13.011  -4.024  0.00  0.00    +0.129 A 
ATOM     22  C   UNL     1       2.247 -12.163  -4.966  0.00  0.00    +0.074 A 
ATOM     23  C   UNL     1       2.234 -10.795  -4.758  0.00  0.00    +0.167 A 
ATOM     24  F   UNL     1       2.769  -9.966  -5.681  0.00  0.00    -0.202 F 
BRANCH  21  25
ATOM     25  N   UNL     1       1.703 -14.473  -4.251  0.00  0.00    +0.057 N 
ATOM     26  O   UNL     1       1.220 -15.216  -3.429  0.00  0.00    -0.126 OA
ATOM     27  O   UNL     1       2.193 -14.925  -5.260  0.00  0.00    -0.126 OA
ENDBRANCH  21  25
ENDBRANCH  17  18
ENDBRANCH  16  17
ENDBRANCH   2  16
TORSDOF 6
