REMARK  Name = ZINC21032691
REMARK  8 active torsions:
REMARK  status: ('A' for Active; 'I' for Inactive)
REMARK    1  A    between atoms: C_1  and  C_2
REMARK    2  A    between atoms: C_2  and  C_4
REMARK    3  A    between atoms: C_2  and  N_17
REMARK    4  A    between atoms: C_10  and  C_12
REMARK    5  A    between atoms: C_18  and  C_20
REMARK    6  A    between atoms: C_21  and  C_22
REMARK    7  A    between atoms: C_25  and  O_28
REMARK    8  A    between atoms: O_28  and  C_29
REMARK                            x       y       z     vdW  Elec       q    Type
REMARK                         _______ _______ _______ _____ _____    ______ ____
ROOT
ATOM      1  C   UNL     1      -0.019   1.526   0.010  0.00  0.00    +0.038 C 
ATOM      2  C   UNL     1       0.002  -0.004   0.002  0.00  0.00    +0.156 C 
ENDROOT
BRANCH   2   3
ATOM      3  C   UNL     1       0.707  -0.490  -1.238  0.00  0.00    +0.236 C 
ATOM      4  O   UNL     1       1.704  -1.174  -1.140  0.00  0.00    -0.274 OA
ATOM      5  N   UNL     1       0.231  -0.164  -2.456  0.00  0.00    -0.292 N 
ATOM      6  C   UNL     1      -0.961   0.662  -2.719  0.00  0.00    +0.108 C 
ATOM      7  C   UNL     1      -1.432   0.239  -4.133  0.00  0.00    +0.021 C 
ATOM      8  C   UNL     1      -0.079   0.010  -4.856  0.00  0.00    +0.029 C 
ATOM      9  C   UNL     1       0.818  -0.569  -3.742  0.00  0.00    +0.113 C 
BRANCH   9  10
ATOM     10  C   UNL     1       2.214  -0.016  -3.865  0.00  0.00    +0.010 A 
ATOM     11  C   UNL     1       3.323  -0.603  -4.377  0.00  0.00    +0.013 A 
ATOM     12  C   UNL     1       4.511   0.102  -4.387  0.00  0.00    +0.008 A 
ATOM     13  C   UNL     1       4.533   1.361  -3.885  0.00  0.00    +0.045 A 
ATOM     14  S   UNL     1       2.835   1.587  -3.381  0.00  0.00    -0.100 S 
ENDBRANCH   9  10
ENDBRANCH   2   3
BRANCH   2  15
ATOM     15  N   UNL     1       0.711  -0.489   1.189  0.00  0.00    -0.301 N 
ATOM     16  C   UNL     1       0.051  -0.633   2.355  0.00  0.00    +0.237 C 
ATOM     17  O   UNL     1      -1.133  -0.360   2.423  0.00  0.00    -0.271 OA
ATOM     18  H   UNL     1       1.654  -0.707   1.135  0.00  0.00    +0.150 HD
BRANCH  16  19
ATOM     19  C   UNL     1       0.759  -1.118   3.540  0.00  0.00    +0.068 C 
ATOM     20  C   UNL     1       0.098  -1.262   4.709  0.00  0.00    +0.013 C 
BRANCH  20  21
ATOM     21  C   UNL     1       0.809  -1.749   5.900  0.00  0.00    -0.025 A 
ATOM     22  C   UNL     1       2.172  -2.058   5.826  0.00  0.00    +0.011 A 
ATOM     23  C   UNL     1       2.833  -2.514   6.944  0.00  0.00    +0.046 A 
ATOM     24  C   UNL     1       2.150  -2.667   8.145  0.00  0.00    +0.120 A 
ATOM     25  C   UNL     1       0.796  -2.362   8.223  0.00  0.00    +0.046 A 
ATOM     26  C   UNL     1       0.127  -1.900   7.112  0.00  0.00    +0.011 A 
BRANCH  24  27
ATOM     27  O   UNL     1       2.806  -3.117   9.245  0.00  0.00    -0.495 OA
ATOM     28  C   UNL     1       2.044  -3.252  10.446  0.00  0.00    +0.277 C 
ENDBRANCH  24  27
ENDBRANCH  20  21
ENDBRANCH  16  19
ENDBRANCH   2  15
TORSDOF 6
