REMARK  Name = ZINC47704351
REMARK  5 active torsions:
REMARK  status: ('A' for Active; 'I' for Inactive)
REMARK    1  A    between atoms: C_1  and  C_2
REMARK    2  A    between atoms: C_5  and  N_8
REMARK    3  A    between atoms: C_9  and  C_11
REMARK    4  A    between atoms: N_13  and  C_14
REMARK    5  A    between atoms: C_14  and  C_15
REMARK                            x       y       z     vdW  Elec       q    Type
REMARK                         _______ _______ _______ _____ _____    ______ ____
ROOT
ATOM      1  C   UNL     1       0.348  -6.328   1.122  0.00  0.00    +0.300 C 
ATOM      2  O   UNL     1       0.327  -6.926   0.067  0.00  0.00    -0.265 OA
ATOM      3  N   UNL     1       0.459  -7.008   2.280  0.00  0.00    -0.303 N 
ATOM      4  H   UNL     1       0.475  -6.530   3.124  0.00  0.00    +0.149 HD
ENDROOT
BRANCH   1   6
ATOM      5  N   UNL     1       0.140  -4.157  -0.020  0.00  0.00    -0.278 N 
ATOM      6  C   UNL     1       0.251  -4.837   1.138  0.00  0.00    +0.303 C 
ATOM      7  O   UNL     1       0.272  -4.239   2.194  0.00  0.00    -0.265 OA
ATOM      8  H   UNL     1       0.046  -4.637  -0.857  0.00  0.00    +0.155 HD
BRANCH   5  13
ATOM      9  C   UNL     1       0.221   1.514   0.005  0.00  0.00    +0.044 C 
ATOM     10  C   UNL     1       0.199   0.007  -0.001  0.00  0.00    -0.050 A 
ATOM     11  C   UNL     1      -0.566  -0.668  -0.934  0.00  0.00    +0.005 A 
ATOM     12  C   UNL     1      -0.588  -2.049  -0.944  0.00  0.00    +0.023 A 
ATOM     13  C   UNL     1       0.160  -2.760  -0.014  0.00  0.00    +0.034 A 
ATOM     14  C   UNL     1       0.928  -2.079   0.922  0.00  0.00    +0.023 A 
ATOM     15  C   UNL     1       0.950  -0.698   0.922  0.00  0.00    +0.005 A 
ENDBRANCH   5  13
ENDBRANCH   1   6
BRANCH   3  16
ATOM     16  C   UNL     1       0.554  -8.470   2.265  0.00  0.00    +0.141 C 
BRANCH  16  17
ATOM     17  C   UNL     1       0.668  -8.981   3.678  0.00  0.00    -0.014 A 
ATOM     18  C   UNL     1       1.915  -9.135   4.270  0.00  0.00    +0.010 A 
ATOM     19  C   UNL     1       1.976  -9.607   5.568  0.00  0.00    +0.042 A 
ATOM     20  C   UNL     1       0.792  -9.910   6.234  0.00  0.00    +0.099 A 
ATOM     21  N   UNL     1      -0.378  -9.749   5.635  0.00  0.00    -0.349 N 
ATOM     22  C   UNL     1      -0.466  -9.295   4.399  0.00  0.00    +0.089 A 
ATOM     23  N   UNL     1       0.839 -10.385   7.539  0.00  0.00    -0.317 N 
ATOM     24  C   UNL     1       2.113 -10.414   8.222  0.00  0.00    +0.106 C 
ATOM     25  C   UNL     1       2.817 -11.767   7.952  0.00  0.00    +0.019 C 
ATOM     26  C   UNL     1       2.129 -12.852   8.668  0.00  0.00    +0.002 C 
ATOM     27  C   UNL     1       0.687 -13.082   8.227  0.00  0.00    +0.002 C 
ATOM     28  C   UNL     1      -0.222 -12.138   8.976  0.00  0.00    +0.019 C 
ATOM     29  C   UNL     1      -0.416 -10.835   8.174  0.00  0.00    +0.106 C 
ATOM     30  H   UNL     1      -1.190  -9.967   6.119  0.00  0.00    +0.167 HD
ENDBRANCH  16  17
ENDBRANCH   3  16
TORSDOF 4
