REMARK  Name = ZINC44611208
REMARK  5 active torsions:
REMARK  status: ('A' for Active; 'I' for Inactive)
REMARK    1  A    between atoms: C_1  and  C_2
REMARK    2  A    between atoms: C_4  and  C_7
REMARK    3  A    between atoms: C_7  and  N_8
REMARK    4  A    between atoms: N_8  and  C_9
REMARK    5  A    between atoms: C_10  and  C_12
REMARK                            x       y       z     vdW  Elec       q    Type
REMARK                         _______ _______ _______ _____ _____    ______ ____
ROOT
ATOM      1  N   UNL     1      -2.406  -3.364   1.479  0.00  0.00    -0.294 N 
ATOM      2  C   UNL     1      -3.374  -2.588   2.257  0.00  0.00    +0.133 C 
ATOM      3  C   UNL     1      -1.936  -4.532   1.960  0.00  0.00    +0.262 C 
ATOM      4  O   UNL     1      -1.058  -5.127   1.363  0.00  0.00    -0.269 OA
ENDROOT
BRANCH   3   5
ATOM      5  C   UNL     1      -2.482  -5.085   3.204  0.00  0.00    +0.121 C 
ATOM      6  N   UNL     1      -3.501  -4.513   3.766  0.00  0.00    -0.180 NA
ATOM      7  N   UNL     1      -4.047  -5.012   4.953  0.00  0.00    -0.207 N 
ATOM      8  C   UNL     1      -3.328  -5.835   5.741  0.00  0.00    +0.233 C 
ATOM      9  O   UNL     1      -3.805  -6.261   6.772  0.00  0.00    -0.274 OA
ATOM     10  C   UNL     1      -1.929  -6.226   5.337  0.00  0.00    +0.104 C 
ATOM     11  C   UNL     1      -1.855  -6.314   3.808  0.00  0.00    +0.071 C 
ATOM     12  H   UNL     1      -4.948  -4.763   5.211  0.00  0.00    +0.177 HD
ENDBRANCH   3   5
BRANCH   1  13
ATOM     13  C   UNL     1      -1.948  -2.870   0.177  0.00  0.00    +0.163 C 
BRANCH  13  17
ATOM     14  C   UNL     1       0.314   1.482   1.168  0.00  0.00    +0.073 C 
ATOM     15  C   UNL     1       0.240   0.015   0.830  0.00  0.00    +0.076 A 
ATOM     16  N   UNL     1      -0.824  -0.729   0.664  0.00  0.00    -0.248 NA
ATOM     17  C   UNL     1      -0.726  -2.010   0.368  0.00  0.00    +0.066 A 
ATOM     18  C   UNL     1       0.526  -2.518   0.242  0.00  0.00    +0.071 A 
ATOM     19  S   UNL     1       1.507  -1.061   0.565  0.00  0.00    -0.080 S 
ENDBRANCH  13  17
ENDBRANCH   1  13
TORSDOF 3
