REMARK  Name = ZINC06993886
REMARK  4 active torsions:
REMARK  status: ('A' for Active; 'I' for Inactive)
REMARK    1  A    between atoms: C_5  and  C_7
REMARK    2  A    between atoms: N_9  and  C_10
REMARK    3  A    between atoms: C_10  and  C_11
REMARK    4  A    between atoms: C_16  and  C_19
REMARK                            x       y       z     vdW  Elec       q    Type
REMARK                         _______ _______ _______ _____ _____    ______ ____
ROOT
ATOM      1  C   UNL     1      -1.288  -4.849  -0.012  0.00  0.00    +0.236 C 
ATOM      2  O   UNL     1      -2.225  -4.078   0.002  0.00  0.00    -0.274 OA
ATOM      3  N   UNL     1      -1.510  -6.178  -0.017  0.00  0.00    -0.263 N 
ATOM      4  C   UNL     1      -2.811  -6.666  -0.007  0.00  0.00    +0.165 A 
ATOM      5  N   UNL     1      -3.235  -7.916  -0.004  0.00  0.00    -0.225 NA
ATOM      6  C   UNL     1      -4.528  -8.204   0.007  0.00  0.00    +0.080 A 
ATOM      7  C   UNL     1      -5.441  -7.188   0.016  0.00  0.00    +0.076 A 
ATOM      8  S   UNL     1      -4.356  -5.767   0.015  0.00  0.00    -0.060 S 
ATOM      9  H   UNL     1      -0.761  -6.795  -0.028  0.00  0.00    +0.157 HD
ENDROOT
BRANCH   6  10
ATOM     10  C   UNL     1      -4.980  -9.617   0.009  0.00  0.00    +0.005 A 
ATOM     11  C   UNL     1      -6.341  -9.914   0.014  0.00  0.00    +0.014 A 
ATOM     12  C   UNL     1      -6.761 -11.229   0.016  0.00  0.00    +0.050 A 
ATOM     13  C   UNL     1      -5.831 -12.258   0.012  0.00  0.00    +0.166 A 
ATOM     14  C   UNL     1      -4.468 -11.966   0.007  0.00  0.00    +0.167 A 
ATOM     15  C   UNL     1      -4.044 -10.649   0.000  0.00  0.00    +0.059 A 
ATOM     16  O   UNL     1      -3.771 -13.140   0.005  0.00  0.00    -0.453 OA
ATOM     17  C   UNL     1      -4.712 -14.147   0.421  0.00  0.00    +0.466 C 
ATOM     18  O   UNL     1      -5.986 -13.614   0.013  0.00  0.00    -0.453 OA
ENDBRANCH   6  10
BRANCH   1  19
ATOM     19  C   UNL     1       0.123  -4.320  -0.023  0.00  0.00    +0.200 C 
BRANCH  19  22
ATOM     20  C   UNL     1       1.250  -2.160  -0.022  0.00  0.00    +0.247 C 
ATOM     21  O   UNL     1       2.314  -2.748  -0.036  0.00  0.00    -0.270 OA
ATOM     22  N   UNL     1       0.095  -2.855  -0.014  0.00  0.00    -0.303 N 
ATOM     23  H   UNL     1      -0.753  -2.386  -0.003  0.00  0.00    +0.150 HD
BRANCH  20  28
ATOM     24  C   UNL     1      -0.017   1.374   0.010  0.00  0.00    +0.001 A 
ATOM     25  C   UNL     1       1.170   2.087   0.002  0.00  0.00    +0.003 A 
ATOM     26  C   UNL     1       2.383   1.425  -0.013  0.00  0.00    +0.039 A 
ATOM     27  C   UNL     1       2.418   0.042  -0.021  0.00  0.00    +0.135 A 
ATOM     28  C   UNL     1       1.222  -0.683  -0.013  0.00  0.00    +0.072 A 
ATOM     29  C   UNL     1       0.002  -0.004   0.002  0.00  0.00    +0.016 A 
ATOM     30  F   UNL     1       3.603  -0.606  -0.037  0.00  0.00    -0.205 F 
ENDBRANCH  20  28
ENDBRANCH  19  22
ENDBRANCH   1  19
TORSDOF 4
