REMARK  Name = ZINC65394159
REMARK  7 active torsions:
REMARK  status: ('A' for Active; 'I' for Inactive)
REMARK    1  A    between atoms: C_1  and  C_2
REMARK    2  A    between atoms: C_4  and  C_7
REMARK    3  A    between atoms: C_7  and  C_9
REMARK    4  A    between atoms: C_7  and  N_10
REMARK    5  A    between atoms: C_11  and  C_13
REMARK    6  A    between atoms: C_13  and  O_19
REMARK    7  A    between atoms: O_19  and  C_20
REMARK                            x       y       z     vdW  Elec       q    Type
REMARK                         _______ _______ _______ _____ _____    ______ ____
ROOT
ATOM      1  C   UNL     1       2.801  -5.990  -1.521  0.00  0.00    +0.182 C 
ATOM      2  C   UNL     1       4.176  -5.366  -1.264  0.00  0.00    +0.038 C 
ATOM      3  C   UNL     1       4.815  -4.983  -2.601  0.00  0.00    -0.078 C 
ATOM      4  N   UNL     1       4.968  -6.181  -3.435  0.00  0.00    +0.379 N 
ATOM      5  C   UNL     1       3.649  -6.744  -3.745  0.00  0.00    -0.078 C 
ATOM      6  C   UNL     1       2.965  -7.195  -2.452  0.00  0.00    +0.038 C 
ATOM      7  H   UNL     1       5.438  -5.935  -4.293  0.00  0.00    -0.086 HD
ATOM      8  H   UNL     1       5.517  -6.867  -2.938  0.00  0.00    -0.086 HD
ENDROOT
BRANCH   1  10
ATOM      9  N   UNL     1       0.561  -5.117  -2.101  0.00  0.00    -0.301 N 
ATOM     10  C   UNL     1       1.899  -4.971  -2.169  0.00  0.00    +0.257 C 
ATOM     11  O   UNL     1       2.377  -4.021  -2.752  0.00  0.00    -0.271 OA
ATOM     12  H   UNL     1       0.179  -5.912  -1.697  0.00  0.00    +0.150 HD
BRANCH   9  13
ATOM     13  C   UNL     1      -0.318  -4.074  -2.637  0.00  0.00    +0.159 C 
ATOM     14  C   UNL     1      -0.517  -4.297  -4.138  0.00  0.00    +0.038 C 
BRANCH  13  18
ATOM     15  C   UNL     1      -4.496  -2.634  -0.280  0.00  0.00    +0.091 C 
ATOM     16  C   UNL     1      -3.462  -3.525  -0.919  0.00  0.00    +0.169 A 
ATOM     17  N   UNL     1      -2.320  -3.112  -1.479  0.00  0.00    -0.195 NA
ATOM     18  C   UNL     1      -1.652  -4.133  -1.939  0.00  0.00    +0.247 A 
ATOM     19  O   UNL     1      -2.355  -5.244  -1.684  0.00  0.00    -0.336 OA
ATOM     20  N   UNL     1      -3.533  -4.822  -1.012  0.00  0.00    -0.062 NA
ENDBRANCH  13  18
ENDBRANCH   9  13
ENDBRANCH   1  10
BRANCH   1  21
ATOM     21  O   UNL     1       2.229  -6.417  -0.283  0.00  0.00    -0.477 OA
BRANCH  21  22
ATOM     22  C   UNL     1       1.964  -5.454   0.638  0.00  0.00    +0.122 A 
ATOM     23  C   UNL     1       2.175  -4.118   0.328  0.00  0.00    +0.047 A 
ATOM     24  C   UNL     1       1.904  -3.141   1.266  0.00  0.00    +0.023 A 
ATOM     25  C   UNL     1       1.423  -3.493   2.514  0.00  0.00    +0.041 A 
ATOM     26  C   UNL     1       1.212  -4.824   2.826  0.00  0.00    +0.023 A 
ATOM     27  C   UNL     1       1.475  -5.804   1.888  0.00  0.00    +0.047 A 
ATOM     28 CL   UNL     1       1.084  -2.263   3.691  0.00  0.00    -0.084 Cl
ENDBRANCH  21  22
ENDBRANCH   1  21
TORSDOF 5
