REMARK  Name = ZINC08764353
REMARK  10 active torsions:
REMARK  status: ('A' for Active; 'I' for Inactive)
REMARK    1  A    between atoms: C_1  and  C_2
REMARK    2  A    between atoms: C_12  and  C_13
REMARK    3  A    between atoms: C_13  and  C_14
REMARK    4  A    between atoms: N_16  and  C_17
REMARK    5  A    between atoms: C_17  and  C_18
REMARK    6  A    between atoms: C_17  and  C_19
REMARK    7  A    between atoms: C_17  and  C_20
REMARK    8  A    between atoms: C_20  and  O_21
REMARK    9  A    between atoms: C_23  and  C_26
REMARK   10  A    between atoms: C_23  and  C_27
REMARK                            x       y       z     vdW  Elec       q    Type
REMARK                         _______ _______ _______ _____ _____    ______ ____
ROOT
ATOM      1  C   UNL     1      -2.413   0.969   2.512  0.00  0.00    +0.045 C 
ATOM      2  C   UNL     1      -2.968   0.494   1.194  0.00  0.00    -0.029 A 
ATOM      3  C   UNL     1      -4.067  -0.472   1.146  0.00  0.00    +0.021 A 
ATOM      4  C   UNL     1      -4.633  -0.983   2.318  0.00  0.00    +0.019 A 
ATOM      5  C   UNL     1      -5.659  -1.886   2.249  0.00  0.00    -0.005 A 
ATOM      6  C   UNL     1      -6.149  -2.298   1.014  0.00  0.00    +0.128 A 
ATOM      7  C   UNL     1      -5.596  -1.800  -0.160  0.00  0.00    +0.093 A 
ATOM      8  C   UNL     1      -4.555  -0.888  -0.107  0.00  0.00    +0.143 A 
ATOM      9  O   UNL     1      -4.007  -0.395  -1.239  0.00  0.00    -0.422 OA
ATOM     10  C   UNL     1      -3.002   0.494  -1.201  0.00  0.00    +0.341 A 
ATOM     11  O   UNL     1      -2.542   0.914  -2.248  0.00  0.00    -0.245 OA
ATOM     12  C   UNL     1      -2.462   0.950   0.019  0.00  0.00    +0.049 A 
ATOM     13  O   UNL     1      -7.173  -3.184   0.913  0.00  0.00    -0.486 OA
ATOM     14  C   UNL     1      -7.489  -3.973   2.061  0.00  0.00    +0.105 C 
ATOM     15  C   UNL     1      -7.606  -3.040   3.272  0.00  0.00    +0.052 C 
ATOM     16  C   UNL     1      -6.232  -2.420   3.538  0.00  0.00    +0.043 C 
ATOM     17  C   UNL     1      -6.377  -4.996   2.304  0.00  0.00    +0.055 C 
ATOM     18  C   UNL     1      -8.816  -4.699   1.837  0.00  0.00    +0.055 C 
ENDROOT
BRANCH  12  19
ATOM     19  C   UNL     1      -1.330   1.944   0.019  0.00  0.00    +0.138 C 
BRANCH  19  20
ATOM     20  C   UNL     1      -0.014   1.209   0.009  0.00  0.00    +0.218 C 
ATOM     21  O   UNL     1       0.002  -0.004   0.002  0.00  0.00    -0.275 OA
ATOM     22  N   UNL     1       1.143   1.898   0.001  0.00  0.00    -0.308 N 
ATOM     23  H   UNL     1       1.130   2.868   0.007  0.00  0.00    +0.149 HD
BRANCH  22  24
ATOM     24  C   UNL     1       2.422   1.183  -0.015  0.00  0.00    +0.052 C 
ATOM     25  C   UNL     1       2.527   0.298   1.229  0.00  0.00    +0.033 C 
ATOM     26  C   UNL     1       2.503   0.311  -1.270  0.00  0.00    +0.033 C 
BRANCH  24  27
ATOM     27  C   UNL     1       3.571   2.193  -0.020  0.00  0.00    +0.181 C 
BRANCH  27  28
ATOM     28  O   UNL     1       4.818   1.496  -0.036  0.00  0.00    -0.393 OA
ATOM     29  H   UNL     1       5.593   2.075  -0.040  0.00  0.00    +0.209 HD
ENDBRANCH  27  28
ENDBRANCH  24  27
ENDBRANCH  22  24
ENDBRANCH  19  20
ENDBRANCH  12  19
TORSDOF 5
