REMARK  Name = ZINC33043154
REMARK  8 active torsions:
REMARK  status: ('A' for Active; 'I' for Inactive)
REMARK    1  A    between atoms: C_1  and  N_2
REMARK    2  A    between atoms: C_5  and  N_24
REMARK    3  A    between atoms: C_6  and  O_15
REMARK    4  A    between atoms: N_9  and  C_14
REMARK    5  A    between atoms: O_15  and  C_16
REMARK    6  A    between atoms: C_19  and  O_22
REMARK    7  A    between atoms: O_22  and  C_23
REMARK    8  A    between atoms: C_25  and  C_27
REMARK                            x       y       z     vdW  Elec       q    Type
REMARK                         _______ _______ _______ _____ _____    ______ ____
ROOT
ATOM      1  C   UNL     1       5.985   7.612   0.485  0.00  0.00    +0.153 C 
ATOM      2  N   UNL     1       5.983   6.152   0.358  0.00  0.00    -0.305 N 
ATOM      3  C   UNL     1       4.775   5.465   0.268  0.00  0.00    +0.070 A 
ATOM      4  C   UNL     1       3.578   6.172   0.298  0.00  0.00    +0.055 A 
ATOM      5  C   UNL     1       2.372   5.498   0.203  0.00  0.00    +0.079 A 
ATOM      6  C   UNL     1       2.356   4.107   0.089  0.00  0.00    +0.152 A 
ATOM      7  C   UNL     1       3.544   3.400   0.060  0.00  0.00    +0.076 A 
ATOM      8  C   UNL     1       4.758   4.073   0.148  0.00  0.00    +0.072 A 
ATOM      9  N   UNL     1       5.948   3.351   0.117  0.00  0.00    -0.305 N 
ATOM     10  C   UNL     1       7.131   3.992   0.202  0.00  0.00    +0.316 A 
ATOM     11  O   UNL     1       8.172   3.366   0.175  0.00  0.00    -0.262 OA
ATOM     12  C   UNL     1       7.149   5.477   0.331  0.00  0.00    +0.316 A 
ATOM     13  O   UNL     1       8.205   6.073   0.409  0.00  0.00    -0.262 OA
ATOM     14  C   UNL     1       5.915   1.892  -0.008  0.00  0.00    +0.153 C 
ENDROOT
BRANCH   5  15
ATOM     15  N   UNL     1       1.168   6.213   0.227  0.00  0.00    -0.276 N 
ATOM     16  C   UNL     1       1.113   7.422   0.821  0.00  0.00    +0.284 C 
ATOM     17  O   UNL     1       2.080   7.847   1.426  0.00  0.00    -0.266 OA
ATOM     18  H   UNL     1       0.267   5.788  -0.239  0.00  0.00    +0.155 HD
BRANCH  16  19
ATOM     19  C   UNL     1      -0.110   8.224   0.737  0.00  0.00    +0.191 A 
ATOM     20  C   UNL     1      -0.301   9.457   1.295  0.00  0.00    +0.056 A 
ATOM     21  C   UNL     1      -1.606   9.852   0.964  0.00  0.00    +0.058 A 
ATOM     22  C   UNL     1      -2.152   8.851   0.235  0.00  0.00    +0.171 A 
ATOM     23  O   UNL     1      -1.247   7.872   0.101  0.00  0.00    -0.444 OA
ATOM     24 BR   UNL     1      -3.904   8.837  -0.476  0.00  0.00    -0.008 Br
ENDBRANCH  16  19
ENDBRANCH   5  15
BRANCH   6  25
ATOM     25  O   UNL     1       1.170   3.447   0.003  0.00  0.00    -0.454 OA
BRANCH  25  26
ATOM     26  C   UNL     1       1.196   2.087  -0.002  0.00  0.00    +0.129 A 
ATOM     27  C   UNL     1       1.627   1.397   1.121  0.00  0.00    +0.050 A 
ATOM     28  C   UNL     1       1.653   0.017   1.116  0.00  0.00    +0.049 A 
ATOM     29  C   UNL     1       1.246  -0.680  -0.012  0.00  0.00    +0.120 A 
ATOM     30  C   UNL     1       0.814   0.009  -1.135  0.00  0.00    +0.049 A 
ATOM     31  C   UNL     1       0.789   1.390  -1.131  0.00  0.00    +0.050 A 
BRANCH  29  32
ATOM     32  O   UNL     1       1.271  -2.040  -0.017  0.00  0.00    -0.495 OA
ATOM     33  C   UNL     1       0.838  -2.693  -1.212  0.00  0.00    +0.277 C 
ENDBRANCH  29  32
ENDBRANCH  25  26
ENDBRANCH   6  25
TORSDOF 5
