REMARK  Name = ZINC09103057
REMARK  7 active torsions:
REMARK  status: ('A' for Active; 'I' for Inactive)
REMARK    1  A    between atoms: C_1  and  C_2
REMARK    2  A    between atoms: C_5  and  C_8
REMARK    3  A    between atoms: C_19  and  C_21
REMARK    4  A    between atoms: N_23  and  C_24
REMARK    5  A    between atoms: C_26  and  C_32
REMARK    6  A    between atoms: C_29  and  O_30
REMARK    7  A    between atoms: O_30  and  C_31
REMARK                            x       y       z     vdW  Elec       q    Type
REMARK                         _______ _______ _______ _____ _____    ______ ____
ROOT
ATOM      1  C   UNL     1      -2.376   2.116  -0.008  0.00  0.00    +0.250 C 
ATOM      2  O   UNL     1      -2.555   0.914  -0.021  0.00  0.00    -0.270 OA
ATOM      3  N   UNL     1      -1.122   2.611  -0.004  0.00  0.00    -0.261 N 
ATOM      4  C   UNL     1      -0.035   1.747  -0.014  0.00  0.00    +0.165 A 
ATOM      5  N   UNL     1       1.251   2.034  -0.018  0.00  0.00    -0.229 NA
ATOM      6  C   UNL     1       2.188   1.090  -0.033  0.00  0.00    +0.066 A 
ATOM      7  C   UNL     1       1.741  -0.192  -0.045  0.00  0.00    +0.015 A 
ATOM      8  S   UNL     1      -0.020   0.009  -0.034  0.00  0.00    -0.057 S 
ATOM      9  C   UNL     1       2.552  -1.444  -0.061  0.00  0.00    +0.044 C 
ATOM     10  C   UNL     1       4.000  -1.083   0.305  0.00  0.00    +0.006 C 
ATOM     11  C   UNL     1       4.427   0.135  -0.520  0.00  0.00    +0.019 C 
ATOM     12  C   UNL     1       3.684   1.382  -0.040  0.00  0.00    +0.125 C 
ATOM     13  H   UNL     1      -0.980   3.571   0.006  0.00  0.00    +0.157 HD
ENDROOT
BRANCH   1  18
ATOM     14  C   UNL     1      -6.882   5.695   0.034  0.00  0.00    +0.044 C 
ATOM     15  C   UNL     1      -5.702   4.758   0.023  0.00  0.00    -0.050 A 
ATOM     16  C   UNL     1      -5.909   3.390   0.009  0.00  0.00    +0.004 A 
ATOM     17  C   UNL     1      -4.833   2.526  -0.001  0.00  0.00    +0.013 A 
ATOM     18  C   UNL     1      -3.533   3.035   0.003  0.00  0.00    +0.037 A 
ATOM     19  C   UNL     1      -3.332   4.417   0.023  0.00  0.00    +0.013 A 
ATOM     20  C   UNL     1      -4.416   5.269   0.027  0.00  0.00    +0.004 A 
ENDBRANCH   1  18
BRANCH  12  21
ATOM     21  C   UNL     1       3.971   2.531  -0.972  0.00  0.00    +0.226 C 
ATOM     22  O   UNL     1       4.709   2.372  -1.921  0.00  0.00    -0.275 OA
ATOM     23  N   UNL     1       3.407   3.735  -0.751  0.00  0.00    -0.282 N 
ATOM     24  H   UNL     1       2.767   3.846  -0.030  0.00  0.00    +0.155 HD
BRANCH  23  25
ATOM     25  C   UNL     1       3.745   4.827  -1.561  0.00  0.00    +0.076 A 
ATOM     26  C   UNL     1       4.019   4.635  -2.908  0.00  0.00    +0.030 A 
ATOM     27  C   UNL     1       4.353   5.713  -3.705  0.00  0.00    -0.048 A 
ATOM     28  C   UNL     1       4.413   6.984  -3.165  0.00  0.00    +0.007 A 
ATOM     29  C   UNL     1       4.141   7.184  -1.825  0.00  0.00    +0.048 A 
ATOM     30  C   UNL     1       3.801   6.109  -1.019  0.00  0.00    +0.141 A 
ATOM     31  C   UNL     1       4.651   5.502  -5.168  0.00  0.00    +0.044 C 
BRANCH  30  32
ATOM     32  O   UNL     1       3.527   6.304   0.298  0.00  0.00    -0.493 OA
ATOM     33  C   UNL     1       3.605   7.645   0.785  0.00  0.00    +0.277 C 
ENDBRANCH  30  32
ENDBRANCH  23  25
ENDBRANCH  12  21
TORSDOF 4
