REMARK  Name = ZINC67332639
REMARK  7 active torsions:
REMARK  status: ('A' for Active; 'I' for Inactive)
REMARK    1  A    between atoms: C_2  and  C_12
REMARK    2  A    between atoms: C_4  and  C_6
REMARK    3  A    between atoms: C_12  and  C_13
REMARK    4  A    between atoms: N_15  and  C_16
REMARK    5  A    between atoms: C_16  and  C_17
REMARK    6  A    between atoms: N_22  and  C_23
REMARK    7  A    between atoms: C_23  and  C_24
REMARK                            x       y       z     vdW  Elec       q    Type
REMARK                         _______ _______ _______ _____ _____    ______ ____
ROOT
ATOM      1  C   UNL     1       2.736   3.691   1.159  0.00  0.00    +0.219 C 
ATOM      2  O   UNL     1       2.992   2.771   1.907  0.00  0.00    -0.275 OA
ATOM      3  N   UNL     1       3.296   4.900   1.362  0.00  0.00    -0.317 N 
ATOM      4  H   UNL     1       3.091   5.635   0.763  0.00  0.00    +0.149 HD
ENDROOT
BRANCH   1   5
ATOM      5  C   UNL     1       1.792   3.481   0.003  0.00  0.00    +0.151 C 
BRANCH   5   7
ATOM      6  C   UNL     1      -0.022   1.784   0.012  0.00  0.00    +0.071 A 
ATOM      7  C   UNL     1       1.310   2.053   0.001  0.00  0.00    +0.058 A 
ATOM      8  N   UNL     1       2.176   1.067  -0.013  0.00  0.00    -0.240 NA
ATOM      9  C   UNL     1       1.780  -0.198  -0.016  0.00  0.00    +0.147 A 
ATOM     10  S   UNL     1       0.002  -0.004   0.002  0.00  0.00    -0.072 S 
BRANCH   9  11
ATOM     11  C   UNL     1       2.589  -1.435  -0.031  0.00  0.00    +0.206 A 
ATOM     12  N   UNL     1       2.105  -2.686  -0.033  0.00  0.00    -0.213 NA
ATOM     13  H   UNL     1       5.144  -3.225  -0.068  0.00  0.00    +0.190 HD
ATOM     14  C   UNL     1       3.092  -3.542  -0.048  0.00  0.00    +0.216 A 
ATOM     15  N   UNL     1       4.249  -2.854  -0.056  0.00  0.00    -0.265 N 
ATOM     16  N   UNL     1       3.904  -1.492  -0.050  0.00  0.00    -0.150 NA
ENDBRANCH   9  11
ENDBRANCH   5   7
ENDBRANCH   1   5
BRANCH   3  17
ATOM     17  C   UNL     1       4.213   5.104   2.486  0.00  0.00    +0.089 C 
BRANCH  17  18
ATOM     18  C   UNL     1       4.702   6.553   2.488  0.00  0.00    -0.051 C 
ATOM     19  C   UNL     1       5.534   6.824   3.760  0.00  0.00    -0.016 C 
ATOM     20  C   UNL     1       5.116   8.267   4.149  0.00  0.00    -0.020 C 
ATOM     21  C   UNL     1       3.619   8.277   3.754  0.00  0.00    -0.078 C 
ATOM     22  N   UNL     1       3.549   7.472   2.512  0.00  0.00    +0.383 N 
ATOM     23  H   UNL     1       2.692   6.941   2.498  0.00  0.00    -0.081 HD
BRANCH  22  24
ATOM     24  C   UNL     1       3.599   8.358   1.341  0.00  0.00    -0.075 C 
BRANCH  24  25
ATOM     25  C   UNL     1       2.338   9.223   1.302  0.00  0.00    -0.028 C 
ATOM     26  C   UNL     1       1.114   8.331   1.083  0.00  0.00    +0.002 C 
ATOM     27  C   UNL     1      -0.147   9.197   1.045  0.00  0.00    +0.000 C 
ATOM     28  C   UNL     1      -0.039  10.205  -0.101  0.00  0.00    +0.000 C 
ATOM     29  C   UNL     1       1.185  11.096   0.118  0.00  0.00    +0.000 C 
ATOM     30  C   UNL     1       2.446  10.231   0.156  0.00  0.00    +0.002 C 
ENDBRANCH  24  25
ENDBRANCH  22  24
ENDBRANCH  17  18
ENDBRANCH   3  17
TORSDOF 7
