REMARK  Name = ZINC44391496
REMARK  9 active torsions:
REMARK  status: ('A' for Active; 'I' for Inactive)
REMARK    1  A    between atoms: C_1  and  C_2
REMARK    2  A    between atoms: C_6  and  N_29
REMARK    3  A    between atoms: C_7  and  N_8
REMARK    4  A    between atoms: C_9  and  C_11
REMARK    5  A    between atoms: C_11  and  C_13
REMARK    6  A    between atoms: C_11  and  N_14
REMARK    7  A    between atoms: C_19  and  C_21
REMARK    8  A    between atoms: C_24  and  O_27
REMARK    9  A    between atoms: O_27  and  C_28
REMARK                            x       y       z     vdW  Elec       q    Type
REMARK                         _______ _______ _______ _____ _____    ______ ____
ROOT
ATOM      1  C   UNL     1      -0.395  -0.007   4.887  0.00  0.00    +0.194 C 
ATOM      2  C   UNL     1      -1.514   1.036   4.895  0.00  0.00    +0.043 C 
ENDROOT
BRANCH   1   3
ATOM      3  N   UNL     1      -0.619  -0.972   5.967  0.00  0.00    -0.217 N 
ATOM      4  C   UNL     1       0.313  -1.106   6.929  0.00  0.00    +0.268 A 
ATOM      5  O   UNL     1       1.330  -0.432   6.898  0.00  0.00    -0.266 OA
ATOM      6  C   UNL     1       0.105  -2.033   7.974  0.00  0.00    +0.074 A 
ATOM      7  C   UNL     1      -1.048  -2.762   7.962  0.00  0.00    +0.035 A 
ATOM      8  C   UNL     1      -1.964  -2.546   6.906  0.00  0.00    +0.092 A 
ATOM      9  N   UNL     1      -1.702  -1.662   5.972  0.00  0.00    -0.168 NA
BRANCH   8  10
ATOM     10  C   UNL     1      -3.229  -3.319   6.857  0.00  0.00    +0.002 A 
ATOM     11  C   UNL     1      -4.133  -3.114   5.815  0.00  0.00    +0.013 A 
ATOM     12  C   UNL     1      -5.308  -3.834   5.772  0.00  0.00    +0.046 A 
ATOM     13  C   UNL     1      -5.592  -4.763   6.765  0.00  0.00    +0.120 A 
ATOM     14  C   UNL     1      -4.694  -4.969   7.804  0.00  0.00    +0.046 A 
ATOM     15  C   UNL     1      -3.514  -4.256   7.849  0.00  0.00    +0.013 A 
BRANCH  13  16
ATOM     16  O   UNL     1      -6.750  -5.471   6.720  0.00  0.00    -0.495 OA
ATOM     17  C   UNL     1      -6.979  -6.409   7.773  0.00  0.00    +0.277 C 
ENDBRANCH  13  16
ENDBRANCH   8  10
ENDBRANCH   1   3
BRANCH   1  19
ATOM     18  N   UNL     1      -0.198  -0.037   2.421  0.00  0.00    -0.282 N 
ATOM     19  C   UNL     1      -0.389  -0.728   3.563  0.00  0.00    +0.242 C 
ATOM     20  O   UNL     1      -0.556  -1.928   3.525  0.00  0.00    -0.273 OA
ATOM     21  H   UNL     1      -0.113   0.928   2.447  0.00  0.00    +0.155 HD
BRANCH  18  28
ATOM     22  C   UNL     1       1.721  -2.121   2.154  0.00  0.00    +0.046 C 
ATOM     23  C   UNL     1       0.799  -1.738   1.026  0.00  0.00    -0.027 A 
ATOM     24  C   UNL     1       0.866  -2.408  -0.180  0.00  0.00    +0.005 A 
ATOM     25  C   UNL     1       0.021  -2.056  -1.216  0.00  0.00    +0.003 A 
ATOM     26  C   UNL     1      -0.895  -1.034  -1.049  0.00  0.00    +0.034 A 
ATOM     27  C   UNL     1      -0.968  -0.360   0.155  0.00  0.00    +0.148 A 
ATOM     28  C   UNL     1      -0.123  -0.714   1.199  0.00  0.00    +0.067 A 
BRANCH  27  29
ATOM     29  N   UNL     1      -1.948   0.734   0.333  0.00  0.00    +0.058 N 
ATOM     30  O   UNL     1      -2.751   0.975  -0.538  0.00  0.00    -0.126 OA
ATOM     31  O   UNL     1      -1.946   1.388   1.350  0.00  0.00    -0.126 OA
ENDBRANCH  27  29
ENDBRANCH  18  28
ENDBRANCH   1  19
TORSDOF 6
