REMARK  Name = ZINC58443458
REMARK  7 active torsions:
REMARK  status: ('A' for Active; 'I' for Inactive)
REMARK    1  A    between atoms: C_1  and  C_2
REMARK    2  A    between atoms: N_4  and  C_7
REMARK    3  A    between atoms: C_10  and  C_13
REMARK    4  A    between atoms: N_15  and  C_16
REMARK    5  A    between atoms: C_21  and  N_22
REMARK    6  A    between atoms: N_25  and  C_26
REMARK    7  A    between atoms: N_25  and  C_27
REMARK                            x       y       z     vdW  Elec       q    Type
REMARK                         _______ _______ _______ _____ _____    ______ ____
ROOT
ATOM      1  C   UNL     1      -1.372  -6.942  -4.756  0.00  0.00    +0.248 C 
ATOM      2  O   UNL     1      -1.244  -8.144  -4.621  0.00  0.00    -0.270 OA
ATOM      3  N   UNL     1      -1.016  -6.353  -5.915  0.00  0.00    -0.280 N 
ATOM      4  H   UNL     1      -1.189  -5.409  -6.053  0.00  0.00    +0.155 HD
ENDROOT
BRANCH   1   8
ATOM      5  C   UNL     1      -2.938  -4.604  -1.583  0.00  0.00    +0.052 A 
ATOM      6  C   UNL     1      -2.793  -5.980  -1.426  0.00  0.00    +0.025 A 
ATOM      7  C   UNL     1      -2.287  -6.739  -2.450  0.00  0.00    +0.015 A 
ATOM      8  C   UNL     1      -1.917  -6.129  -3.653  0.00  0.00    +0.037 A 
ATOM      9  C   UNL     1      -2.064  -4.747  -3.808  0.00  0.00    +0.015 A 
ATOM     10  C   UNL     1      -2.576  -3.995  -2.782  0.00  0.00    +0.025 A 
BRANCH   5  14
ATOM     11  C   UNL     1      -4.443  -0.518   0.728  0.00  0.00    +0.062 C 
ATOM     12  C   UNL     1      -4.133  -1.974   0.499  0.00  0.00    +0.036 C 
ATOM     13  N   UNL     1      -3.651  -2.459  -0.572  0.00  0.00    -0.189 NA
ATOM     14  N   UNL     1      -3.451  -3.838  -0.543  0.00  0.00    -0.224 N 
ATOM     15  C   UNL     1      -3.872  -4.348   0.773  0.00  0.00    +0.138 C 
ATOM     16  C   UNL     1      -4.341  -3.078   1.511  0.00  0.00    +0.073 C 
ENDBRANCH   5  14
ENDBRANCH   1   8
BRANCH   3  17
ATOM     17  C   UNL     1      -0.396  -7.105  -6.921  0.00  0.00    +0.055 A 
ATOM     18  C   UNL     1       0.216  -8.310  -6.611  0.00  0.00    +0.025 A 
ATOM     19  C   UNL     1       0.827  -9.051  -7.606  0.00  0.00    +0.002 A 
ATOM     20  C   UNL     1       0.830  -8.594  -8.911  0.00  0.00    +0.002 A 
ATOM     21  C   UNL     1       0.223  -7.393  -9.228  0.00  0.00    +0.025 A 
ATOM     22  C   UNL     1      -0.398  -6.647  -8.238  0.00  0.00    +0.056 A 
BRANCH  22  23
ATOM     23  N   UNL     1      -1.019  -5.433  -8.559  0.00  0.00    -0.268 N 
ATOM     24  C   UNL     1      -1.563  -5.256  -9.779  0.00  0.00    +0.306 C 
ATOM     25  O   UNL     1      -1.447  -6.119 -10.627  0.00  0.00    -0.252 OA
ATOM     26  N   UNL     1      -2.236  -4.122 -10.059  0.00  0.00    -0.291 N 
ATOM     27  C   UNL     1      -2.938  -3.984 -11.338  0.00  0.00    +0.133 C 
ATOM     28  C   UNL     1      -2.267  -3.029  -9.085  0.00  0.00    +0.133 C 
ATOM     29  H   UNL     1      -1.058  -4.719  -7.903  0.00  0.00    +0.156 HD
ENDBRANCH  22  23
ENDBRANCH   3  17
TORSDOF 4
