REMARK  Name = ZINC62783129
REMARK  4 active torsions:
REMARK  status: ('A' for Active; 'I' for Inactive)
REMARK    1  A    between atoms: C_1  and  C_2
REMARK    2  A    between atoms: CA_4  and  C_19
REMARK    3  A    between atoms: C_6  and  C_8
REMARK    4  A    between atoms: C_8  and  C_13
REMARK                            x       y       z     vdW  Elec       q    Type
REMARK                         _______ _______ _______ _____ _____    ______ ____
ROOT
ATOM      1  C   UNL     1       0.050  -2.722   2.468  0.00  0.00    +0.055 C 
ATOM      2  C   UNL     1      -1.238  -2.443   3.269  0.00  0.00    +0.019 C 
ATOM      3  C   UNL     1      -2.166  -3.635   2.922  0.00  0.00    +0.001 C 
ATOM      4  C   UNL     1      -1.180  -4.828   2.860  0.00  0.00    +0.001 C 
ATOM      5  C   UNL     1       0.087  -4.238   2.208  0.00  0.00    +0.019 C 
ENDROOT
BRANCH   1  11
ATOM      6  C   UNL     1      -0.087   1.547   0.091  0.00  0.00    +0.066 C 
ATOM      7  C   UNL     1      -0.048   0.041   0.054  0.00  0.00    +0.042 A 
ATOM      8  C   UNL     1      -0.043  -0.633  -1.160  0.00  0.00    +0.054 A 
ATOM      9  CA  UNL     1      -0.006  -2.029  -1.141  0.00  0.00    +0.107 A 
ATOM     10  N   UNL     1       0.022  -2.656   0.035  0.00  0.00    -0.228 NA
ATOM     11  C   UNL     1       0.017  -1.974   1.160  0.00  0.00    +0.140 A 
ATOM     12  N   UNL     1      -0.012  -0.655   1.177  0.00  0.00    -0.236 NA
BRANCH   9  13
ATOM     13  C   UNL     1      -0.000  -2.799  -2.404  0.00  0.00    +0.278 C 
ATOM     14  O   UNL     1       0.032  -4.007  -2.375  0.00  0.00    -0.294 OA
ENDBRANCH   9  13
ENDBRANCH   1  11
BRANCH   1  15
ATOM     15  C   UNL     1       1.257  -2.306   3.269  0.00  0.00    -0.034 A 
ATOM     16  C   UNL     1       1.424  -2.771   4.560  0.00  0.00    +0.004 A 
ATOM     17  C   UNL     1       2.531  -2.390   5.294  0.00  0.00    +0.000 A 
ATOM     18  C   UNL     1       3.472  -1.544   4.738  0.00  0.00    +0.000 A 
ATOM     19  C   UNL     1       3.305  -1.079   3.447  0.00  0.00    +0.000 A 
ATOM     20  C   UNL     1       2.201  -1.464   2.710  0.00  0.00    +0.004 A 
ENDBRANCH   1  15
TORSDOF 3
