REMARK  Name = ZINC09090458
REMARK  8 active torsions:
REMARK  status: ('A' for Active; 'I' for Inactive)
REMARK    1  A    between atoms: C_1  and  C_2
REMARK    2  A    between atoms: C_2  and  N_3
REMARK    3  A    between atoms: C_7  and  C_24
REMARK    4  A    between atoms: C_9  and  C_17
REMARK    5  A    between atoms: C_11  and  C_12
REMARK    6  A    between atoms: C_11  and  O_16
REMARK    7  A    between atoms: C_17  and  C_19
REMARK    8  A    between atoms: C_27  and  N_30
REMARK                            x       y       z     vdW  Elec       q    Type
REMARK                         _______ _______ _______ _____ _____    ______ ____
ROOT
ATOM      1  N   UNL     1       5.282   1.129   0.335  0.00  0.00    -0.250 N 
ATOM      2  C   UNL     1       4.667   1.938  -0.541  0.00  0.00    +0.305 C 
ATOM      3  O   UNL     1       5.344   2.696  -1.210  0.00  0.00    -0.253 OA
ATOM      4  N   UNL     1       3.337   1.945  -0.709  0.00  0.00    -0.292 N 
ATOM      5  C   UNL     1       2.468   1.048   0.056  0.00  0.00    +0.120 C 
ATOM      6  C   UNL     1       3.122   0.750   1.409  0.00  0.00    +0.145 C 
ATOM      7  C   UNL     1       4.525   0.186   1.160  0.00  0.00    +0.246 C 
ATOM      8  H   UNL     1       2.941   2.556  -1.351  0.00  0.00    +0.151 HD
ENDROOT
BRANCH   5   9
ATOM      9  C   UNL     1       1.132   1.709   0.277  0.00  0.00    -0.026 A 
ATOM     10  C   UNL     1      -0.030   0.965   0.190  0.00  0.00    +0.008 A 
ATOM     11  C   UNL     1      -1.256   1.572   0.387  0.00  0.00    +0.033 A 
ATOM     12  C   UNL     1      -1.320   2.921   0.681  0.00  0.00    +0.126 A 
ATOM     13  C   UNL     1      -0.158   3.665   0.768  0.00  0.00    +0.033 A 
ATOM     14  C   UNL     1       1.068   3.059   0.566  0.00  0.00    +0.008 A 
BRANCH  12  15
ATOM     15  N   UNL     1      -2.632   3.570   0.897  0.00  0.00    +0.056 N 
ATOM     16  O   UNL     1      -2.689   4.760   1.151  0.00  0.00    -0.126 OA
ATOM     17  O   UNL     1      -3.656   2.914   0.821  0.00  0.00    -0.126 OA
ENDBRANCH  12  15
ENDBRANCH   5   9
BRANCH   7  18
ATOM     18  C   UNL     1       5.241  -0.014   2.497  0.00  0.00    +0.436 C 
ATOM     19  F   UNL     1       4.442  -0.791   3.342  0.00  0.00    -0.166 F 
ATOM     20  F   UNL     1       6.461  -0.663   2.280  0.00  0.00    -0.166 F 
ATOM     21  F   UNL     1       5.475   1.231   3.092  0.00  0.00    -0.166 F 
ENDBRANCH   7  18
BRANCH   1  23
ATOM     22  C   UNL     1       7.378   0.106  -0.400  0.00  0.00    +0.024 C 
ATOM     23  C   UNL     1       6.739   1.191   0.469  0.00  0.00    +0.109 C 
ENDBRANCH   1  23
BRANCH   7  24
ATOM     24  O   UNL     1       4.423  -1.067   0.481  0.00  0.00    -0.364 OA
ATOM     25  H   UNL     1       5.275  -1.482   0.290  0.00  0.00    +0.212 HD
ENDBRANCH   7  24
BRANCH   6  26
ATOM     26  C   UNL     1       3.222   2.020   2.214  0.00  0.00    +0.180 C 
ATOM     27  O   UNL     1       4.210   2.720   2.123  0.00  0.00    -0.291 OA
BRANCH  26  28
ATOM     28  C   UNL     1       2.168   2.396   3.075  0.00  0.00    +0.055 A 
ATOM     29  C   UNL     1       2.064   3.512   3.900  0.00  0.00    +0.019 A 
ATOM     30  C   UNL     1       0.915   3.637   4.636  0.00  0.00    +0.008 A 
ATOM     31  C   UNL     1      -0.046   2.678   4.537  0.00  0.00    +0.046 A 
ATOM     32  S   UNL     1       0.624   1.560   3.394  0.00  0.00    -0.094 S 
ENDBRANCH  26  28
ENDBRANCH   6  26
TORSDOF 7
