REMARK  Name = ZINC15557422
REMARK  6 active torsions:
REMARK  status: ('A' for Active; 'I' for Inactive)
REMARK    1  A    between atoms: C_6  and  C_7
REMARK    2  A    between atoms: C_7  and  N_8
REMARK    3  A    between atoms: C_9  and  C_11
REMARK    4  A    between atoms: C_11  and  C_12
REMARK    5  A    between atoms: C_12  and  N_13
REMARK    6  A    between atoms: N_16  and  C_17
REMARK                            x       y       z     vdW  Elec       q    Type
REMARK                         _______ _______ _______ _____ _____    ______ ____
ROOT
ATOM      1  C   UNL     1       7.018  -2.589  -3.152  0.00  0.00    +0.115 C 
ENDROOT
BRANCH   1   2
ATOM      2  N   UNL     1       7.426  -2.820  -4.540  0.00  0.00    -0.299 N 
ATOM      3  C   UNL     1       8.576  -3.470  -4.805  0.00  0.00    +0.300 C 
ATOM      4  O   UNL     1       9.276  -3.865  -3.892  0.00  0.00    -0.253 OA
ATOM      5  N   UNL     1       8.951  -3.683  -6.082  0.00  0.00    -0.294 N 
ATOM      6  H   UNL     1       6.867  -2.505  -5.268  0.00  0.00    +0.150 HD
ATOM      7  H   UNL     1       8.393  -3.368  -6.810  0.00  0.00    +0.151 HD
BRANCH   5   8
ATOM      8  C   UNL     1      10.202  -4.389  -6.370  0.00  0.00    +0.037 C 
ATOM      9  C   UNL     1      11.375  -3.617  -5.765  0.00  0.00    +0.029 C 
ATOM     10  C   UNL     1      12.681  -4.355  -6.066  0.00  0.00    -0.008 C 
ATOM     11  C   UNL     1      12.869  -4.462  -7.580  0.00  0.00    +0.007 C 
ATOM     12  C   UNL     1      11.695  -5.234  -8.186  0.00  0.00    -0.008 C 
ATOM     13  C   UNL     1      10.389  -4.496  -7.885  0.00  0.00    +0.029 C 
ATOM     14  C   UNL     1      11.640  -6.637  -7.579  0.00  0.00    +0.007 C 
ATOM     15  C   UNL     1      11.453  -6.530  -6.064  0.00  0.00    -0.008 C 
ATOM     16  C   UNL     1      12.626  -5.758  -5.458  0.00  0.00    +0.007 C 
ATOM     17  C   UNL     1      10.146  -5.792  -5.763  0.00  0.00    +0.029 C 
ENDBRANCH   5   8
ENDBRANCH   1   2
BRANCH   1  18
ATOM     18  C   UNL     1       5.686  -1.837  -3.130  0.00  0.00    +0.114 C 
BRANCH  18  20
ATOM     19  N   UNL     1       4.117  -0.949  -1.437  0.00  0.00    -0.311 N 
ATOM     20  C   UNL     1       5.267  -1.599  -1.702  0.00  0.00    +0.215 C 
ATOM     21  O   UNL     1       5.965  -1.992  -0.791  0.00  0.00    -0.276 OA
ATOM     22  H   UNL     1       3.558  -0.634  -2.165  0.00  0.00    +0.149 HD
BRANCH  19  23
ATOM     23  C   UNL     1       3.709  -0.718  -0.048  0.00  0.00    +0.139 C 
BRANCH  23  29
ATOM     24  C   UNL     1       1.208  -0.680  -0.016  0.00  0.00    +0.009 A 
ATOM     25  C   UNL     1       0.002  -0.004   0.002  0.00  0.00    +0.050 A 
ATOM     26  C   UNL     1      -0.017   1.382   0.010  0.00  0.00    +0.162 A 
ATOM     27  C   UNL     1       1.180   2.090   0.002  0.00  0.00    +0.162 A 
ATOM     28  C   UNL     1       2.386   1.406  -0.017  0.00  0.00    +0.054 A 
ATOM     29  C   UNL     1       2.397   0.023  -0.027  0.00  0.00    -0.027 A 
ATOM     30  O   UNL     1       1.184   3.451   0.018  0.00  0.00    -0.485 OA
ATOM     31  C   UNL     1      -0.040   4.103  -0.340  0.00  0.00    +0.270 C 
ATOM     32  C   UNL     1      -1.188   3.413   0.408  0.00  0.00    +0.270 C 
ATOM     33  O   UNL     1      -1.211   2.034   0.019  0.00  0.00    -0.485 OA
ENDBRANCH  23  29
ENDBRANCH  19  23
ENDBRANCH  18  20
ENDBRANCH   1  18
TORSDOF 6
