REMARK  Name = ZINC09009303
REMARK  7 active torsions:
REMARK  status: ('A' for Active; 'I' for Inactive)
REMARK    1  A    between atoms: C_1  and  C_2
REMARK    2  A    between atoms: C_2  and  C_34
REMARK    3  A    between atoms: C_6  and  C_23
REMARK    4  A    between atoms: C_8  and  C_21
REMARK    5  A    between atoms: C_9  and  N_20
REMARK    6  A    between atoms: N_10  and  C_11
REMARK    7  A    between atoms: C_15  and  N_17
REMARK                            x       y       z     vdW  Elec       q    Type
REMARK                         _______ _______ _______ _____ _____    ______ ____
ROOT
ATOM      1  C   UNL     1      -6.494   5.008  -1.844  0.00  0.00    +0.011 C 
ATOM      2  C   UNL     1      -5.986   3.986  -2.862  0.00  0.00    -0.023 C 
ATOM      3  C   UNL     1      -5.721   2.651  -2.163  0.00  0.00    +0.058 C 
ATOM      4  C   UNL     1      -4.657   2.833  -1.109  0.00  0.00    +0.025 C 
ATOM      5  C   UNL     1      -3.678   3.751  -1.261  0.00  0.00    +0.025 C 
ATOM      6  C   UNL     1      -2.604   3.918  -0.216  0.00  0.00    +0.102 C 
ATOM      7  C   UNL     1      -3.018   3.307   1.090  0.00  0.00    +0.077 C 
ATOM      8  C   UNL     1      -4.031   2.405   1.153  0.00  0.00    +0.107 C 
ATOM      9  N   UNL     1      -4.704   2.041   0.008  0.00  0.00    -0.260 N 
ATOM     10  C   UNL     1      -3.632   4.580  -2.396  0.00  0.00    +0.162 C 
ATOM     11  O   UNL     1      -2.734   5.391  -2.505  0.00  0.00    -0.292 OA
ATOM     12  C   UNL     1      -4.672   4.481  -3.477  0.00  0.00    +0.086 C 
ATOM     13  C   UNL     1      -7.030   3.796  -3.964  0.00  0.00    +0.011 C 
ENDROOT
BRANCH   6  14
ATOM     14  C   UNL     1      -1.341   3.250  -0.695  0.00  0.00    +0.019 A 
ATOM     15  C   UNL     1      -1.329   1.888  -0.944  0.00  0.00    +0.129 A 
ATOM     16  C   UNL     1      -0.167   1.275  -1.380  0.00  0.00    +0.039 A 
ATOM     17  C   UNL     1       0.978   2.024  -1.576  0.00  0.00    +0.004 A 
ATOM     18  C   UNL     1       0.965   3.384  -1.333  0.00  0.00    +0.020 A 
ATOM     19  C   UNL     1      -0.194   3.998  -0.892  0.00  0.00    +0.048 A 
ATOM     20 CL   UNL     1      -0.210   5.707  -0.587  0.00  0.00    -0.083 Cl
ATOM     21  F   UNL     1      -2.450   1.157  -0.757  0.00  0.00    -0.205 F 
ENDBRANCH   6  14
BRANCH   9  22
ATOM     22  C   UNL     1      -5.442   0.852  -0.015  0.00  0.00    +0.042 A 
ATOM     23  C   UNL     1      -4.879  -0.307  -0.535  0.00  0.00    +0.024 A 
ATOM     24  C   UNL     1      -5.609  -1.478  -0.556  0.00  0.00    +0.004 A 
ATOM     25  C   UNL     1      -6.901  -1.499  -0.060  0.00  0.00    +0.033 A 
ATOM     26  C   UNL     1      -7.464  -0.347   0.458  0.00  0.00    +0.128 A 
ATOM     27  C   UNL     1      -6.736   0.827   0.487  0.00  0.00    +0.056 A 
BRANCH  26  28
ATOM     28  N   UNL     1      -8.845  -0.374   0.988  0.00  0.00    +0.056 N 
ATOM     29  O   UNL     1      -9.486  -1.410   0.968  0.00  0.00    -0.126 OA
ATOM     30  O   UNL     1      -9.342   0.640   1.445  0.00  0.00    -0.126 OA
ENDBRANCH  26  28
ENDBRANCH   9  22
BRANCH   8  31
ATOM     31  N   UNL     1      -4.386   1.855   2.361  0.00  0.00    -0.345 N 
ATOM     32  H   UNL     1      -3.859   2.043   3.153  0.00  0.00    +0.144 HD
ATOM     33  H   UNL     1      -5.164   1.278   2.422  0.00  0.00    +0.144 HD
ENDBRANCH   8  31
BRANCH   7  34
ATOM     34  C   UNL     1      -2.333   3.682   2.291  0.00  0.00    +0.099 C 
ATOM     35  N   UNL     1      -1.790   3.978   3.243  0.00  0.00    -0.191 NA
ENDBRANCH   7  34
TORSDOF 5
