REMARK  Name = ZINC31660579
REMARK  7 active torsions:
REMARK  status: ('A' for Active; 'I' for Inactive)
REMARK    1  A    between atoms: C_1  and  C_2
REMARK    2  A    between atoms: C_2  and  C_25
REMARK    3  A    between atoms: N_5  and  C_9
REMARK    4  A    between atoms: C_9  and  C_10
REMARK    5  A    between atoms: N_12  and  C_13
REMARK    6  A    between atoms: N_12  and  C_14
REMARK    7  A    between atoms: C_29  and  N_31
REMARK                            x       y       z     vdW  Elec       q    Type
REMARK                         _______ _______ _______ _____ _____    ______ ____
ROOT
ATOM      1  C   UNL     1      -0.019   1.526   0.010  0.00  0.00    +0.047 C 
ATOM      2  C   UNL     1       0.002  -0.004   0.002  0.00  0.00    +0.135 C 
ATOM      3  C   UNL     1       0.815  -0.520  -1.169  0.00  0.00    +0.251 C 
ATOM      4  O   UNL     1       0.595  -0.342  -2.348  0.00  0.00    -0.272 OA
ATOM      5  N   UNL     1       1.833  -1.217  -0.627  0.00  0.00    -0.215 N 
ATOM      6  C   UNL     1       1.777  -1.214   0.710  0.00  0.00    +0.310 C 
ATOM      7  O   UNL     1       2.586  -1.776   1.421  0.00  0.00    -0.252 OA
ATOM      8  N   UNL     1       0.724  -0.519   1.178  0.00  0.00    -0.281 N 
ATOM      9  H   UNL     1       0.487  -0.383   2.109  0.00  0.00    +0.152 HD
ENDROOT
BRANCH   2  10
ATOM     10  C   UNL     1      -1.401  -0.551  -0.040  0.00  0.00    -0.013 A 
ATOM     11  C   UNL     1      -2.005  -0.815  -1.256  0.00  0.00    +0.006 A 
ATOM     12  C   UNL     1      -3.292  -1.317  -1.294  0.00  0.00    +0.003 A 
ATOM     13  C   UNL     1      -3.976  -1.556  -0.117  0.00  0.00    +0.033 A 
ATOM     14  C   UNL     1      -3.372  -1.294   1.099  0.00  0.00    +0.127 A 
ATOM     15  C   UNL     1      -2.083  -0.796   1.137  0.00  0.00    +0.039 A 
BRANCH  14  16
ATOM     16  N   UNL     1      -4.105  -1.550   2.359  0.00  0.00    +0.056 N 
ATOM     17  O   UNL     1      -5.231  -1.989   2.325  0.00  0.00    -0.126 OA
ATOM     18  O   UNL     1      -3.577  -1.321   3.422  0.00  0.00    -0.126 OA
ENDBRANCH  14  16
ENDBRANCH   2  10
BRANCH   5  19
ATOM     19  C   UNL     1       2.871  -1.896  -1.406  0.00  0.00    +0.213 C 
BRANCH  19  20
ATOM     20  C   UNL     1       4.020  -0.950  -1.644  0.00  0.00    +0.234 C 
ATOM     21  O   UNL     1       3.975   0.180  -1.206  0.00  0.00    -0.274 OA
ATOM     22  N   UNL     1       5.097  -1.360  -2.343  0.00  0.00    -0.296 N 
ATOM     23  C   UNL     1       5.151  -2.725  -2.872  0.00  0.00    +0.132 C 
BRANCH  22  24
ATOM     24  C   UNL     1       6.213  -0.440  -2.574  0.00  0.00    +0.106 C 
ATOM     25  C   UNL     1       7.481  -1.020  -1.950  0.00  0.00    +0.027 C 
ATOM     26  C   UNL     1       8.672  -0.159  -2.387  0.00  0.00    +0.007 C 
ATOM     27  C   UNL     1       8.913  -0.391  -3.877  0.00  0.00    +0.035 C 
ATOM     28  C   UNL     1       7.635  -0.215  -4.654  0.00  0.00    -0.042 A 
ATOM     29  C   UNL     1       6.395  -0.242  -4.056  0.00  0.00    -0.024 A 
ATOM     30  C   UNL     1       5.255  -0.081  -4.832  0.00  0.00    +0.006 A 
ATOM     31  C   UNL     1       5.355   0.109  -6.195  0.00  0.00    +0.000 A 
ATOM     32  C   UNL     1       6.600   0.140  -6.794  0.00  0.00    +0.000 A 
ATOM     33  C   UNL     1       7.733  -0.021  -6.026  0.00  0.00    +0.004 A 
ENDBRANCH  22  24
ENDBRANCH  19  20
ENDBRANCH   5  19
TORSDOF 5
