REMARK  Name = ZINC21868356
REMARK  7 active torsions:
REMARK  status: ('A' for Active; 'I' for Inactive)
REMARK    1  A    between atoms: C_1  and  C_2
REMARK    2  A    between atoms: C_2  and  C_3
REMARK    3  A    between atoms: C_8  and  N_9
REMARK    4  A    between atoms: C_10  and  C_12
REMARK    5  A    between atoms: C_13  and  C_30
REMARK    6  A    between atoms: N_20  and  C_23
REMARK    7  A    between atoms: C_23  and  C_24
REMARK                            x       y       z     vdW  Elec       q    Type
REMARK                         _______ _______ _______ _____ _____    ______ ____
ROOT
ATOM      1  C   UNL     1       4.930  -0.225   1.144  0.00  0.00    +0.067 C 
ATOM      2  C   UNL     1       6.255  -0.379   1.314  0.00  0.00    +0.045 C 
ATOM      3  C   UNL     1       6.598  -0.018   2.699  0.00  0.00    +0.336 C 
ATOM      4  O   UNL     1       7.716  -0.050   3.173  0.00  0.00    -0.245 OA
ATOM      5  O   UNL     1       5.487   0.351   3.362  0.00  0.00    -0.450 OA
ATOM      6  C   UNL     1       4.381   0.260   2.462  0.00  0.00    +0.146 C 
ATOM      7  C   UNL     1       3.352  -0.736   2.998  0.00  0.00    +0.068 C 
ATOM      8  C   UNL     1       2.774  -0.206   4.313  0.00  0.00    +0.089 C 
ATOM      9  N   UNL     1       2.152   1.104   4.083  0.00  0.00    -0.298 NA
ATOM     10  C   UNL     1       3.139   2.088   3.622  0.00  0.00    +0.089 C 
ATOM     11  C   UNL     1       3.729   1.632   2.285  0.00  0.00    +0.068 C 
ATOM     12  C   UNL     1       7.228  -0.843   0.260  0.00  0.00    +0.052 C 
ENDROOT
BRANCH   1  14
ATOM     13  N   UNL     1       2.833  -0.269  -0.114  0.00  0.00    -0.281 N 
ATOM     14  C   UNL     1       4.164  -0.475  -0.093  0.00  0.00    +0.249 C 
ATOM     15  O   UNL     1       4.735  -0.867  -1.092  0.00  0.00    -0.270 OA
ATOM     16  H   UNL     1       2.387   0.105   0.662  0.00  0.00    +0.155 HD
BRANCH  13  22
ATOM     17  C   UNL     1       0.800  -1.085  -1.130  0.00  0.00    -0.026 A 
ATOM     18  C   UNL     1       0.070  -1.399  -2.259  0.00  0.00    +0.005 A 
ATOM     19  C   UNL     1       0.628  -1.232  -3.514  0.00  0.00    +0.000 A 
ATOM     20  C   UNL     1       1.917  -0.748  -3.642  0.00  0.00    +0.002 A 
ATOM     21  C   UNL     1       2.652  -0.431  -2.517  0.00  0.00    +0.023 A 
ATOM     22  C   UNL     1       2.093  -0.594  -1.255  0.00  0.00    +0.037 A 
BRANCH  17  24
ATOM     23  C   UNL     1      -0.422   0.054   0.703  0.00  0.00    +0.009 C 
ATOM     24  C   UNL     1       0.192  -1.268   0.237  0.00  0.00    +0.033 C 
ENDBRANCH  17  24
ENDBRANCH  13  22
ENDBRANCH   1  14
BRANCH   9  25
ATOM     25  C   UNL     1       1.460   1.577   5.288  0.00  0.00    +0.119 C 
BRANCH  25  26
ATOM     26  C   UNL     1       0.634   2.792   4.950  0.00  0.00    -0.033 A 
ATOM     27  C   UNL     1       1.190   4.054   5.047  0.00  0.00    +0.005 A 
ATOM     28  C   UNL     1       0.433   5.168   4.736  0.00  0.00    +0.000 A 
ATOM     29  C   UNL     1      -0.879   5.020   4.328  0.00  0.00    +0.000 A 
ATOM     30  C   UNL     1      -1.434   3.758   4.229  0.00  0.00    +0.000 A 
ATOM     31  C   UNL     1      -0.676   2.644   4.536  0.00  0.00    +0.005 A 
ENDBRANCH  25  26
ENDBRANCH   9  25
TORSDOF 5
