REMARK  Name = ZINC39696250
REMARK  9 active torsions:
REMARK  status: ('A' for Active; 'I' for Inactive)
REMARK    1  A    between atoms: C_1  and  C_2
REMARK    2  A    between atoms: C_2  and  C_3
REMARK    3  A    between atoms: C_6  and  C_9
REMARK    4  A    between atoms: C_9  and  C_11
REMARK    5  A    between atoms: C_9  and  N_12
REMARK    6  A    between atoms: C_13  and  C_15
REMARK    7  A    between atoms: C_26  and  C_28
REMARK    8  A    between atoms: C_31  and  O_35
REMARK    9  A    between atoms: O_35  and  C_36
REMARK                            x       y       z     vdW  Elec       q    Type
REMARK                         _______ _______ _______ _____ _____    ______ ____
ROOT
ATOM      1  C   UNL     1       5.333  -4.268  -5.292  0.00  0.00    +0.100 C 
ATOM      2  C   UNL     1       6.734  -3.824  -4.815  0.00  0.00    +0.121 C 
ATOM      3  N   UNL     1       7.653  -4.862  -5.338  0.00  0.00    -0.296 N 
ATOM      4  C   UNL     1       7.128  -5.173  -6.690  0.00  0.00    +0.115 C 
ATOM      5  C   UNL     1       5.596  -5.151  -6.523  0.00  0.00    -0.004 C 
ATOM      6  C   UNL     1       4.940  -4.544  -7.760  0.00  0.00    -0.010 C 
ATOM      7  C   UNL     1       5.165  -5.470  -8.958  0.00  0.00    -0.082 C 
ATOM      8  N   UNL     1       4.591  -6.791  -8.674  0.00  0.00    +0.379 N 
ATOM      9  C   UNL     1       5.292  -7.407  -7.540  0.00  0.00    -0.082 C 
ATOM     10  C   UNL     1       5.071  -6.563  -6.282  0.00  0.00    -0.010 C 
ATOM     11  C   UNL     1       8.724  -5.403  -4.724  0.00  0.00    +0.247 C 
ATOM     12  O   UNL     1       8.956  -5.138  -3.560  0.00  0.00    -0.270 OA
ATOM     13  H   UNL     1       3.613  -6.689  -8.448  0.00  0.00    -0.086 HD
ATOM     14  H   UNL     1       4.687  -7.380  -9.487  0.00  0.00    -0.086 HD
ENDROOT
BRANCH  11  15
ATOM     15  C   UNL     1       9.617  -6.316  -5.465  0.00  0.00    +0.040 A 
ATOM     16  C   UNL     1       9.638  -6.295  -6.861  0.00  0.00    +0.036 A 
ATOM     17  C   UNL     1      10.473  -7.149  -7.549  0.00  0.00    +0.085 A 
ATOM     18  C   UNL     1      11.292  -8.032  -6.855  0.00  0.00    +0.157 A 
ATOM     19  C   UNL     1      11.274  -8.056  -5.465  0.00  0.00    +0.085 A 
ATOM     20  C   UNL     1      10.446  -7.201  -4.770  0.00  0.00    +0.036 A 
ATOM     21 CL   UNL     1      12.298  -9.162  -4.603  0.00  0.00    -0.080 Cl
ATOM     22 CL   UNL     1      10.500  -7.123  -9.285  0.00  0.00    -0.080 Cl
BRANCH  18  23
ATOM     23  O   UNL     1      12.112  -8.873  -7.536  0.00  0.00    -0.492 OA
ATOM     24  C   UNL     1      13.426  -8.397  -7.834  0.00  0.00    +0.277 C 
ENDBRANCH  18  23
ENDBRANCH  11  15
BRANCH   1  26
ATOM     25  N   UNL     1       3.165  -3.102  -5.536  0.00  0.00    -0.308 N 
ATOM     26  C   UNL     1       4.505  -3.068  -5.675  0.00  0.00    +0.219 C 
ATOM     27  O   UNL     1       5.045  -2.072  -6.108  0.00  0.00    -0.275 OA
ATOM     28  H   UNL     1       2.733  -3.898  -5.190  0.00  0.00    +0.149 HD
BRANCH  25  29
ATOM     29  C   UNL     1       2.361  -1.935  -5.908  0.00  0.00    +0.100 C 
ATOM     30  C   UNL     1       2.310  -0.955  -4.734  0.00  0.00    +0.033 C 
BRANCH  29  34
ATOM     31  C   UNL     1      -1.603  -3.194  -6.885  0.00  0.00    -0.048 A 
ATOM     32  C   UNL     1      -0.986  -2.210  -7.634  0.00  0.00    +0.004 A 
ATOM     33  C   UNL     1       0.297  -1.802  -7.318  0.00  0.00    +0.006 A 
ATOM     34  C   UNL     1       0.962  -2.379  -6.252  0.00  0.00    -0.027 A 
ATOM     35  C   UNL     1       0.345  -3.362  -5.503  0.00  0.00    +0.006 A 
ATOM     36  C   UNL     1      -0.939  -3.767  -5.816  0.00  0.00    +0.004 A 
BRANCH  31  38
ATOM     37  C   UNL     1      -4.012  -2.776  -6.471  0.00  0.00    +0.009 C 
ATOM     38  C   UNL     1      -3.001  -3.638  -7.230  0.00  0.00    +0.032 C 
ENDBRANCH  31  38
ENDBRANCH  29  34
ENDBRANCH  25  29
ENDBRANCH   1  26
TORSDOF 6
