REMARK  Name = ZINC66122907
REMARK  12 active torsions:
REMARK  status: ('A' for Active; 'I' for Inactive)
REMARK    1  A    between atoms: C_1  and  C_2
REMARK    2  A    between atoms: C_3  and  C_11
REMARK    3  A    between atoms: C_8  and  C_10
REMARK    4  A    between atoms: C_11  and  C_12
REMARK    5  A    between atoms: C_12  and  C_13
REMARK    6  A    between atoms: N_15  and  N_16
REMARK    7  A    between atoms: N_16  and  C_17
REMARK    8  A    between atoms: C_17  and  N_19
REMARK    9  A    between atoms: N_19  and  C_20
REMARK   10  A    between atoms: C_25  and  C_26
REMARK   11  A    between atoms: C_26  and  C_27
REMARK   12  A    between atoms: C_26  and  C_28
REMARK                            x       y       z     vdW  Elec       q    Type
REMARK                         _______ _______ _______ _____ _____    ______ ____
ROOT
ATOM      1  C   UNL     1      -4.462   0.254  -1.480  0.00  0.00    +0.229 C 
ATOM      2  O   UNL     1      -4.759   0.803  -0.440  0.00  0.00    -0.274 OA
ATOM      3  N   UNL     1      -5.072   0.609  -2.628  0.00  0.00    -0.235 N 
ATOM      4  H   UNL     1      -4.834   0.170  -3.459  0.00  0.00    +0.173 HD
ENDROOT
BRANCH   3   5
ATOM      5  N   UNL     1      -6.051   1.611  -2.619  0.00  0.00    -0.246 N 
ATOM      6  H   UNL     1      -6.289   2.050  -1.788  0.00  0.00    +0.172 HD
BRANCH   5   7
ATOM      7  C   UNL     1      -6.662   1.966  -3.767  0.00  0.00    +0.151 C 
ATOM      8  S   UNL     1      -7.858   3.191  -3.757  0.00  0.00    -0.017 S 
BRANCH   7   9
ATOM      9  N   UNL     1      -6.331   1.357  -4.923  0.00  0.00    -0.296 N 
ATOM     10  H   UNL     1      -5.599   0.720  -4.943  0.00  0.00    +0.154 HD
BRANCH   9  11
ATOM     11  C   UNL     1      -7.043   1.642  -6.093  0.00  0.00    +0.036 A 
ATOM     12  C   UNL     1      -8.431   1.704  -6.065  0.00  0.00    +0.023 A 
ATOM     13  C   UNL     1      -9.130   1.986  -7.222  0.00  0.00    +0.002 A 
ATOM     14  C   UNL     1      -8.452   2.205  -8.407  0.00  0.00    +0.000 A 
ATOM     15  C   UNL     1      -7.071   2.144  -8.437  0.00  0.00    +0.006 A 
ATOM     16  C   UNL     1      -6.364   1.869  -7.283  0.00  0.00    -0.024 A 
BRANCH  16  17
ATOM     17  C   UNL     1      -4.859   1.808  -7.316  0.00  0.00    +0.015 C 
ATOM     18  C   UNL     1      -4.414   0.699  -8.271  0.00  0.00    +0.012 C 
ATOM     19  C   UNL     1      -4.305   3.150  -7.799  0.00  0.00    +0.012 C 
ENDBRANCH  16  17
ENDBRANCH   9  11
ENDBRANCH   7   9
ENDBRANCH   5   7
ENDBRANCH   3   5
BRANCH   1  20
ATOM     20  C   UNL     1      -3.409  -0.824  -1.489  0.00  0.00    +0.102 C 
BRANCH  20  21
ATOM     21  C   UNL     1      -2.879  -1.032  -0.068  0.00  0.00    +0.051 C 
BRANCH  21  24
ATOM     22  C   UNL     1      -0.082  -0.348  -0.265  0.00  0.00    +0.066 C 
ATOM     23  C   UNL     1      -0.506  -1.791  -0.169  0.00  0.00    +0.049 A 
ATOM     24  C   UNL     1      -1.827  -2.110  -0.077  0.00  0.00    +0.038 A 
ATOM     25  C   UNL     1      -2.188  -3.470   0.011  0.00  0.00    +0.255 A 
ATOM     26  O   UNL     1      -3.360  -3.799   0.095  0.00  0.00    -0.268 OA
ATOM     27  N   UNL     1      -1.210  -4.401  -0.000  0.00  0.00    -0.311 N 
ATOM     28  H   UNL     1      -1.435  -5.342   0.059  0.00  0.00    +0.170 HD
ATOM     29  C   UNL     1       0.079  -4.020  -0.094  0.00  0.00    +0.107 A 
ATOM     30  N   UNL     1       0.414  -2.760  -0.180  0.00  0.00    -0.239 NA
ATOM     31  C   UNL     1       1.159  -5.071  -0.105  0.00  0.00    +0.086 C 
ENDBRANCH  21  24
ENDBRANCH  20  21
ENDBRANCH   1  20
TORSDOF 8
