REMARK  Name = ZINC05519669
REMARK  6 active torsions:
REMARK  status: ('A' for Active; 'I' for Inactive)
REMARK    1  A    between atoms: C_1  and  C_2
REMARK    2  A    between atoms: C_2  and  C_3
REMARK    3  A    between atoms: C_3  and  C_20
REMARK    4  A    between atoms: C_12  and  C_19
REMARK    5  A    between atoms: C_16  and  C_18
REMARK    6  A    between atoms: C_20  and  C_21
REMARK                            x       y       z     vdW  Elec       q    Type
REMARK                         _______ _______ _______ _____ _____    ______ ____
ROOT
ATOM      1  C   UNL     1       0.016  -0.905   0.632  0.00  0.00    +0.123 C 
ATOM      2  C   UNL     1       0.452  -1.489  -0.706  0.00  0.00    +0.240 C 
ATOM      3  O   UNL     1      -0.297  -2.121  -1.419  0.00  0.00    -0.274 OA
ATOM      4  N   UNL     1       1.741  -1.247  -1.034  0.00  0.00    -0.194 N 
ATOM      5  C   UNL     1       2.503  -1.705  -2.025  0.00  0.00    +0.317 C 
ATOM      6  O   UNL     1       2.074  -2.284  -3.003  0.00  0.00    -0.252 OA
ATOM      7  N   UNL     1       3.804  -1.447  -1.811  0.00  0.00    -0.236 N 
ATOM      8  C   UNL     1       3.985  -0.672  -0.720  0.00  0.00    +0.263 C 
ATOM      9  O   UNL     1       5.039  -0.308  -0.245  0.00  0.00    -0.271 OA
ATOM     10  C   UNL     1       2.596  -0.354  -0.214  0.00  0.00    +0.195 C 
ATOM     11  N   UNL     1       2.428  -0.781   1.182  0.00  0.00    -0.210 N 
ATOM     12  C   UNL     1       1.167  -1.072   1.603  0.00  0.00    +0.239 C 
ATOM     13  O   UNL     1       0.967  -1.458   2.735  0.00  0.00    -0.274 OA
ATOM     14  C   UNL     1       3.483  -0.880   2.015  0.00  0.00    +0.221 C 
ATOM     15  O   UNL     1       4.607  -0.715   1.592  0.00  0.00    -0.275 OA
ATOM     16  C   UNL     1       3.265  -1.195   3.473  0.00  0.00    +0.110 C 
ATOM     17  C   UNL     1       2.243   1.120  -0.421  0.00  0.00    +0.065 C 
ATOM     18  H   UNL     1       4.524  -1.778  -2.371  0.00  0.00    +0.159 HD
ENDROOT
BRANCH   1  20
ATOM     19  C   UNL     1      -1.236   1.027   1.603  0.00  0.00    +0.005 C 
ATOM     20  C   UNL     1      -0.313   0.580   0.467  0.00  0.00    +0.022 C 
ENDBRANCH   1  20
BRANCH   1  21
ATOM     21  C   UNL     1      -1.213  -1.655   1.149  0.00  0.00    +0.022 C 
ATOM     22  C   UNL     1      -0.875  -3.138   1.311  0.00  0.00    +0.005 C 
ENDBRANCH   1  21
TORSDOF 2
