REMARK  Name = ZINC32885552
REMARK  4 active torsions:
REMARK  status: ('A' for Active; 'I' for Inactive)
REMARK    1  A    between atoms: C_9  and  S_11
REMARK    2  A    between atoms: S_11  and  N_14
REMARK    3  A    between atoms: N_17  and  S_20
REMARK    4  A    between atoms: S_20  and  N_23
REMARK                            x       y       z     vdW  Elec       q    Type
REMARK                         _______ _______ _______ _____ _____    ______ ____
ROOT
ATOM      1  N   UNL     1      -4.518   6.262  -1.854  0.00  0.00    -0.174 NA
ATOM      2  C   UNL     1      -4.102   7.445  -2.621  0.00  0.00    +0.126 C 
ATOM      3  C   UNL     1      -3.413   6.969  -3.911  0.00  0.00    +0.127 C 
ATOM      4  N   UNL     1      -4.273   5.970  -4.561  0.00  0.00    -0.164 NA
ATOM      5  C   UNL     1      -4.693   4.790  -3.792  0.00  0.00    +0.127 C 
ATOM      6  C   UNL     1      -5.378   5.263  -2.504  0.00  0.00    +0.126 C 
ENDROOT
BRANCH   1   7
ATOM      7  S   UNL     1      -4.031   6.062  -0.284  0.00  0.00    +0.057 S 
ATOM      8  O   UNL     1      -4.989   5.213   0.333  0.00  0.00    -0.153 OA
ATOM      9  O   UNL     1      -3.728   7.357   0.216  0.00  0.00    -0.153 OA
BRANCH   7  18
ATOM     10  C   UNL     1       1.177   1.782   0.000  0.00  0.00    +0.000 A 
ATOM     11  C   UNL     1      -0.013   1.076   0.008  0.00  0.00    +0.001 A 
ATOM     12  C   UNL     1      -1.218   1.748   0.017  0.00  0.00    +0.008 A 
ATOM     13  C   UNL     1      -1.231   3.141   0.028  0.00  0.00    -0.020 A 
ATOM     14  C   UNL     1      -0.028   3.848   0.030  0.00  0.00    -0.040 A 
ATOM     15  C   UNL     1       1.170   3.166   0.014  0.00  0.00    +0.004 A 
ATOM     16  C   UNL     1      -0.054   5.354   0.064  0.00  0.00    +0.042 C 
ATOM     17  C   UNL     1      -1.250   5.872  -0.731  0.00  0.00    +0.061 C 
ATOM     18  C   UNL     1      -2.513   5.168  -0.319  0.00  0.00    +0.084 C 
ATOM     19  C   UNL     1      -2.505   3.888   0.019  0.00  0.00    +0.032 C 
ENDBRANCH   7  18
ENDBRANCH   1   7
BRANCH   4  20
ATOM     20  S   UNL     1      -4.760   6.171  -6.131  0.00  0.00    +0.100 S 
ATOM     21  O   UNL     1      -3.803   7.021  -6.748  0.00  0.00    -0.141 OA
ATOM     22  O   UNL     1      -5.064   4.876  -6.630  0.00  0.00    -0.141 OA
BRANCH  20  23
ATOM     23  N   UNL     1      -6.186   7.011  -6.097  0.00  0.00    -0.166 NA
ATOM     24  C   UNL     1      -7.426   6.271  -6.029  0.00  0.00    +0.110 C 
ATOM     25  C   UNL     1      -7.922   5.945  -7.453  0.00  0.00    +0.017 C 
ATOM     26  C   UNL     1      -8.405   7.165  -8.117  0.00  0.00    +0.001 C 
ATOM     27  C   UNL     1      -7.335   8.233  -8.323  0.00  0.00    +0.001 C 
ATOM     28  C   UNL     1      -7.218   9.072  -7.074  0.00  0.00    +0.017 C 
ATOM     29  C   UNL     1      -6.140   8.486  -6.143  0.00  0.00    +0.110 C 
ENDBRANCH  20  23
ENDBRANCH   4  20
TORSDOF 4
