REMARK  Name = ZINC62631663
REMARK  10 active torsions:
REMARK  status: ('A' for Active; 'I' for Inactive)
REMARK    1  A    between atoms: C_1  and  C_2
REMARK    2  A    between atoms: C_2  and  C_3
REMARK    3  A    between atoms: C_3  and  C_4
REMARK    4  A    between atoms: C_3  and  N_5
REMARK    5  A    between atoms: C_6  and  C_8
REMARK    6  A    between atoms: C_8  and  C_9
REMARK    7  A    between atoms: C_8  and  N_10
REMARK    8  A    between atoms: C_11  and  C_13
REMARK    9  A    between atoms: C_22  and  C_26
REMARK   10  A    between atoms: C_24  and  C_25
REMARK                            x       y       z     vdW  Elec       q    Type
REMARK                         _______ _______ _______ _____ _____    ______ ____
ROOT
ATOM      1  C   UNL     1       6.674   0.467  -5.208  0.00  0.00    +0.306 C 
ATOM      2  O   UNL     1       5.897   0.510  -6.140  0.00  0.00    -0.265 OA
ATOM      3  N   UNL     1       8.001   0.431  -5.439  0.00  0.00    -0.261 N 
ATOM      4  C   UNL     1       8.504   0.612  -6.733  0.00  0.00    +0.041 A 
ATOM      5  C   UNL     1       7.662   1.106  -7.723  0.00  0.00    +0.024 A 
ATOM      6  C   UNL     1       8.137   1.287  -9.007  0.00  0.00    +0.002 A 
ATOM      7  C   UNL     1       9.451   0.977  -9.306  0.00  0.00    +0.000 A 
ATOM      8  C   UNL     1      10.290   0.488  -8.323  0.00  0.00    +0.006 A 
ATOM      9  C   UNL     1       9.822   0.305  -7.032  0.00  0.00    -0.014 A 
ATOM     10  C   UNL     1      10.765  -0.221  -5.983  0.00  0.00    +0.108 C 
ATOM     11  C   UNL     1       9.985  -0.821  -4.814  0.00  0.00    +0.040 C 
ATOM     12  C   UNL     1       8.945   0.207  -4.335  0.00  0.00    +0.080 C 
ATOM     13  C   UNL     1       9.639   1.521  -3.972  0.00  0.00    +0.028 C 
ENDROOT
BRANCH  10  14
ATOM     14  C   UNL     1      11.645  -1.283  -6.592  0.00  0.00    +0.218 C 
ATOM     15  O   UNL     1      11.247  -2.426  -6.675  0.00  0.00    -0.275 OA
ATOM     16  N   UNL     1      12.873  -0.963  -7.044  0.00  0.00    -0.329 N 
ATOM     17  H   UNL     1      13.163  -0.037  -7.048  0.00  0.00    +0.145 HD
ATOM     18  H   UNL     1      13.469  -1.658  -7.365  0.00  0.00    +0.145 HD
ENDBRANCH  10  14
BRANCH   1  20
ATOM     19  N   UNL     1       4.834   0.365  -3.576  0.00  0.00    -0.297 N 
ATOM     20  C   UNL     1       6.159   0.455  -3.806  0.00  0.00    +0.300 C 
ATOM     21  O   UNL     1       6.933   0.526  -2.875  0.00  0.00    -0.265 OA
ATOM     22  H   UNL     1       4.215   0.308  -4.321  0.00  0.00    +0.150 HD
BRANCH  19  23
ATOM     23  C   UNL     1       4.329   0.353  -2.201  0.00  0.00    +0.156 C 
ATOM     24  C   UNL     1       4.169   1.791  -1.704  0.00  0.00    +0.038 C 
BRANCH  23  26
ATOM     25  N   UNL     1       2.335  -0.474  -0.994  0.00  0.00    -0.311 N 
ATOM     26  C   UNL     1       2.993  -0.344  -2.163  0.00  0.00    +0.233 C 
ATOM     27  O   UNL     1       2.510  -0.786  -3.183  0.00  0.00    -0.274 OA
ATOM     28  H   UNL     1       2.721  -0.120  -0.177  0.00  0.00    +0.149 HD
BRANCH  25  29
ATOM     29  C   UNL     1       1.036  -1.151  -0.957  0.00  0.00    +0.070 C 
ATOM     30  C   UNL     1       1.251  -2.661  -0.836  0.00  0.00    +0.028 C 
BRANCH  29  32
ATOM     31  C   UNL     1      -0.087   0.832   0.067  0.00  0.00    +0.005 C 
ATOM     32  C   UNL     1       0.235  -0.652   0.248  0.00  0.00    +0.018 C 
ENDBRANCH  29  32
ENDBRANCH  25  29
ENDBRANCH  23  26
ENDBRANCH  19  23
ENDBRANCH   1  20
TORSDOF 6
