REMARK  Name = ZINC31165402
REMARK  13 active torsions:
REMARK  status: ('A' for Active; 'I' for Inactive)
REMARK    1  A    between atoms: C_1  and  C_2
REMARK    2  A    between atoms: C_2  and  O_4
REMARK    3  A    between atoms: O_4  and  C_5
REMARK    4  A    between atoms: C_10  and  C_41
REMARK    5  A    between atoms: C_10  and  C_42
REMARK    6  A    between atoms: C_14  and  O_40
REMARK    7  A    between atoms: C_16  and  C_39
REMARK    8  A    between atoms: C_19  and  C_38
REMARK    9  A    between atoms: C_25  and  C_33
REMARK   10  A    between atoms: C_25  and  C_34
REMARK   11  A    between atoms: C_28  and  C_32
REMARK   12  A    between atoms: C_34  and  O_36
REMARK   13  A    between atoms: O_36  and  C_37
REMARK                            x       y       z     vdW  Elec       q    Type
REMARK                         _______ _______ _______ _____ _____    ______ ____
ROOT
ATOM      1  C   UNL     1      -6.485   3.223   3.557  0.00  0.00    +0.184 C 
ATOM      2  C   UNL     1      -7.877   3.042   4.177  0.00  0.00    +0.050 C 
ATOM      3  C   UNL     1      -7.754   3.172   5.694  0.00  0.00    +0.014 C 
ATOM      4  C   UNL     1      -8.990   2.663   6.409  0.00  0.00    +0.027 C 
ATOM      5  C   UNL     1      -9.018   3.082   7.858  0.00  0.00    +0.142 C 
ATOM      6  O   UNL     1      -9.543   2.346   8.676  0.00  0.00    -0.297 OA
ATOM      7  C   UNL     1      -8.420   4.385   8.315  0.00  0.00    +0.106 C 
ATOM      8  C   UNL     1      -7.102   4.639   7.587  0.00  0.00    +0.128 C 
ATOM      9  C   UNL     1      -7.328   4.587   6.064  0.00  0.00    +0.002 C 
ATOM     10  C   UNL     1      -5.993   4.899   5.389  0.00  0.00    +0.012 C 
ATOM     11  C   UNL     1      -5.923   4.604   3.902  0.00  0.00    +0.023 C 
ATOM     12  C   UNL     1      -4.475   4.726   3.427  0.00  0.00    +0.125 C 
ATOM     13  C   UNL     1      -3.591   3.701   4.104  0.00  0.00    +0.314 C 
ATOM     14  O   UNL     1      -3.878   3.100   5.097  0.00  0.00    -0.250 OA
ATOM     15  O   UNL     1      -2.366   3.543   3.541  0.00  0.00    -0.439 OA
ATOM     16  C   UNL     1      -1.522   4.719   3.698  0.00  0.00    +0.264 C 
ATOM     17  C   UNL     1      -2.320   5.986   3.592  0.00  0.00    +0.198 C 
ATOM     18  O   UNL     1      -1.707   7.031   3.382  0.00  0.00    -0.292 OA
ATOM     19  C   UNL     1      -3.831   6.083   3.704  0.00  0.00    +0.065 C 
ATOM     20  C   UNL     1      -4.170   6.544   5.102  0.00  0.00    -0.062 C 
ATOM     21  C   UNL     1      -3.264   7.130   5.854  0.00  0.00    +0.008 C 
ATOM     22  C   UNL     1      -5.564   6.344   5.656  0.00  0.00    +0.036 C 
ATOM     23  C   UNL     1      -4.261   7.152   2.682  0.00  0.00    +0.025 C 
ATOM     24  C   UNL     1      -0.815   4.655   5.058  0.00  0.00    +0.077 C 
ATOM     25  C   UNL     1      -6.784   5.598   3.097  0.00  0.00    +0.016 C 
ATOM     26  C   UNL     1      -8.389   5.625   5.715  0.00  0.00    +0.014 C 
ATOM     27  C   UNL     1     -10.287   3.091   5.720  0.00  0.00    +0.019 C 
ATOM     28  C   UNL     1      -8.954   1.115   6.392  0.00  0.00    +0.019 C 
ENDROOT
BRANCH  16  29
ATOM     29  C   UNL     1      -0.467   4.704   2.611  0.00  0.00    +0.359 C 
ATOM     30  O   UNL     1      -0.089   5.742   2.121  0.00  0.00    -0.246 OA
BRANCH  29  31
ATOM     31  O   UNL     1       0.048   3.537   2.192  0.00  0.00    -0.465 OA
ATOM     32  C   UNL     1       1.055   3.599   1.148  0.00  0.00    +0.280 C 
ENDBRANCH  29  31
ENDBRANCH  16  29
BRANCH   8  33
ATOM     33  O   UNL     1      -6.148   3.645   7.961  0.00  0.00    -0.391 OA
ATOM     34  H   UNL     1      -5.134   3.668   7.534  0.00  0.00    +0.210 HD
ENDBRANCH   8  33
BRANCH   1  35
ATOM     35  O   UNL     1      -5.636   2.136   3.980  0.00  0.00    -0.461 OA
BRANCH  35  37
ATOM     36  C   UNL     1      -4.756  -0.136   3.584  0.00  0.00    +0.136 C 
ATOM     37  C   UNL     1      -5.619   1.040   3.205  0.00  0.00    +0.304 C 
ATOM     38  O   UNL     1      -6.295   0.997   2.205  0.00  0.00    -0.251 OA
ENDBRANCH  35  37
ENDBRANCH   1  35
TORSDOF 5
