REMARK  Name = ZINC13057196
REMARK  9 active torsions:
REMARK  status: ('A' for Active; 'I' for Inactive)
REMARK    1  A    between atoms: C_1  and  C_2
REMARK    2  A    between atoms: C_2  and  C_3
REMARK    3  A    between atoms: C_6  and  C_9
REMARK    4  A    between atoms: C_9  and  C_11
REMARK    5  A    between atoms: C_9  and  N_12
REMARK    6  A    between atoms: C_13  and  C_15
REMARK    7  A    between atoms: C_15  and  N_16
REMARK    8  A    between atoms: C_23  and  C_27
REMARK    9  A    between atoms: C_24  and  C_26
REMARK                            x       y       z     vdW  Elec       q    Type
REMARK                         _______ _______ _______ _____ _____    ______ ____
ROOT
ATOM      1  C   UNL     1       2.462   0.920  -0.017  0.00  0.00    +0.222 C 
ENDROOT
BRANCH   1   2
ATOM      2  N   UNL     1       3.562   1.887  -0.022  0.00  0.00    -0.290 N 
ATOM      3  C   UNL     1       4.082   2.328   1.150  0.00  0.00    +0.206 A 
ATOM      4  N   UNL     1       5.062   3.186   1.201  0.00  0.00    -0.202 NA
ATOM      5  C   UNL     1       5.612   3.685   0.083  0.00  0.00    +0.235 A 
ATOM      6  C   UNL     1       5.120   3.269  -1.154  0.00  0.00    +0.119 A 
ATOM      7  C   UNL     1       4.063   2.335  -1.196  0.00  0.00    +0.266 A 
ATOM      8  O   UNL     1       3.611   1.946  -2.260  0.00  0.00    -0.267 OA
ATOM      9  C   UNL     1       5.918   3.984  -2.163  0.00  0.00    +0.118 A 
ATOM     10  C   UNL     1       6.799   4.748  -1.458  0.00  0.00    +0.119 A 
ATOM     11  O   UNL     1       6.606   4.560  -0.146  0.00  0.00    -0.441 OA
ATOM     12  C   UNL     1       7.833   5.664  -2.061  0.00  0.00    +0.087 C 
BRANCH   9  13
ATOM     13  C   UNL     1       5.793   3.893  -3.626  0.00  0.00    +0.391 C 
ATOM     14  O   UNL     1       5.046   4.646  -4.220  0.00  0.00    -0.240 OA
ATOM     15  O   UNL     1       6.505   2.974  -4.308  0.00  0.00    -0.240 OA
ENDBRANCH   9  13
ENDBRANCH   1   2
BRANCH   1  17
ATOM     16  N   UNL     1      -0.011   0.966   0.007  0.00  0.00    -0.307 N 
ATOM     17  C   UNL     1       1.147   1.655   0.000  0.00  0.00    +0.233 C 
ATOM     18  O   UNL     1       1.130   2.868   0.007  0.00  0.00    -0.274 OA
ATOM     19  H   UNL     1       0.002  -0.004   0.002  0.00  0.00    +0.149 HD
BRANCH  16  20
ATOM     20  C   UNL     1      -1.290   1.681   0.017  0.00  0.00    +0.100 C 
ATOM     21  C   UNL     1      -1.667   2.032   1.458  0.00  0.00    +0.033 C 
BRANCH  20  25
ATOM     22  C   UNL     1      -4.322  -0.800  -1.685  0.00  0.00    -0.048 A 
ATOM     23  C   UNL     1      -4.295   0.552  -1.970  0.00  0.00    +0.004 A 
ATOM     24  C   UNL     1      -3.313   1.355  -1.419  0.00  0.00    +0.006 A 
ATOM     25  C   UNL     1      -2.360   0.806  -0.583  0.00  0.00    -0.027 A 
ATOM     26  C   UNL     1      -2.384  -0.548  -0.302  0.00  0.00    +0.006 A 
ATOM     27  C   UNL     1      -3.368  -1.350  -0.848  0.00  0.00    +0.004 A 
BRANCH  22  29
ATOM     28  C   UNL     1      -4.904  -2.229  -3.626  0.00  0.00    +0.009 C 
ATOM     29  C   UNL     1      -5.391  -1.676  -2.285  0.00  0.00    +0.032 C 
ENDBRANCH  22  29
ENDBRANCH  20  25
ENDBRANCH  16  20
ENDBRANCH   1  17
TORSDOF 6
