REMARK  Name = ZINC40065962
REMARK  15 active torsions:
REMARK  status: ('A' for Active; 'I' for Inactive)
REMARK    1  A    between atoms: C_1  and  C_2
REMARK    2  A    between atoms: C_2  and  O_3
REMARK    3  A    between atoms: O_3  and  C_4
REMARK    4  A    between atoms: C_6  and  C_16
REMARK    5  A    between atoms: C_9  and  O_10
REMARK    6  A    between atoms: O_10  and  C_11
REMARK    7  A    between atoms: C_11  and  C_12
REMARK    8  A    between atoms: C_12  and  C_13
REMARK    9  A    between atoms: C_13  and  C_14
REMARK   10  A    between atoms: C_13  and  C_15
REMARK   11  A    between atoms: C_24  and  C_36
REMARK   12  A    between atoms: C_25  and  C_35
REMARK   13  A    between atoms: N_31  and  C_32
REMARK   14  A    between atoms: C_32  and  C_33
REMARK   15  A    between atoms: C_33  and  O_34
REMARK                            x       y       z     vdW  Elec       q    Type
REMARK                         _______ _______ _______ _____ _____    ______ ____
ROOT
ATOM      1  C   UNL     1      -0.229  -4.969   0.477  0.00  0.00    +0.145 C 
ATOM      2  C   UNL     1       0.856  -5.514   1.348  0.00  0.00    +0.072 A 
ATOM      3  C   UNL     1       1.814  -4.843   2.232  0.00  0.00    +0.199 A 
ATOM      4  O   UNL     1       1.740  -3.662   2.522  0.00  0.00    -0.287 OA
ATOM      5  C   UNL     1       2.881  -5.740   2.742  0.00  0.00    +0.065 A 
ATOM      6  C   UNL     1       3.975  -5.216   3.430  0.00  0.00    +0.015 A 
ATOM      7  C   UNL     1       4.952  -6.055   3.889  0.00  0.00    +0.004 A 
ATOM      8  C   UNL     1       4.858  -7.423   3.671  0.00  0.00    -0.044 A 
ATOM      9  C   UNL     1       3.784  -7.957   2.995  0.00  0.00    -0.005 A 
ATOM     10  C   UNL     1       2.772  -7.122   2.520  0.00  0.00    +0.143 A 
ATOM     11  O   UNL     1       1.722  -7.670   1.868  0.00  0.00    -0.449 OA
ATOM     12  C   UNL     1       0.860  -6.872   1.206  0.00  0.00    +0.199 A 
ATOM     13  C   UNL     1      -0.200  -7.241   0.251  0.00  0.00    +0.283 C 
ATOM     14  O   UNL     1      -0.459  -8.376  -0.097  0.00  0.00    -0.267 OA
ATOM     15  N   UNL     1      -0.844  -6.134  -0.179  0.00  0.00    -0.281 N 
ATOM     16  C   UNL     1       3.702  -9.444   2.769  0.00  0.00    +0.048 C 
ATOM     17  C   UNL     1       5.944  -8.334   4.181  0.00  0.00    +0.044 C 
ENDROOT
BRANCH   1  20
ATOM     18  C   UNL     1       0.777  -1.811  -1.336  0.00  0.00    +0.162 A 
ATOM     19  C   UNL     1       0.243  -2.669  -0.388  0.00  0.00    +0.055 A 
ATOM     20  C   UNL     1       0.352  -4.037  -0.555  0.00  0.00    -0.019 A 
ATOM     21  C   UNL     1       0.992  -4.552  -1.667  0.00  0.00    +0.009 A 
ATOM     22  C   UNL     1       1.526  -3.702  -2.616  0.00  0.00    +0.050 A 
ATOM     23  C   UNL     1       1.416  -2.330  -2.458  0.00  0.00    +0.162 A 
BRANCH  18  24
ATOM     24  O   UNL     1       0.671  -0.465  -1.174  0.00  0.00    -0.489 OA
BRANCH  24  26
ATOM     25  C   UNL     1      -0.019   1.526   0.010  0.00  0.00    +0.048 C 
ATOM     26  C   UNL     1       0.002  -0.004   0.002  0.00  0.00    +0.226 C 
ENDBRANCH  24  26
ENDBRANCH  18  24
BRANCH  23  27
ATOM     27  O   UNL     1       1.936  -1.492  -3.394  0.00  0.00    -0.488 OA
BRANCH  27  28
ATOM     28  C   UNL     1       2.578  -2.095  -4.520  0.00  0.00    +0.229 C 
BRANCH  28  29
ATOM     29  C   UNL     1       3.096  -1.002  -5.457  0.00  0.00    +0.044 C 
BRANCH  29  30
ATOM     30  C   UNL     1       3.783  -1.648  -6.662  0.00  0.00    -0.014 C 
ATOM     31  C   UNL     1       2.752  -2.428  -7.480  0.00  0.00    +0.007 C 
ATOM     32  C   UNL     1       4.410  -0.559  -7.536  0.00  0.00    +0.007 C 
ENDBRANCH  29  30
ENDBRANCH  28  29
ENDBRANCH  27  28
ENDBRANCH  23  27
ENDBRANCH   1  20
BRANCH  15  33
ATOM     33  C   UNL     1      -1.956  -6.099  -1.131  0.00  0.00    +0.137 C 
BRANCH  33  34
ATOM     34  C   UNL     1      -1.407  -5.966  -2.553  0.00  0.00    +0.175 C 
BRANCH  34  35
ATOM     35  O   UNL     1      -0.661  -7.139  -2.886  0.00  0.00    -0.393 OA
ATOM     36  H   UNL     1      -0.283  -7.124  -3.776  0.00  0.00    +0.209 HD
ENDBRANCH  34  35
ENDBRANCH  33  34
ENDBRANCH  15  33
TORSDOF 10
