REMARK  Name = ZINC13148966
REMARK  8 active torsions:
REMARK  status: ('A' for Active; 'I' for Inactive)
REMARK    1  A    between atoms: C_4  and  C_7
REMARK    2  A    between atoms: C_16  and  C_19
REMARK    3  A    between atoms: C_19  and  O_21
REMARK    4  A    between atoms: O_21  and  C_22
REMARK    5  A    between atoms: C_22  and  C_23
REMARK    6  A    between atoms: N_25  and  C_26
REMARK    7  A    between atoms: C_29  and  S_32
REMARK    8  A    between atoms: S_32  and  N_35
REMARK                            x       y       z     vdW  Elec       q    Type
REMARK                         _______ _______ _______ _____ _____    ______ ____
ROOT
ATOM      1  C   UNL     1      -0.014   1.204   0.018  0.00  0.00    +0.314 C 
ATOM      2  O   UNL     1       0.002  -0.005   0.021  0.00  0.00    -0.250 OA
ENDROOT
BRANCH   1  10
ATOM      3  C   UNL     1      -2.766   3.562  -1.218  0.00  0.00    -0.003 C 
ATOM      4  C   UNL     1      -2.851   4.443   0.030  0.00  0.00    +0.015 C 
ATOM      5  C   UNL     1      -2.750   3.567   1.280  0.00  0.00    -0.009 C 
ATOM      6  C   UNL     1      -3.899   2.556   1.289  0.00  0.00    +0.007 C 
ATOM      7  C   UNL     1      -3.814   1.676   0.041  0.00  0.00    -0.009 C 
ATOM      8  C   UNL     1      -3.915   2.552  -1.209  0.00  0.00    +0.015 C 
ATOM      9  C   UNL     1      -2.479   0.929   0.034  0.00  0.00    +0.021 C 
ATOM     10  C   UNL     1      -1.329   1.939   0.025  0.00  0.00    +0.069 C 
ATOM     11  C   UNL     1      -1.415   2.820   1.273  0.00  0.00    +0.021 C 
ATOM     12  C   UNL     1      -1.430   2.815  -1.225  0.00  0.00    +0.029 C 
BRANCH   3  16
ATOM     13  C   UNL     1      -3.047   6.008  -4.708  0.00  0.00    +0.000 A 
ATOM     14  C   UNL     1      -4.082   5.989  -3.792  0.00  0.00    +0.000 A 
ATOM     15  C   UNL     1      -3.991   5.198  -2.663  0.00  0.00    +0.004 A 
ATOM     16  C   UNL     1      -2.865   4.425  -2.450  0.00  0.00    -0.041 A 
ATOM     17  C   UNL     1      -1.828   4.447  -3.363  0.00  0.00    +0.004 A 
ATOM     18  C   UNL     1      -1.921   5.236  -4.495  0.00  0.00    +0.000 A 
ENDBRANCH   3  16
ENDBRANCH   1  10
BRANCH   1  19
ATOM     19  O   UNL     1       1.139   1.891   0.004  0.00  0.00    -0.455 OA
BRANCH  19  20
ATOM     20  C   UNL     1       2.367   1.117  -0.008  0.00  0.00    +0.328 C 
BRANCH  20  21
ATOM     21  C   UNL     1       3.550   2.051  -0.023  0.00  0.00    +0.255 C 
ATOM     22  O   UNL     1       3.374   3.251  -0.023  0.00  0.00    -0.272 OA
ATOM     23  N   UNL     1       4.802   1.553  -0.035  0.00  0.00    -0.283 N 
ATOM     24  H   UNL     1       4.963   0.467   0.042  0.00  0.00    +0.155 HD
BRANCH  23  25
ATOM     25  C   UNL     1       5.897   2.417  -0.147  0.00  0.00    +0.034 A 
ATOM     26  C   UNL     1       7.027   2.021  -0.851  0.00  0.00    +0.025 A 
ATOM     27  C   UNL     1       8.103   2.878  -0.965  0.00  0.00    +0.030 A 
ATOM     28  C   UNL     1       8.063   4.125  -0.368  0.00  0.00    +0.105 A 
ATOM     29  C   UNL     1       6.942   4.519   0.340  0.00  0.00    +0.030 A 
ATOM     30  C   UNL     1       5.859   3.669   0.452  0.00  0.00    +0.025 A 
BRANCH  28  31
ATOM     31  S   UNL     1       9.442   5.212  -0.509  0.00  0.00    +0.056 S 
ATOM     32  O   UNL     1      10.148   4.824  -1.679  0.00  0.00    -0.153 OA
ATOM     33  O   UNL     1       8.941   6.529  -0.323  0.00  0.00    -0.153 OA
BRANCH  31  34
ATOM     34  N   UNL     1      10.443   4.902   0.773  0.00  0.00    -0.204 NA
ATOM     35  H   UNL     1      11.320   5.564   0.722  0.00  0.00    +0.144 HD
ATOM     36  H   UNL     1      10.772   3.853   0.736  0.00  0.00    +0.144 HD
ENDBRANCH  31  34
ENDBRANCH  28  31
ENDBRANCH  23  25
ENDBRANCH  20  21
ENDBRANCH  19  20
ENDBRANCH   1  19
TORSDOF 8
