REMARK  Name = ZINC12296779
REMARK  10 active torsions:
REMARK  status: ('A' for Active; 'I' for Inactive)
REMARK    1  A    between atoms: C_1  and  C_2
REMARK    2  A    between atoms: C_2  and  C_3
REMARK    3  A    between atoms: C_3  and  C_4
REMARK    4  A    between atoms: C_11  and  O_31
REMARK    5  A    between atoms: C_12  and  C_16
REMARK    6  A    between atoms: C_13  and  C_15
REMARK    7  A    between atoms: C_19  and  C_22
REMARK    8  A    between atoms: C_25  and  N_28
REMARK    9  A    between atoms: N_28  and  C_29
REMARK   10  A    between atoms: N_28  and  C_30
REMARK                            x       y       z     vdW  Elec       q    Type
REMARK                         _______ _______ _______ _____ _____    ______ ____
ROOT
ATOM      1  C   UNL     1      -3.607   3.756  -2.401  0.00  0.00    -0.026 A 
ATOM      2  C   UNL     1      -4.724   4.523  -2.310  0.00  0.00    +0.096 A 
ATOM      3  C   UNL     1      -5.235   4.871  -1.043  0.00  0.00    +0.337 A 
ATOM      4  O   UNL     1      -6.237   5.560  -0.975  0.00  0.00    -0.245 OA
ATOM      5  O   UNL     1      -4.644   4.464   0.091  0.00  0.00    -0.422 OA
ATOM      6  C   UNL     1      -3.531   3.698   0.072  0.00  0.00    +0.143 A 
ATOM      7  C   UNL     1      -2.969   3.314  -1.159  0.00  0.00    +0.063 A 
ATOM      8  C   UNL     1      -1.811   2.525  -1.186  0.00  0.00    +0.137 A 
ATOM      9  C   UNL     1      -1.231   2.118   0.020  0.00  0.00    +0.043 A 
ATOM     10  C   UNL     1      -1.802   2.508   1.236  0.00  0.00    -0.035 A 
ATOM     11  C   UNL     1      -2.937   3.288   1.259  0.00  0.00    +0.051 A 
ATOM     12  C   UNL     1      -1.170   2.071   2.532  0.00  0.00    +0.044 C 
ENDROOT
BRANCH   9  13
ATOM     13  C   UNL     1      -0.015   1.284   0.009  0.00  0.00    +0.072 C 
ATOM     14  N   UNL     1       0.002  -0.004   0.002  0.00  0.00    -0.190 NA
ATOM     15  N   UNL     1       1.281  -0.556  -0.013  0.00  0.00    -0.261 N 
ATOM     16  C   UNL     1       2.270   0.534  -0.017  0.00  0.00    +0.125 C 
ATOM     17  C   UNL     1       1.403   1.808  -0.002  0.00  0.00    +0.086 C 
ATOM     18  H   UNL     1       1.487  -1.504  -0.020  0.00  0.00    +0.169 HD
BRANCH  16  19
ATOM     19  C   UNL     1       3.139   0.466   1.212  0.00  0.00    -0.025 A 
ATOM     20  C   UNL     1       2.585   0.120   2.431  0.00  0.00    +0.007 A 
ATOM     21  C   UNL     1       3.380   0.051   3.558  0.00  0.00    +0.023 A 
ATOM     22  C   UNL     1       4.736   0.340   3.469  0.00  0.00    +0.029 A 
ATOM     23  C   UNL     1       5.288   0.692   2.244  0.00  0.00    +0.023 A 
ATOM     24  C   UNL     1       4.489   0.754   1.120  0.00  0.00    +0.007 A 
BRANCH  22  25
ATOM     25  N   UNL     1       5.541   0.277   4.608  0.00  0.00    -0.336 N 
ATOM     26  C   UNL     1       6.971   0.582   4.512  0.00  0.00    +0.129 C 
ATOM     27  C   UNL     1       4.957  -0.095   5.899  0.00  0.00    +0.129 C 
ENDBRANCH  22  25
ENDBRANCH  16  19
ENDBRANCH   9  13
BRANCH   8  28
ATOM     28  O   UNL     1      -1.261   2.156  -2.369  0.00  0.00    -0.505 OA
ATOM     29  H   UNL     1      -1.602   1.320  -2.718  0.00  0.00    +0.292 HD
ENDBRANCH   8  28
BRANCH   1  30
ATOM     30  C   UNL     1      -3.041   3.368  -3.742  0.00  0.00    +0.036 C 
BRANCH  30  32
ATOM     31  C   UNL     1      -2.996   1.597  -5.503  0.00  0.00    +0.004 C 
ATOM     32  C   UNL     1      -3.571   1.990  -4.141  0.00  0.00    +0.001 C 
ENDBRANCH  30  32
ENDBRANCH   1  30
TORSDOF 6
