REMARK  Name = ZINC21325846
REMARK  12 active torsions:
REMARK  status: ('A' for Active; 'I' for Inactive)
REMARK    1  A    between atoms: C_1  and  C_2
REMARK    2  A    between atoms: C_2  and  N_3
REMARK    3  A    between atoms: N_3  and  C_4
REMARK    4  A    between atoms: N_3  and  C_6
REMARK    5  A    between atoms: C_4  and  C_5
REMARK    6  A    between atoms: C_9  and  C_13
REMARK    7  A    between atoms: C_10  and  O_12
REMARK    8  A    between atoms: N_14  and  N_15
REMARK    9  A    between atoms: C_19  and  S_22
REMARK   10  A    between atoms: N_20  and  N_21
REMARK   11  A    between atoms: S_22  and  C_23
REMARK   12  A    between atoms: C_23  and  C_24
REMARK                            x       y       z     vdW  Elec       q    Type
REMARK                         _______ _______ _______ _____ _____    ______ ____
ROOT
ATOM      1  N   UNL     1      -1.202  -0.721   0.010  0.00  0.00    -0.204 N 
ATOM      2  C   UNL     1      -1.183  -2.108   0.002  0.00  0.00    +0.254 A 
ATOM      3  N   UNL     1      -0.112  -2.864  -0.018  0.00  0.00    -0.109 NA
ATOM      4  N   UNL     1      -0.527  -4.202  -0.017  0.00  0.00    -0.119 NA
ATOM      5  C   UNL     1      -1.838  -4.220  -0.004  0.00  0.00    +0.210 A 
ATOM      6  N   UNL     1      -2.278  -2.927   0.008  0.00  0.00    -0.211 N 
ATOM      7  H   UNL     1      -2.162  -0.184   0.022  0.00  0.00    +0.177 HD
ENDROOT
BRANCH   6   8
ATOM      8  N   UNL     1      -3.583  -2.522   0.024  0.00  0.00    -0.294 N 
ATOM      9  H   UNL     1      -4.390  -3.269   0.028  0.00  0.00    +0.163 HD
ATOM     10  H   UNL     1      -3.826  -1.450   0.033  0.00  0.00    +0.163 HD
ENDBRANCH   6   8
BRANCH   1  12
ATOM     11  C   UNL     1      -0.015   1.295   0.009  0.00  0.00    +0.142 C 
ATOM     12  N   UNL     1       0.002  -0.004   0.002  0.00  0.00    -0.187 NA
BRANCH  11  16
ATOM     13  C   UNL     1       3.634   3.470  -0.014  0.00  0.00    +0.033 A 
ATOM     14  C   UNL     1       2.419   4.148   0.001  0.00  0.00    +0.024 A 
ATOM     15  C   UNL     1       1.234   3.446   0.009  0.00  0.00    +0.015 A 
ATOM     16  C   UNL     1       1.250   2.049   0.001  0.00  0.00    +0.036 A 
ATOM     17  C   UNL     1       2.475   1.366  -0.008  0.00  0.00    +0.127 A 
ATOM     18  C   UNL     1       3.660   2.081  -0.021  0.00  0.00    +0.069 A 
BRANCH  17  19
ATOM     19  O   UNL     1       2.499   0.008  -0.010  0.00  0.00    -0.506 OA
ATOM     20  H   UNL     1       3.461  -0.525  -0.018  0.00  0.00    +0.292 HD
ENDBRANCH  17  19
BRANCH  13  21
ATOM     21  N   UNL     1       4.831   4.187  -0.021  0.00  0.00    -0.330 N 
BRANCH  21  23
ATOM     22  C   UNL     1       4.812   6.154   1.433  0.00  0.00    +0.024 C 
ATOM     23  C   UNL     1       4.807   5.652  -0.013  0.00  0.00    +0.102 C 
ENDBRANCH  21  23
BRANCH  21  24
ATOM     24  C   UNL     1       6.111   3.476  -0.036  0.00  0.00    +0.102 C 
ATOM     25  C   UNL     1       6.544   3.236  -1.484  0.00  0.00    +0.024 C 
ENDBRANCH  21  24
ENDBRANCH  13  21
ENDBRANCH  11  16
ENDBRANCH   1  12
BRANCH   5  26
ATOM     26  S   UNL     1      -2.854  -5.660  -0.002  0.00  0.00    -0.075 S 
BRANCH  26  27
ATOM     27  C   UNL     1      -1.670  -7.033  -0.022  0.00  0.00    +0.173 C 
BRANCH  27  28
ATOM     28  C   UNL     1      -2.417  -8.341  -0.022  0.00  0.00    +0.229 C 
ATOM     29  O   UNL     1      -3.630  -8.347  -0.009  0.00  0.00    -0.275 OA
ATOM     30  N   UNL     1      -1.739  -9.506  -0.035  0.00  0.00    -0.264 N 
ATOM     31  C   UNL     1      -2.426 -10.708  -0.035  0.00  0.00    +0.165 A 
ATOM     32  N   UNL     1      -1.947 -11.931  -0.047  0.00  0.00    -0.225 NA
ATOM     33  C   UNL     1      -2.743 -13.022  -0.045  0.00  0.00    +0.080 A 
ATOM     34  C   UNL     1      -2.358 -14.383  -0.056  0.00  0.00    +0.029 A 
ATOM     35  C   UNL     1      -3.301 -15.377  -0.051  0.00  0.00    +0.002 A 
ATOM     36  C   UNL     1      -4.658 -15.089  -0.036  0.00  0.00    +0.001 A 
ATOM     37  C   UNL     1      -5.070 -13.769  -0.024  0.00  0.00    +0.017 A 
ATOM     38  C   UNL     1      -4.133 -12.767  -0.029  0.00  0.00    +0.041 A 
ATOM     39  S   UNL     1      -4.191 -10.991  -0.011  0.00  0.00    -0.052 S 
ATOM     40  H   UNL     1      -0.639  -9.501  -0.047  0.00  0.00    +0.157 HD
ENDBRANCH  27  28
ENDBRANCH  26  27
ENDBRANCH   5  26
TORSDOF 10
