REMARK  Name = ZINC61510048
REMARK  9 active torsions:
REMARK  status: ('A' for Active; 'I' for Inactive)
REMARK    1  A    between atoms: C_1  and  C_2
REMARK    2  A    between atoms: C_2  and  C_3
REMARK    3  A    between atoms: C_3  and  N_4
REMARK    4  A    between atoms: C_7  and  N_10
REMARK    5  A    between atoms: C_11  and  C_13
REMARK    6  A    between atoms: C_13  and  N_14
REMARK    7  A    between atoms: C_19  and  C_25
REMARK    8  A    between atoms: C_21  and  C_23
REMARK    9  A    between atoms: C_21  and  C_24
REMARK                            x       y       z     vdW  Elec       q    Type
REMARK                         _______ _______ _______ _____ _____    ______ ____
ROOT
ATOM      1  N   UNL     1       3.760  -8.839   2.870  0.00  0.00    -0.215 N 
ATOM      2  C   UNL     1       5.007  -9.156   2.459  0.00  0.00    +0.247 C 
ATOM      3  O   UNL     1       5.510  -8.860   1.398  0.00  0.00    -0.273 OA
ATOM      4  C   UNL     1       5.618  -9.939   3.596  0.00  0.00    +0.113 C 
ATOM      5  C   UNL     1       6.986  -9.386   3.964  0.00  0.00    +0.038 C 
ATOM      6  C   UNL     1       8.008  -9.759   2.890  0.00  0.00    -0.011 C 
ATOM      7  C   UNL     1       8.117 -11.280   2.826  0.00  0.00    +0.009 C 
ATOM      8  C   UNL     1       6.783 -11.910   2.442  0.00  0.00    -0.032 C 
ATOM      9  C   UNL     1       5.637 -11.427   3.314  0.00  0.00    +0.041 C 
ATOM     10  C   UNL     1       6.913 -13.438   2.625  0.00  0.00    +0.011 C 
ATOM     11  C   UNL     1       6.485 -11.649   0.963  0.00  0.00    +0.011 C 
ATOM     12  C   UNL     1       9.372  -9.168   3.263  0.00  0.00    +0.007 C 
ATOM     13  N   UNL     1       4.682  -9.681   4.715  0.00  0.00    -0.285 N 
ATOM     14  C   UNL     1       3.600  -9.095   4.174  0.00  0.00    +0.310 C 
ATOM     15  O   UNL     1       2.590  -8.829   4.796  0.00  0.00    -0.252 OA
ATOM     16  H   UNL     1       4.834  -9.897   5.645  0.00  0.00    +0.151 HD
ENDROOT
BRANCH   1  17
ATOM     17  C   UNL     1       2.728  -8.263   2.007  0.00  0.00    +0.213 C 
BRANCH  17  19
ATOM     18  N   UNL     1       1.984  -6.013   1.298  0.00  0.00    -0.311 N 
ATOM     19  C   UNL     1       2.838  -6.760   2.025  0.00  0.00    +0.231 C 
ATOM     20  O   UNL     1       3.696  -6.223   2.694  0.00  0.00    -0.274 OA
ATOM     21  H   UNL     1       1.298  -6.442   0.764  0.00  0.00    +0.149 HD
BRANCH  18  25
ATOM     22  N   UNL     1       0.762  -1.980   1.234  0.00  0.00    +0.380 N 
ATOM     23  C   UNL     1       1.544  -2.451   0.084  0.00  0.00    -0.077 C 
ATOM     24  C   UNL     1       1.501  -3.979   0.025  0.00  0.00    +0.003 C 
ATOM     25  C   UNL     1       2.092  -4.552   1.316  0.00  0.00    +0.069 C 
ATOM     26  C   UNL     1       1.315  -3.995   2.513  0.00  0.00    +0.003 C 
ATOM     27  C   UNL     1       1.366  -2.466   2.480  0.00  0.00    -0.077 C 
ATOM     28  H   UNL     1      -0.182  -2.328   1.160  0.00  0.00    -0.082 HD
BRANCH  22  29
ATOM     29  C   UNL     1       0.742  -0.511   1.242  0.00  0.00    -0.079 C 
BRANCH  29  31
ATOM     30  C   UNL     1      -0.019   1.526   0.010  0.00  0.00    +0.002 C 
ATOM     31  C   UNL     1       0.002  -0.004   0.002  0.00  0.00    -0.022 C 
ENDBRANCH  29  31
ENDBRANCH  22  29
ENDBRANCH  18  25
ENDBRANCH  17  19
ENDBRANCH   1  17
TORSDOF 5
