REMARK  Name = ZINC52829498
REMARK  4 active torsions:
REMARK  status: ('A' for Active; 'I' for Inactive)
REMARK    1  A    between atoms: C_1  and  N_2
REMARK    2  A    between atoms: C_11  and  C_13
REMARK    3  A    between atoms: C_13  and  N_14
REMARK    4  A    between atoms: C_18  and  C_20
REMARK                            x       y       z     vdW  Elec       q    Type
REMARK                         _______ _______ _______ _____ _____    ______ ____
ROOT
ATOM      1  C   UNL     1      -0.014  -1.164  -4.763  0.00  0.00    +0.159 C 
ENDROOT
BRANCH   1  12
ATOM      2  C   UNL     1       0.025   1.460   0.009  0.00  0.00    +0.174 C 
ATOM      3  N   UNL     1       0.040  -0.005   0.000  0.00  0.00    -0.249 N 
ATOM      4  C   UNL     1       0.033  -0.794  -1.105  0.00  0.00    +0.165 A 
ATOM      5  C   UNL     1       0.054  -2.122  -0.650  0.00  0.00    +0.103 A 
ATOM      6  C   UNL     1       0.073  -2.082   0.756  0.00  0.00    +0.150 A 
ATOM      7  N   UNL     1       0.070  -0.832   1.131  0.00  0.00    -0.177 NA
ATOM      8  C   UNL     1       0.052  -3.192  -1.647  0.00  0.00    +0.262 A 
ATOM      9  O   UNL     1       0.069  -4.365  -1.316  0.00  0.00    -0.267 OA
ATOM     10  N   UNL     1       0.030  -2.832  -2.952  0.00  0.00    -0.309 N 
ATOM     11  H   UNL     1       0.029  -3.514  -3.642  0.00  0.00    +0.170 HD
ATOM     12  C   UNL     1       0.011  -1.520  -3.299  0.00  0.00    +0.126 A 
ATOM     13  N   UNL     1       0.013  -0.555  -2.426  0.00  0.00    -0.213 NA
ENDBRANCH   1  12
BRANCH   1  14
ATOM     14  N   UNL     1      -0.032   0.297  -4.911  0.00  0.00    -0.288 NA
ATOM     15  C   UNL     1      -1.366   0.846  -4.587  0.00  0.00    +0.085 C 
ATOM     16  C   UNL     1      -1.535   2.060  -5.534  0.00  0.00    +0.017 C 
ATOM     17  C   UNL     1      -0.851   1.546  -6.828  0.00  0.00    +0.025 C 
ATOM     18  C   UNL     1       0.316   0.693  -6.288  0.00  0.00    +0.087 C 
BRANCH  18  19
ATOM     19  C   UNL     1       0.492  -0.535  -7.145  0.00  0.00    -0.029 A 
ATOM     20  C   UNL     1      -0.587  -1.361  -7.399  0.00  0.00    +0.005 A 
ATOM     21  C   UNL     1      -0.426  -2.487  -8.185  0.00  0.00    +0.002 A 
ATOM     22  C   UNL     1       0.814  -2.787  -8.717  0.00  0.00    +0.020 A 
ATOM     23  C   UNL     1       1.894  -1.961  -8.463  0.00  0.00    +0.041 A 
ATOM     24  C   UNL     1       1.731  -0.831  -7.682  0.00  0.00    +0.025 A 
ATOM     25 CL   UNL     1       3.452  -2.337  -9.131  0.00  0.00    -0.084 Cl
ENDBRANCH  18  19
ENDBRANCH   1  14
TORSDOF 3
