REMARK  Name = ZINC20363148
REMARK  10 active torsions:
REMARK  status: ('A' for Active; 'I' for Inactive)
REMARK    1  A    between atoms: C_1  and  C_2
REMARK    2  A    between atoms: C_7  and  C_23
REMARK    3  A    between atoms: C_9  and  C_13
REMARK    4  A    between atoms: C_10  and  C_12
REMARK    5  A    between atoms: C_13  and  O_15
REMARK    6  A    between atoms: O_15  and  C_16
REMARK    7  A    between atoms: C_16  and  C_17
REMARK    8  A    between atoms: C_32  and  C_34
REMARK    9  A    between atoms: C_34  and  O_36
REMARK   10  A    between atoms: O_36  and  C_37
REMARK                            x       y       z     vdW  Elec       q    Type
REMARK                         _______ _______ _______ _____ _____    ______ ____
ROOT
ATOM      1  C   UNL     1      -2.521  -3.733   8.523  0.00  0.00    +0.009 C 
ATOM      2  C   UNL     1      -1.976  -3.102   7.240  0.00  0.00    +0.013 C 
ATOM      3  C   UNL     1      -1.038  -4.086   6.536  0.00  0.00    +0.055 C 
ATOM      4  C   UNL     1      -0.466  -3.442   5.298  0.00  0.00    +0.016 C 
ATOM      5  C   UNL     1      -0.259  -2.110   5.239  0.00  0.00    +0.025 C 
ATOM      6  C   UNL     1       0.325  -1.475   4.002  0.00  0.00    +0.095 C 
ATOM      7  C   UNL     1       0.207  -2.392   2.820  0.00  0.00    +0.065 C 
ATOM      8  C   UNL     1      -0.027  -3.706   2.977  0.00  0.00    +0.016 C 
ATOM      9  N   UNL     1      -0.161  -4.241   4.228  0.00  0.00    -0.321 N 
ATOM     10  C   UNL     1      -0.138  -4.597   1.767  0.00  0.00    +0.061 C 
ATOM     11  C   UNL     1      -0.583  -1.277   6.324  0.00  0.00    +0.176 C 
ATOM     12  O   UNL     1      -0.375  -0.082   6.242  0.00  0.00    -0.291 OA
ATOM     13  C   UNL     1      -1.183  -1.837   7.585  0.00  0.00    +0.171 C 
ATOM     14  H   UNL     1      -0.021  -5.322   4.371  0.00  0.00    +0.152 HD
ENDROOT
BRANCH   6  15
ATOM     15  C   UNL     1       1.779  -1.165   4.245  0.00  0.00    -0.000 A 
ATOM     16  C   UNL     1       2.668  -2.187   4.520  0.00  0.00    +0.007 A 
ATOM     17  C   UNL     1       4.002  -1.903   4.742  0.00  0.00    +0.000 A 
ATOM     18  C   UNL     1       4.450  -0.595   4.689  0.00  0.00    +0.003 A 
ATOM     19  C   UNL     1       3.563   0.428   4.415  0.00  0.00    +0.038 A 
ATOM     20  C   UNL     1       2.227   0.144   4.187  0.00  0.00    +0.127 A 
ATOM     21  F   UNL     1       1.361   1.144   3.912  0.00  0.00    -0.205 F 
ENDBRANCH   6  15
BRANCH   7  22
ATOM     22  C   UNL     1       0.340  -1.862   1.515  0.00  0.00    +0.338 C 
ATOM     23  O   UNL     1      -0.560  -1.200   1.033  0.00  0.00    -0.245 OA
BRANCH  22  24
ATOM     24  O   UNL     1       1.464  -2.091   0.805  0.00  0.00    -0.457 OA
BRANCH  24  25
ATOM     25  C   UNL     1       1.530  -1.525  -0.506  0.00  0.00    +0.268 C 
BRANCH  25  26
ATOM     26  C   UNL     1       2.849  -1.883  -1.142  0.00  0.00    -0.010 A 
ATOM     27  C   UNL     1       3.941  -1.050  -0.985  0.00  0.00    +0.007 A 
ATOM     28  C   UNL     1       5.151  -1.381  -1.564  0.00  0.00    +0.000 A 
ATOM     29  C   UNL     1       5.268  -2.540  -2.308  0.00  0.00    +0.000 A 
ATOM     30  C   UNL     1       4.175  -3.370  -2.470  0.00  0.00    +0.000 A 
ATOM     31  C   UNL     1       2.965  -3.042  -1.887  0.00  0.00    +0.007 A 
ENDBRANCH  25  26
ENDBRANCH  24  25
ENDBRANCH  22  24
ENDBRANCH   7  22
BRANCH  13  32
ATOM     32  C   UNL     1      -2.102  -0.816   8.203  0.00  0.00    +0.318 C 
ATOM     33  O   UNL     1      -3.272  -1.074   8.362  0.00  0.00    -0.250 OA
BRANCH  32  34
ATOM     34  O   UNL     1      -1.622   0.380   8.578  0.00  0.00    -0.467 OA
ATOM     35  C   UNL     1      -2.565   1.314   9.167  0.00  0.00    +0.280 C 
ENDBRANCH  32  34
ENDBRANCH  13  32
TORSDOF 7
