REMARK  Name = ZINC13983574
REMARK  12 active torsions:
REMARK  status: ('A' for Active; 'I' for Inactive)
REMARK    1  A    between atoms: C_1  and  C_2
REMARK    2  A    between atoms: C_2  and  C_3
REMARK    3  A    between atoms: C_3  and  C_5
REMARK    4  A    between atoms: C_3  and  C_6
REMARK    5  A    between atoms: C_9  and  O_12
REMARK    6  A    between atoms: O_12  and  C_13
REMARK    7  A    between atoms: C_13  and  C_14
REMARK    8  A    between atoms: N_16  and  N_17
REMARK    9  A    between atoms: N_17  and  C_18
REMARK   10  A    between atoms: C_18  and  N_20
REMARK   11  A    between atoms: C_21  and  C_23
REMARK   12  A    between atoms: C_24  and  C_25
REMARK                            x       y       z     vdW  Elec       q    Type
REMARK                         _______ _______ _______ _____ _____    ______ ____
ROOT
ATOM      1  N   UNL     1       1.196  -2.010  -0.020  0.00  0.00    -0.245 N 
ATOM      2  H   UNL     1       2.043  -2.483  -0.031  0.00  0.00    +0.172 HD
ENDROOT
BRANCH   1   5
ATOM      3  C   UNL     1       0.011  -4.074  -0.020  0.00  0.00    +0.267 C 
ATOM      4  O   UNL     1       1.070  -4.666  -0.033  0.00  0.00    -0.271 OA
ATOM      5  N   UNL     1      -0.007  -2.727  -0.013  0.00  0.00    -0.232 N 
ATOM      6  H   UNL     1      -0.854  -2.253  -0.002  0.00  0.00    +0.173 HD
BRANCH   3   7
ATOM      7  C   UNL     1      -1.284  -4.845  -0.012  0.00  0.00    +0.326 C 
BRANCH   7   8
ATOM      8  O   UNL     1      -1.003  -6.247  -0.022  0.00  0.00    -0.483 OA
BRANCH   8  12
ATOM      9  C   UNL     1      -4.240  -8.804  -0.005  0.00  0.00    -0.044 A 
ATOM     10  C   UNL     1      -2.956  -9.316  -0.020  0.00  0.00    +0.007 A 
ATOM     11  C   UNL     1      -1.871  -8.462  -0.025  0.00  0.00    +0.046 A 
ATOM     12  C   UNL     1      -2.070  -7.089  -0.016  0.00  0.00    +0.121 A 
ATOM     13  C   UNL     1      -3.359  -6.578   0.004  0.00  0.00    +0.046 A 
ATOM     14  C   UNL     1      -4.442  -7.436   0.005  0.00  0.00    +0.007 A 
BRANCH   9  15
ATOM     15  C   UNL     1      -5.423  -9.738   0.001  0.00  0.00    +0.016 C 
ATOM     16  C   UNL     1      -6.282  -9.482  -1.238  0.00  0.00    +0.012 C 
BRANCH  15  18
ATOM     17  C   UNL     1      -7.387 -10.525   1.330  0.00  0.00    +0.004 C 
ATOM     18  C   UNL     1      -6.258  -9.495   1.260  0.00  0.00    +0.004 C 
ENDBRANCH  15  18
ENDBRANCH   9  15
ENDBRANCH   8  12
ENDBRANCH   7   8
ENDBRANCH   3   7
ENDBRANCH   1   5
BRANCH   1  19
ATOM     19  C   UNL     1       1.178  -0.662  -0.013  0.00  0.00    +0.153 C 
ATOM     20  S   UNL     1       2.649   0.214  -0.022  0.00  0.00    -0.017 S 
BRANCH  19  21
ATOM     21  N   UNL     1       0.002  -0.004   0.002  0.00  0.00    -0.263 N 
ATOM     22  C   UNL     1      -0.016   1.344   0.009  0.00  0.00    +0.242 C 
ATOM     23  O   UNL     1       1.029   1.966   0.003  0.00  0.00    -0.270 OA
ATOM     24  H   UNL     1      -0.831  -0.500   0.007  0.00  0.00    +0.157 HD
BRANCH  22  25
ATOM     25  C   UNL     1      -1.292   2.057   0.019  0.00  0.00    +0.068 C 
ATOM     26  C   UNL     1      -1.310   3.409   0.027  0.00  0.00    +0.013 C 
BRANCH  26  27
ATOM     27  C   UNL     1      -2.590   4.125   0.037  0.00  0.00    -0.017 A 
ATOM     28  C   UNL     1      -3.795   3.428   0.039  0.00  0.00    +0.008 A 
ATOM     29  C   UNL     1      -5.003   4.109   0.049  0.00  0.00    +0.001 A 
ATOM     30  C   UNL     1      -5.062   5.469   0.056  0.00  0.00    +0.008 A 
ATOM     31  C   UNL     1      -3.886   6.238   0.054  0.00  0.00    -0.017 A 
ATOM     32  C   UNL     1      -2.628   5.587   0.051  0.00  0.00    -0.011 A 
ATOM     33  C   UNL     1      -1.455   6.349   0.056  0.00  0.00    +0.009 A 
ATOM     34  C   UNL     1      -1.535   7.711   0.070  0.00  0.00    +0.001 A 
ATOM     35  C   UNL     1      -2.771   8.354   0.079  0.00  0.00    +0.001 A 
ATOM     36  C   UNL     1      -3.932   7.643   0.062  0.00  0.00    +0.008 A 
ENDBRANCH  26  27
ENDBRANCH  22  25
ENDBRANCH  19  21
ENDBRANCH   1  19
TORSDOF 10
