REMARK  Name = ZINC20914450
REMARK  6 active torsions:
REMARK  status: ('A' for Active; 'I' for Inactive)
REMARK    1  A    between atoms: C_1  and  N_2
REMARK    2  A    between atoms: C_4  and  C_7
REMARK    3  A    between atoms: C_7  and  N_8
REMARK    4  A    between atoms: N_8  and  C_9
REMARK    5  A    between atoms: C_9  and  C_10
REMARK    6  A    between atoms: C_11  and  C_20
REMARK                            x       y       z     vdW  Elec       q    Type
REMARK                         _______ _______ _______ _____ _____    ______ ____
ROOT
ATOM      1  C   UNL     1      -4.827   0.590   2.885  0.00  0.00    +0.039 A 
ATOM      2  C   UNL     1      -4.716  -0.536   3.649  0.00  0.00    +0.146 A 
ATOM      3  N   UNL     1      -5.214  -0.266   4.870  0.00  0.00    -0.223 NA
ATOM      4  C   UNL     1      -5.640   0.986   4.894  0.00  0.00    +0.139 A 
ATOM      5  N   UNL     1      -5.410   1.545   3.662  0.00  0.00    -0.303 N 
ATOM      6  C   UNL     1      -5.761   2.844   3.416  0.00  0.00    +0.113 A 
ATOM      7  C   UNL     1      -6.338   3.594   4.378  0.00  0.00    +0.058 A 
ATOM      8  C   UNL     1      -6.588   3.048   5.650  0.00  0.00    +0.025 A 
ATOM      9  C   UNL     1      -6.244   1.759   5.909  0.00  0.00    +0.048 A 
ATOM     10 CL   UNL     1      -6.776   5.240   4.043  0.00  0.00    -0.082 Cl
ENDROOT
BRANCH   2  11
ATOM     11  C   UNL     1      -4.145  -1.825   3.213  0.00  0.00    +0.267 C 
ATOM     12  O   UNL     1      -3.721  -1.950   2.080  0.00  0.00    -0.268 OA
ATOM     13  N   UNL     1      -4.093  -2.864   4.070  0.00  0.00    -0.296 N 
ATOM     14  C   UNL     1      -4.598  -2.720   5.443  0.00  0.00    +0.108 C 
ATOM     15  C   UNL     1      -6.118  -2.567   5.396  0.00  0.00    +0.019 C 
ATOM     16  C   UNL     1      -6.753  -3.922   5.040  0.00  0.00    +0.002 C 
ATOM     17  C   UNL     1      -6.614  -4.168   3.542  0.00  0.00    +0.000 C 
ATOM     18  C   UNL     1      -5.679  -5.362   3.271  0.00  0.00    +0.002 C 
ATOM     19  C   UNL     1      -4.442  -5.261   4.163  0.00  0.00    +0.019 C 
ATOM     20  C   UNL     1      -3.533  -4.137   3.649  0.00  0.00    +0.108 C 
ENDBRANCH   2  11
BRANCH   1  21
ATOM     21  C   UNL     1      -4.394   0.746   1.450  0.00  0.00    -0.025 C 
BRANCH  21  22
ATOM     22  N   UNL     1      -3.002   1.215   1.407  0.00  0.00    +0.385 N 
ATOM     23  H   UNL     1      -2.366   0.478   1.919  0.00  0.00    -0.085 HD
ATOM     24  H   UNL     1      -2.939   2.180   1.930  0.00  0.00    -0.085 HD
BRANCH  22  25
ATOM     25  C   UNL     1      -2.544   1.378   0.021  0.00  0.00    -0.043 C 
BRANCH  25  29
ATOM     26  C   UNL     1       2.467   1.456  -0.013  0.00  0.00    +0.172 C 
ATOM     27  N   UNL     1       1.067   1.886   0.002  0.00  0.00    -0.274 N 
ATOM     28  C   UNL     1      -0.013   1.076   0.008  0.00  0.00    +0.109 A 
ATOM     29  C   UNL     1      -1.116   1.859   0.017  0.00  0.00    -0.027 A 
ATOM     30  C   UNL     1      -0.697   3.193   0.025  0.00  0.00    +0.136 A 
ATOM     31  N   UNL     1       0.611   3.211   0.013  0.00  0.00    -0.180 NA
ENDBRANCH  25  29
ENDBRANCH  22  25
ENDBRANCH  21  22
ENDBRANCH   1  21
TORSDOF 5
