REMARK  Name = ZINC10372671
REMARK  7 active torsions:
REMARK  status: ('A' for Active; 'I' for Inactive)
REMARK    1  A    between atoms: C_1  and  C_2
REMARK    2  A    between atoms: C_9  and  C_11
REMARK    3  A    between atoms: C_11  and  O_12
REMARK    4  A    between atoms: O_12  and  C_13
REMARK    5  A    between atoms: C_17  and  C_19
REMARK    6  A    between atoms: N_21  and  N_22
REMARK    7  A    between atoms: C_23  and  C_25
REMARK                            x       y       z     vdW  Elec       q    Type
REMARK                         _______ _______ _______ _____ _____    ______ ____
ROOT
ATOM      1  C   UNL     1      -0.053  -2.837  -6.641  0.00  0.00    +0.122 A 
ATOM      2  C   UNL     1      -0.079  -1.719  -7.465  0.00  0.00    +0.046 A 
ATOM      3  C   UNL     1      -0.096  -1.868  -8.839  0.00  0.00    +0.004 A 
ATOM      4  C   UNL     1      -0.086  -3.128  -9.401  0.00  0.00    +0.013 A 
ATOM      5  C   UNL     1      -0.060  -4.257  -8.582  0.00  0.00    +0.042 A 
ATOM      6  C   UNL     1      -0.037  -4.106  -7.195  0.00  0.00    +0.058 A 
ENDROOT
BRANCH   5   7
ATOM      7  C   UNL     1      -0.049  -5.609  -9.181  0.00  0.00    +0.260 C 
ATOM      8  O   UNL     1      -0.026  -6.591  -8.464  0.00  0.00    -0.269 OA
ATOM      9  N   UNL     1      -0.066  -5.752 -10.521  0.00  0.00    -0.230 N 
ATOM     10  H   UNL     1      -0.084  -4.968 -11.092  0.00  0.00    +0.173 HD
BRANCH   9  11
ATOM     11  N   UNL     1      -0.056  -7.033 -11.088  0.00  0.00    -0.230 N 
ATOM     12  C   UNL     1      -0.072  -7.176 -12.428  0.00  0.00    +0.267 C 
ATOM     13  O   UNL     1      -0.095  -6.193 -13.145  0.00  0.00    -0.268 OA
ATOM     14  H   UNL     1      -0.037  -7.817 -10.517  0.00  0.00    +0.173 HD
BRANCH  12  15
ATOM     15  C   UNL     1      -0.061  -8.516 -13.022  0.00  0.00    +0.076 A 
ATOM     16  C   UNL     1      -0.074  -8.878 -14.353  0.00  0.00    +0.024 A 
ATOM     17  C   UNL     1      -0.060 -10.238 -14.667  0.00  0.00    -0.036 A 
ATOM     18  C   UNL     1      -0.036 -11.106 -13.621  0.00  0.00    -0.006 A 
ATOM     19  S   UNL     1      -0.021 -10.105 -12.213  0.00  0.00    -0.088 S 
ATOM     20  C   UNL     1      -0.027 -12.538 -14.081  0.00  0.00    +0.043 C 
ATOM     21  C   UNL     1      -0.486 -12.478 -15.555  0.00  0.00    +0.010 C 
ATOM     22  C   UNL     1      -0.061 -11.054 -15.963  0.00  0.00    +0.036 C 
ENDBRANCH  12  15
ENDBRANCH   9  11
ENDBRANCH   5   7
BRANCH   1  23
ATOM     23  O   UNL     1      -0.036  -2.685  -5.290  0.00  0.00    -0.486 OA
BRANCH  23  24
ATOM     24  C   UNL     1      -0.047  -1.347  -4.788  0.00  0.00    +0.286 C 
BRANCH  24  33
ATOM     25  C   UNL     1      -0.018   1.503   0.010  0.00  0.00    +0.047 C 
ATOM     26  C   UNL     1       0.002  -0.004   0.002  0.00  0.00    -0.008 A 
ATOM     27  C   UNL     1       0.023  -0.697   1.172  0.00  0.00    +0.008 A 
ATOM     28  C   UNL     1       0.041  -2.102   1.149  0.00  0.00    +0.018 A 
ATOM     29  C   UNL     1       0.038  -2.763  -0.028  0.00  0.00    +0.093 A 
ATOM     30  N   UNL     1       0.018  -2.080  -1.209  0.00  0.00    -0.306 N 
ATOM     31  C   UNL     1      -0.006  -0.709  -1.218  0.00  0.00    +0.141 A 
ATOM     32  N   UNL     1      -0.029  -0.308  -2.481  0.00  0.00    -0.229 NA
ATOM     33  C   UNL     1      -0.026  -1.377  -3.281  0.00  0.00    +0.097 A 
ATOM     34  C   UNL     1       0.011  -2.489  -2.515  0.00  0.00    +0.119 A 
ENDBRANCH  24  33
ENDBRANCH  23  24
ENDBRANCH   1  23
TORSDOF 6
