REMARK  Name = ZINC16009686
REMARK  11 active torsions:
REMARK  status: ('A' for Active; 'I' for Inactive)
REMARK    1  A    between atoms: C_1  and  C_2
REMARK    2  A    between atoms: C_2  and  N_3
REMARK    3  A    between atoms: N_3  and  C_4
REMARK    4  A    between atoms: N_3  and  C_6
REMARK    5  A    between atoms: C_4  and  C_5
REMARK    6  A    between atoms: C_9  and  C_12
REMARK    7  A    between atoms: C_20  and  O_33
REMARK    8  A    between atoms: C_23  and  C_24
REMARK    9  A    between atoms: C_23  and  N_69
REMARK   10  A    between atoms: N_26  and  C_27
REMARK   11  A    between atoms: C_27  and  C_28
REMARK                            x       y       z     vdW  Elec       q    Type
REMARK                         _______ _______ _______ _____ _____    ______ ____
ROOT
ATOM      1  C   UNL     1       3.564   2.094  -1.291  0.00  0.00    -0.031 C 
ATOM      2  C   UNL     1       2.130   1.562  -1.258  0.00  0.00    +0.011 C 
ATOM      3  C   UNL     1       1.416   2.060  -0.000  0.00  0.00    +0.005 C 
ATOM      4  C   UNL     1      -0.019   1.525   0.010  0.00  0.00    +0.000 C 
ATOM      5  C   UNL     1       0.002  -0.004   0.002  0.00  0.00    +0.003 C 
ATOM      6  C   UNL     1       0.728  -0.502  -1.250  0.00  0.00    +0.035 C 
ATOM      7  C   UNL     1       2.161   0.032  -1.249  0.00  0.00    +0.066 C 
ATOM      8  C   UNL     1       2.904  -0.462  -2.492  0.00  0.00    +0.016 C 
ATOM      9  C   UNL     1       4.317   0.128  -2.497  0.00  0.00    -0.075 C 
ATOM     10  N   UNL     1       4.225   1.604  -2.520  0.00  0.00    +0.390 N 
ATOM     11  H   UNL     1       3.668   1.890  -3.334  0.00  0.00    -0.080 HD
ENDROOT
BRANCH   1  15
ATOM     12  C   UNL     1       3.502   6.367  -1.359  0.00  0.00    +0.030 A 
ATOM     13  C   UNL     1       3.743   5.693  -0.168  0.00  0.00    +0.023 A 
ATOM     14  C   UNL     1       3.762   4.312  -0.150  0.00  0.00    +0.004 A 
ATOM     15  C   UNL     1       3.542   3.600  -1.315  0.00  0.00    -0.060 A 
ATOM     16  C   UNL     1       3.308   4.268  -2.503  0.00  0.00    +0.004 A 
ATOM     17  C   UNL     1       3.282   5.649  -2.527  0.00  0.00    +0.023 A 
BRANCH  12  18
ATOM     18  N   UNL     1       3.483   7.763  -1.381  0.00  0.00    -0.330 N 
BRANCH  18  20
ATOM     19  C   UNL     1       1.725   8.704  -2.797  0.00  0.00    +0.024 C 
ATOM     20  C   UNL     1       3.229   8.472  -2.637  0.00  0.00    +0.102 C 
ENDBRANCH  18  20
BRANCH  18  21
ATOM     21  C   UNL     1       3.716   8.519  -0.147  0.00  0.00    +0.102 C 
ATOM     22  C   UNL     1       5.213   8.797   0.005  0.00  0.00    +0.024 C 
ENDBRANCH  18  21
ENDBRANCH  12  18
ENDBRANCH   1  15
BRANCH   7  23
ATOM     23  O   UNL     1       2.838  -0.425  -0.076  0.00  0.00    -0.388 OA
ATOM     24  H   UNL     1       2.892  -1.388  -0.002  0.00  0.00    +0.210 HD
ENDBRANCH   7  23
BRANCH  10  25
ATOM     25  C   UNL     1       5.576   2.190  -2.634  0.00  0.00    +0.019 C 
BRANCH  25  26
ATOM     26  C   UNL     1       6.134   1.862  -3.995  0.00  0.00    +0.197 C 
ATOM     27  O   UNL     1       5.483   1.197  -4.773  0.00  0.00    -0.278 OA
ATOM     28  N   UNL     1       7.355   2.308  -4.348  0.00  0.00    -0.310 N 
ATOM     29  H   UNL     1       7.876   2.840  -3.726  0.00  0.00    +0.149 HD
BRANCH  28  30
ATOM     30  C   UNL     1       7.897   1.989  -5.671  0.00  0.00    +0.178 C 
BRANCH  30  31
ATOM     31  C   UNL     1       9.267   2.601  -5.814  0.00  0.00    +0.122 A 
ATOM     32  C   UNL     1      10.431   2.011  -5.486  0.00  0.00    +0.046 A 
ATOM     33  C   UNL     1      11.457   2.937  -5.782  0.00  0.00    +0.041 A 
ATOM     34  C   UNL     1      10.860   4.037  -6.273  0.00  0.00    +0.195 A 
ATOM     35  O   UNL     1       9.534   3.826  -6.296  0.00  0.00    -0.466 OA
ENDBRANCH  30  31
ENDBRANCH  28  30
ENDBRANCH  25  26
ENDBRANCH  10  25
TORSDOF 9
