REMARK  Name = ZINC45632154
REMARK  8 active torsions:
REMARK  status: ('A' for Active; 'I' for Inactive)
REMARK    1  A    between atoms: C_4  and  C_7
REMARK    2  A    between atoms: C_7  and  C_8
REMARK    3  A    between atoms: C_7  and  C_14
REMARK    4  A    between atoms: C_7  and  O_34
REMARK    5  A    between atoms: C_14  and  O_16
REMARK    6  A    between atoms: O_16  and  C_17
REMARK    7  A    between atoms: C_17  and  C_18
REMARK    8  A    between atoms: C_22  and  C_31
REMARK                            x       y       z     vdW  Elec       q    Type
REMARK                         _______ _______ _______ _____ _____    ______ ____
ROOT
ATOM      1  O   UNL     1       5.497  -1.547  -1.698  0.00  0.00    -0.453 OA
ENDROOT
BRANCH   1   2
ATOM      2  C   UNL     1       4.206  -1.321  -1.410  0.00  0.00    +0.349 C 
ATOM      3  O   UNL     1       3.354  -1.539  -2.239  0.00  0.00    -0.247 OA
BRANCH   2   4
ATOM      4  C   UNL     1       3.818  -0.797  -0.051  0.00  0.00    +0.213 C 
BRANCH   4   8
ATOM      5  C   UNL     1       0.090   1.270  -0.336  0.00  0.00    +0.000 A 
ATOM      6  C   UNL     1       1.201   1.914   0.177  0.00  0.00    +0.000 A 
ATOM      7  C   UNL     1       2.407   1.245   0.270  0.00  0.00    +0.007 A 
ATOM      8  C   UNL     1       2.502  -0.068  -0.151  0.00  0.00    -0.001 A 
ATOM      9  C   UNL     1       1.392  -0.713  -0.663  0.00  0.00    +0.007 A 
ATOM     10  C   UNL     1       0.186  -0.043  -0.757  0.00  0.00    +0.000 A 
ENDBRANCH   4   8
BRANCH   4  11
ATOM     11  C   UNL     1       3.682  -1.949   0.911  0.00  0.00    -0.001 A 
ATOM     12  C   UNL     1       3.374  -3.211   0.440  0.00  0.00    +0.007 A 
ATOM     13  C   UNL     1       3.250  -4.268   1.323  0.00  0.00    +0.000 A 
ATOM     14  C   UNL     1       3.433  -4.061   2.678  0.00  0.00    +0.000 A 
ATOM     15  C   UNL     1       3.741  -2.799   3.149  0.00  0.00    +0.000 A 
ATOM     16  C   UNL     1       3.870  -1.744   2.265  0.00  0.00    +0.007 A 
ENDBRANCH   4  11
BRANCH   4  17
ATOM     17  O   UNL     1       4.825   0.100   0.419  0.00  0.00    -0.370 OA
ATOM     18  H   UNL     1       4.967   0.867  -0.153  0.00  0.00    +0.212 HD
ENDBRANCH   4  17
ENDBRANCH   2   4
ENDBRANCH   1   2
BRANCH   1  19
ATOM     19  C   UNL     1       5.793  -2.044  -3.005  0.00  0.00    +0.328 C 
BRANCH  19  20
ATOM     20  C   UNL     1       7.281  -2.235  -3.145  0.00  0.00    +0.258 C 
ATOM     21  O   UNL     1       8.008  -2.058  -2.190  0.00  0.00    -0.272 OA
ATOM     22  N   UNL     1       7.804  -2.603  -4.332  0.00  0.00    -0.261 N 
ATOM     23  C   UNL     1       6.940  -2.892  -5.489  0.00  0.00    +0.168 C 
ATOM     24  C   UNL     1       7.596  -2.262  -6.726  0.00  0.00    +0.276 C 
ATOM     25  O   UNL     1       8.908  -2.808  -6.881  0.00  0.00    -0.476 OA
ATOM     26  C   UNL     1       9.721  -2.822  -5.792  0.00  0.00    +0.143 A 
ATOM     27  C   UNL     1       9.194  -2.718  -4.509  0.00  0.00    +0.078 A 
ATOM     28  C   UNL     1      10.036  -2.733  -3.409  0.00  0.00    +0.027 A 
ATOM     29  C   UNL     1      11.402  -2.843  -3.589  0.00  0.00    +0.002 A 
ATOM     30  C   UNL     1      11.928  -2.938  -4.864  0.00  0.00    +0.004 A 
ATOM     31  C   UNL     1      11.092  -2.937  -5.962  0.00  0.00    +0.047 A 
BRANCH  24  32
ATOM     32  C   UNL     1       6.769  -2.570  -7.948  0.00  0.00    +0.253 C 
ATOM     33  O   UNL     1       7.228  -3.264  -8.831  0.00  0.00    -0.272 OA
ATOM     34  N   UNL     1       5.521  -2.074  -8.060  0.00  0.00    -0.326 N 
ATOM     35  H   UNL     1       5.155  -1.519  -7.354  0.00  0.00    +0.145 HD
ATOM     36  H   UNL     1       4.989  -2.272  -8.847  0.00  0.00    +0.145 HD
ENDBRANCH  24  32
ENDBRANCH  19  20
ENDBRANCH   1  19
TORSDOF 8
