REMARK  Name = ZINC39963873
REMARK  9 active torsions:
REMARK  status: ('A' for Active; 'I' for Inactive)
REMARK    1  A    between atoms: C_1  and  C_2
REMARK    2  A    between atoms: C_2  and  O_3
REMARK    3  A    between atoms: O_3  and  C_4
REMARK    4  A    between atoms: C_4  and  C_6
REMARK    5  A    between atoms: C_7  and  C_27
REMARK    6  A    between atoms: C_8  and  C_26
REMARK    7  A    between atoms: C_10  and  N_11
REMARK    8  A    between atoms: N_11  and  C_12
REMARK    9  A    between atoms: C_21  and  C_22
REMARK                            x       y       z     vdW  Elec       q    Type
REMARK                         _______ _______ _______ _____ _____    ______ ____
ROOT
ATOM      1  C   UNL     1      -3.890  -2.788   3.569  0.00  0.00    +0.042 A 
ATOM      2  C   UNL     1      -5.268  -2.724   3.428  0.00  0.00    +0.041 A 
ATOM      3  C   UNL     1      -6.083  -2.988   4.520  0.00  0.00    +0.085 A 
ATOM      4  N   UNL     1      -5.588  -3.300   5.696  0.00  0.00    -0.360 N 
ATOM      5  C   UNL     1      -4.269  -3.379   5.904  0.00  0.00    +0.060 A 
ATOM      6  C   UNL     1      -3.369  -3.130   4.839  0.00  0.00    +0.020 A 
ATOM      7  C   UNL     1      -1.988  -3.220   5.062  0.00  0.00    +0.012 A 
ATOM      8  C   UNL     1      -1.526  -3.552   6.300  0.00  0.00    +0.001 A 
ATOM      9  C   UNL     1      -2.408  -3.803   7.348  0.00  0.00    +0.014 A 
ATOM     10  C   UNL     1      -3.754  -3.713   7.168  0.00  0.00    +0.079 A 
ATOM     11  H   UNL     1      -6.194  -3.476   6.432  0.00  0.00    +0.165 HD
ENDROOT
BRANCH  10  12
ATOM     12  C   UNL     1      -4.690  -3.989   8.317  0.00  0.00    +0.419 C 
ATOM     13  F   UNL     1      -3.947  -4.296   9.461  0.00  0.00    -0.166 F 
ATOM     14  F   UNL     1      -5.475  -2.857   8.561  0.00  0.00    -0.166 F 
ATOM     15  F   UNL     1      -5.519  -5.069   7.994  0.00  0.00    -0.166 F 
ENDBRANCH  10  12
BRANCH   1  16
ATOM     16  N   UNL     1      -3.049  -2.530   2.496  0.00  0.00    -0.308 N 
ATOM     17  H   UNL     1      -2.147  -2.208   2.653  0.00  0.00    +0.153 HD
BRANCH  16  22
ATOM     18  C   UNL     1      -2.850  -2.407   0.016  0.00  0.00    +0.090 A 
ATOM     19  C   UNL     1      -3.546  -2.737  -1.208  0.00  0.00    -0.025 A 
ATOM     20  C   UNL     1      -4.750  -3.318  -1.059  0.00  0.00    -0.008 A 
ATOM     21  S   UNL     1      -4.942  -3.421   0.707  0.00  0.00    -0.078 S 
ATOM     22  C   UNL     1      -3.495  -2.731   1.203  0.00  0.00    +0.084 A 
ATOM     23  C   UNL     1      -5.706  -3.774  -2.131  0.00  0.00    +0.052 C 
ATOM     24  C   UNL     1      -2.960  -2.446  -2.565  0.00  0.00    +0.045 C 
BRANCH  18  25
ATOM     25  C   UNL     1      -1.532  -1.771   0.004  0.00  0.00    +0.342 C 
ATOM     26  O   UNL     1      -0.526  -2.455  -0.010  0.00  0.00    -0.245 OA
BRANCH  25  27
ATOM     27  O   UNL     1      -1.433  -0.426   0.010  0.00  0.00    -0.461 OA
BRANCH  27  29
ATOM     28  C   UNL     1      -0.203   1.655   0.007  0.00  0.00    +0.048 C 
ATOM     29  C   UNL     1      -0.115   0.127  -0.002  0.00  0.00    +0.229 C 
ENDBRANCH  27  29
ENDBRANCH  25  27
ENDBRANCH  18  25
ENDBRANCH  16  22
ENDBRANCH   1  16
TORSDOF 6
