REMARK  Name = ZINC12364789
REMARK  7 active torsions:
REMARK  status: ('A' for Active; 'I' for Inactive)
REMARK    1  A    between atoms: C_1  and  C_2
REMARK    2  A    between atoms: C_2  and  C_4
REMARK    3  A    between atoms: C_2  and  O_20
REMARK    4  A    between atoms: C_5  and  C_6
REMARK    5  A    between atoms: C_6  and  C_7
REMARK    6  A    between atoms: C_6  and  C_13
REMARK    7  A    between atoms: C_6  and  O_19
REMARK                            x       y       z     vdW  Elec       q    Type
REMARK                         _______ _______ _______ _____ _____    ______ ____
ROOT
ATOM      1  C   UNL     1      -0.017   1.425   0.010  0.00  0.00    +0.178 C 
ENDROOT
BRANCH   1   2
ATOM      2  C   UNL     1      -1.175   0.980  -0.846  0.00  0.00    +0.001 A 
ATOM      3  C   UNL     1      -1.562  -0.347  -0.850  0.00  0.00    +0.008 A 
ATOM      4  C   UNL     1      -2.628  -0.754  -1.631  0.00  0.00    +0.000 A 
ATOM      5  C   UNL     1      -3.299   0.164  -2.417  0.00  0.00    +0.000 A 
ATOM      6  C   UNL     1      -2.909   1.490  -2.417  0.00  0.00    +0.000 A 
ATOM      7  C   UNL     1      -1.847   1.898  -1.631  0.00  0.00    +0.008 A 
ENDBRANCH   1   2
BRANCH   1   8
ATOM      8  C   UNL     1      -0.528   2.278   1.142  0.00  0.00    +0.001 A 
ATOM      9  C   UNL     1      -1.023   3.543   0.886  0.00  0.00    +0.008 A 
ATOM     10  C   UNL     1      -1.497   4.323   1.924  0.00  0.00    +0.000 A 
ATOM     11  C   UNL     1      -1.465   3.843   3.220  0.00  0.00    +0.000 A 
ATOM     12  C   UNL     1      -0.965   2.581   3.477  0.00  0.00    +0.000 A 
ATOM     13  C   UNL     1      -0.496   1.798   2.438  0.00  0.00    +0.008 A 
ENDBRANCH   1   8
BRANCH   1  15
ATOM     14  C   UNL     1       1.677   2.830  -1.459  0.00  0.00    -0.068 C 
ATOM     15  C   UNL     1       0.925   2.207  -0.807  0.00  0.00    -0.055 C 
BRANCH  14  17
ATOM     16  C   UNL     1       3.794   4.064  -1.407  0.00  0.00    +0.052 C 
ATOM     17  C   UNL     1       2.619   3.612  -2.276  0.00  0.00    +0.186 C 
BRANCH  17  18
ATOM     18  O   UNL     1       3.103   2.803  -3.349  0.00  0.00    -0.380 OA
ATOM     19  H   UNL     1       3.731   3.255  -3.930  0.00  0.00    +0.211 HD
ENDBRANCH  17  18
ENDBRANCH  14  17
ENDBRANCH   1  15
BRANCH   1  20
ATOM     20  O   UNL     1       0.650   0.278   0.541  0.00  0.00    -0.369 OA
ATOM     21  H   UNL     1       0.088  -0.284   1.091  0.00  0.00    +0.212 HD
ENDBRANCH   1  20
TORSDOF 6
