REMARK  Name = ZINC50087316
REMARK  9 active torsions:
REMARK  status: ('A' for Active; 'I' for Inactive)
REMARK    1  A    between atoms: C_1  and  C_2
REMARK    2  A    between atoms: C_5  and  O_8
REMARK    3  A    between atoms: O_8  and  C_9
REMARK    4  A    between atoms: C_9  and  C_10
REMARK    5  A    between atoms: C_10  and  N_11
REMARK    6  A    between atoms: N_11  and  C_12
REMARK    7  A    between atoms: N_15  and  C_16
REMARK    8  A    between atoms: C_20  and  C_22
REMARK    9  A    between atoms: N_24  and  C_25
REMARK                            x       y       z     vdW  Elec       q    Type
REMARK                         _______ _______ _______ _____ _____    ______ ____
ROOT
ATOM      1  N   UNL     1       1.346  -6.682   0.389  0.00  0.00    -0.285 N 
ATOM      2  C   UNL     1       2.520  -7.015   1.199  0.00  0.00    +0.133 C 
ATOM      3  C   UNL     1       1.419  -6.730  -0.956  0.00  0.00    +0.306 C 
ATOM      4  O   UNL     1       0.445  -6.454  -1.629  0.00  0.00    -0.252 OA
ATOM      5  N   UNL     1       2.573  -7.086  -1.555  0.00  0.00    -0.269 N 
ATOM      6  H   UNL     1       3.369  -7.242  -1.022  0.00  0.00    +0.156 HD
ENDROOT
BRANCH   5   7
ATOM      7  C   UNL     1       2.624  -7.229  -2.948  0.00  0.00    +0.036 A 
ATOM      8  C   UNL     1       1.873  -6.388  -3.761  0.00  0.00    +0.026 A 
ATOM      9  C   UNL     1       1.917  -6.524  -5.134  0.00  0.00    +0.041 A 
ATOM     10  C   UNL     1       2.711  -7.500  -5.711  0.00  0.00    +0.136 A 
ATOM     11  C   UNL     1       3.470  -8.350  -4.902  0.00  0.00    +0.074 A 
ATOM     12  C   UNL     1       3.426  -8.206  -3.514  0.00  0.00    +0.039 A 
ATOM     13  F   UNL     1       2.752  -7.630  -7.055  0.00  0.00    -0.205 F 
BRANCH  11  14
ATOM     14  C   UNL     1       4.319  -9.393  -5.512  0.00  0.00    +0.247 C 
ATOM     15  O   UNL     1       4.358  -9.514  -6.721  0.00  0.00    -0.270 OA
ATOM     16  N   UNL     1       5.049 -10.212  -4.729  0.00  0.00    -0.314 N 
ATOM     17  C   UNL     1       5.891 -11.246  -5.335  0.00  0.00    +0.128 C 
ATOM     18  H   UNL     1       5.018 -10.116  -3.765  0.00  0.00    +0.149 HD
ENDBRANCH  11  14
ENDBRANCH   5   7
BRANCH   1  19
ATOM     19  C   UNL     1       0.092  -6.296   1.040  0.00  0.00    +0.150 C 
BRANCH  19  20
ATOM     20  C   UNL     1       0.067  -4.779   1.240  0.00  0.00    +0.248 C 
BRANCH  20  21
ATOM     21  O   UNL     1       0.046  -4.131  -0.034  0.00  0.00    -0.490 OA
BRANCH  21  26
ATOM     22  C   UNL     1      -0.055   1.500  -0.037  0.00  0.00    +0.044 C 
ATOM     23  C   UNL     1      -0.028  -0.007  -0.036  0.00  0.00    -0.050 A 
ATOM     24  C   UNL     1      -0.023  -0.698  -1.234  0.00  0.00    +0.007 A 
ATOM     25  C   UNL     1       0.001  -2.079  -1.236  0.00  0.00    +0.046 A 
ATOM     26  C   UNL     1       0.022  -2.773  -0.035  0.00  0.00    +0.121 A 
ATOM     27  C   UNL     1       0.018  -2.077   1.166  0.00  0.00    +0.046 A 
ATOM     28  C   UNL     1      -0.001  -0.696   1.162  0.00  0.00    +0.007 A 
ENDBRANCH  21  26
ENDBRANCH  20  21
ENDBRANCH  19  20
ENDBRANCH   1  19
TORSDOF 6
