REMARK  Name = ZINC42117243
REMARK  7 active torsions:
REMARK  status: ('A' for Active; 'I' for Inactive)
REMARK    1  A    between atoms: C_1  and  N_2
REMARK    2  A    between atoms: N_2  and  C_3
REMARK    3  A    between atoms: C_3  and  C_4
REMARK    4  A    between atoms: C_9  and  O_10
REMARK    5  A    between atoms: C_11  and  C_13
REMARK    6  A    between atoms: C_13  and  C_14
REMARK    7  A    between atoms: C_14  and  N_15
REMARK                            x       y       z     vdW  Elec       q    Type
REMARK                         _______ _______ _______ _____ _____    ______ ____
ROOT
ATOM      1  C   UNL     1      -0.023   0.089  -2.470  0.00  0.00    +0.115 C 
ENDROOT
BRANCH   1   4
ATOM      2  C   UNL     1      -0.018   1.461   0.010  0.00  0.00    +0.132 C 
ATOM      3  N   UNL     1       0.002  -0.004   0.002  0.00  0.00    -0.300 N 
ATOM      4  C   UNL     1       0.000  -0.672  -1.169  0.00  0.00    +0.217 C 
ATOM      5  O   UNL     1       0.017  -1.884  -1.175  0.00  0.00    -0.276 OA
BRANCH   3   6
ATOM      6  C   UNL     1       0.024  -0.743   1.267  0.00  0.00    +0.146 C 
BRANCH   6   7
ATOM      7  C   UNL     1      -1.389  -1.016   1.714  0.00  0.00    +0.011 A 
ATOM      8  C   UNL     1      -1.975  -0.219   2.678  0.00  0.00    +0.009 A 
ATOM      9  C   UNL     1      -3.271  -0.469   3.089  0.00  0.00    +0.001 A 
ATOM     10  C   UNL     1      -3.984  -1.517   2.536  0.00  0.00    +0.004 A 
ATOM     11  C   UNL     1      -3.403  -2.317   1.572  0.00  0.00    +0.046 A 
ATOM     12  C   UNL     1      -2.104  -2.064   1.154  0.00  0.00    +0.122 A 
BRANCH  12  13
ATOM     13  O   UNL     1      -1.532  -2.846   0.201  0.00  0.00    -0.506 OA
ATOM     14  H   UNL     1      -1.062  -3.615   0.553  0.00  0.00    +0.292 HD
ENDBRANCH  12  13
ENDBRANCH   6   7
ENDBRANCH   3   6
ENDBRANCH   1   4
BRANCH   1  15
ATOM     15  C   UNL     1      -0.020  -0.899  -3.638  0.00  0.00    +0.127 C 
BRANCH  15  16
ATOM     16  N   UNL     1      -0.042  -0.160  -4.903  0.00  0.00    -0.224 N 
ATOM     17  C   UNL     1      -1.169   0.212  -5.544  0.00  0.00    +0.247 C 
ATOM     18  O   UNL     1      -2.313   0.006  -5.197  0.00  0.00    -0.273 OA
ATOM     19  C   UNL     1      -0.706   0.940  -6.785  0.00  0.00    +0.113 C 
ATOM     20  C   UNL     1      -1.198   2.383  -6.770  0.00  0.00    +0.035 C 
ATOM     21  C   UNL     1      -0.693   3.109  -8.020  0.00  0.00    +0.003 C 
ATOM     22  C   UNL     1      -1.207   2.391  -9.269  0.00  0.00    +0.000 C 
ATOM     23  C   UNL     1      -0.687   0.952  -9.281  0.00  0.00    +0.003 C 
ATOM     24  C   UNL     1      -1.192   0.217  -8.037  0.00  0.00    +0.035 C 
ATOM     25  N   UNL     1       0.759   0.894  -6.700  0.00  0.00    -0.285 N 
ATOM     26  C   UNL     1       1.054   0.235  -5.562  0.00  0.00    +0.309 C 
ATOM     27  O   UNL     1       2.187   0.021  -5.180  0.00  0.00    -0.252 OA
ATOM     28  H   UNL     1       1.390   1.267  -7.335  0.00  0.00    +0.151 HD
ENDBRANCH  15  16
ENDBRANCH   1  15
TORSDOF 6
