REMARK  Name = ZINC57783547
REMARK  6 active torsions:
REMARK  status: ('A' for Active; 'I' for Inactive)
REMARK    1  A    between atoms: C_1  and  N_2
REMARK    2  A    between atoms: C_6  and  S_13
REMARK    3  A    between atoms: N_9  and  C_12
REMARK    4  A    between atoms: S_13  and  N_16
REMARK    5  A    between atoms: N_16  and  C_17
REMARK    6  A    between atoms: C_22  and  C_23
REMARK                            x       y       z     vdW  Elec       q    Type
REMARK                         _______ _______ _______ _____ _____    ______ ____
ROOT
ATOM      1  S   UNL     1      -4.059  -4.399   0.022  0.00  0.00    +0.072 S 
ATOM      2  O   UNL     1      -3.423  -5.572   0.512  0.00  0.00    -0.150 OA
ATOM      3  O   UNL     1      -5.260  -3.891   0.586  0.00  0.00    -0.150 OA
ENDROOT
BRANCH   1   9
ATOM      4  C   UNL     1       0.175   1.190   0.436  0.00  0.00    +0.154 C 
ATOM      5  N   UNL     1       0.140  -0.272   0.345  0.00  0.00    -0.295 N 
ATOM      6  C   UNL     1      -1.008  -1.058   0.278  0.00  0.00    +0.070 A 
ATOM      7  C   UNL     1      -2.364  -0.764   0.274  0.00  0.00    +0.030 A 
ATOM      8  C   UNL     1      -3.289  -1.786   0.196  0.00  0.00    +0.031 A 
ATOM      9  C   UNL     1      -2.869  -3.103   0.121  0.00  0.00    +0.111 A 
ATOM     10  C   UNL     1      -1.521  -3.406   0.125  0.00  0.00    +0.056 A 
ATOM     11  C   UNL     1      -0.585  -2.386   0.202  0.00  0.00    +0.071 A 
ATOM     12  N   UNL     1       0.807  -2.367   0.226  0.00  0.00    -0.295 N 
ATOM     13  C   UNL     1       1.212  -1.085   0.306  0.00  0.00    +0.330 A 
ATOM     14  O   UNL     1       2.372  -0.717   0.341  0.00  0.00    -0.246 OA
ATOM     15  C   UNL     1       1.683  -3.540   0.167  0.00  0.00    +0.154 C 
ENDBRANCH   1   9
BRANCH   1  16
ATOM     16  N   UNL     1      -4.364  -4.662  -1.584  0.00  0.00    -0.215 N 
ATOM     17  H   UNL     1      -5.261  -4.544  -1.933  0.00  0.00    +0.174 HD
BRANCH  16  18
ATOM     18  C   UNL     1      -3.335  -5.050  -2.432  0.00  0.00    +0.065 A 
ATOM     19  C   UNL     1      -2.336  -5.897  -1.972  0.00  0.00    +0.066 A 
ATOM     20  C   UNL     1      -1.312  -6.283  -2.818  0.00  0.00    +0.160 A 
ATOM     21  C   UNL     1      -1.275  -5.828  -4.132  0.00  0.00    +0.159 A 
ATOM     22  C   UNL     1      -2.258  -4.987  -4.604  0.00  0.00    +0.058 A 
ATOM     23  C   UNL     1      -3.304  -4.593  -3.760  0.00  0.00    +0.088 A 
ATOM     24  F   UNL     1      -0.270  -6.212  -4.949  0.00  0.00    -0.202 F 
ATOM     25  F   UNL     1      -0.342  -7.107  -2.365  0.00  0.00    -0.202 F 
BRANCH  23  26
ATOM     26  C   UNL     1      -4.360  -3.701  -4.259  0.00  0.00    +0.388 C 
ATOM     27  O   UNL     1      -4.330  -3.305  -5.417  0.00  0.00    -0.241 OA
ATOM     28  O   UNL     1      -5.269  -3.355  -3.517  0.00  0.00    -0.241 OA
ENDBRANCH  23  26
ENDBRANCH  16  18
ENDBRANCH   1  16
TORSDOF 4
