REMARK  Name = ZINC48001248
REMARK  6 active torsions:
REMARK  status: ('A' for Active; 'I' for Inactive)
REMARK    1  A    between atoms: C_4  and  N_7
REMARK    2  A    between atoms: C_10  and  C_13
REMARK    3  A    between atoms: C_13  and  N_14
REMARK    4  A    between atoms: C_15  and  C_17
REMARK    5  A    between atoms: N_19  and  C_20
REMARK    6  A    between atoms: C_21  and  C_25
REMARK                            x       y       z     vdW  Elec       q    Type
REMARK                         _______ _______ _______ _____ _____    ______ ____
ROOT
ATOM      1  N   UNL     1       7.114  -3.872   0.626  0.00  0.00    -0.307 N 
ATOM      2  C   UNL     1       7.822  -4.981   0.335  0.00  0.00    +0.299 C 
ATOM      3  O   UNL     1       7.348  -5.829  -0.393  0.00  0.00    -0.265 OA
ATOM      4  H   UNL     1       7.492  -3.194   1.208  0.00  0.00    +0.149 HD
ENDROOT
BRANCH   2   5
ATOM      5  C   UNL     1       9.188  -5.166   0.907  0.00  0.00    +0.304 C 
ATOM      6  O   UNL     1       9.662  -4.318   1.635  0.00  0.00    -0.265 OA
ATOM      7  N   UNL     1       9.896  -6.275   0.615  0.00  0.00    -0.272 N 
ATOM      8  H   UNL     1       9.518  -6.953   0.034  0.00  0.00    +0.156 HD
BRANCH   7   9
ATOM      9  C   UNL     1      11.163  -6.447   1.146  0.00  0.00    +0.084 A 
ATOM     10  C   UNL     1      12.031  -7.513   0.953  0.00  0.00    +0.065 A 
ATOM     11  C   UNL     1      13.304  -7.439   1.631  0.00  0.00    +0.022 A 
ATOM     12  C   UNL     1      13.508  -6.338   2.379  0.00  0.00    +0.048 A 
ATOM     13  S   UNL     1      12.004  -5.412   2.164  0.00  0.00    -0.081 S 
BRANCH  10  14
ATOM     14  C   UNL     1      11.674  -8.655   0.104  0.00  0.00    +0.244 C 
ATOM     15  O   UNL     1      10.592  -8.684  -0.452  0.00  0.00    -0.270 OA
ATOM     16  N   UNL     1      12.545  -9.671  -0.059  0.00  0.00    -0.325 N 
ATOM     17  H   UNL     1      13.407  -9.647   0.385  0.00  0.00    +0.145 HD
ATOM     18  H   UNL     1      12.309 -10.426  -0.620  0.00  0.00    +0.145 HD
ENDBRANCH  10  14
ENDBRANCH   7   9
ENDBRANCH   2   5
BRANCH   1  19
ATOM     19  C   UNL     1       5.773  -3.690   0.065  0.00  0.00    +0.109 C 
BRANCH  19  23
ATOM     20  N   UNL     1       3.620  -0.649  -0.036  0.00  0.00    -0.330 N 
ATOM     21  C   UNL     1       4.950  -0.023  -0.040  0.00  0.00    +0.105 C 
ATOM     22  C   UNL     1       5.992  -1.161  -0.031  0.00  0.00    +0.025 C 
ATOM     23  C   UNL     1       5.194  -2.359   0.549  0.00  0.00    +0.025 C 
ATOM     24  C   UNL     1       3.787  -2.114  -0.046  0.00  0.00    +0.110 C 
BRANCH  20  28
ATOM     25  C   UNL     1      -0.017   1.379   0.010  0.00  0.00    +0.000 A 
ATOM     26  C   UNL     1       1.169   2.089   0.002  0.00  0.00    +0.002 A 
ATOM     27  C   UNL     1       2.377   1.420  -0.013  0.00  0.00    +0.023 A 
ATOM     28  C   UNL     1       2.400   0.031  -0.021  0.00  0.00    +0.030 A 
ATOM     29  C   UNL     1       1.206  -0.680  -0.013  0.00  0.00    +0.023 A 
ATOM     30  C   UNL     1       0.002  -0.004   0.002  0.00  0.00    +0.002 A 
ENDBRANCH  20  28
ENDBRANCH  19  23
ENDBRANCH   1  19
TORSDOF 6
