REMARK  Name = ZINC20006875
REMARK  2 active torsions:
REMARK  status: ('A' for Active; 'I' for Inactive)
REMARK    1  A    between atoms: C_8  and  C_12
REMARK    2  A    between atoms: C_14  and  C_17
REMARK                            x       y       z     vdW  Elec       q    Type
REMARK                         _______ _______ _______ _____ _____    ______ ____
ROOT
ATOM      1  C   UNL     1      11.523   0.180   2.425  0.00  0.00    +0.000 A 
ATOM      2  C   UNL     1      12.207   0.141   1.224  0.00  0.00    +0.000 A 
ATOM      3  C   UNL     1      11.513  -0.028   0.043  0.00  0.00    +0.005 A 
ATOM      4  C   UNL     1      10.132  -0.159   0.053  0.00  0.00    -0.030 A 
ATOM      5  C   UNL     1       9.451  -0.123   1.251  0.00  0.00    -0.041 A 
ATOM      6  C   UNL     1      10.149   0.048   2.437  0.00  0.00    +0.004 A 
ATOM      7  C   UNL     1       7.952  -0.267   1.314  0.00  0.00    +0.063 C 
ATOM      8  C   UNL     1       7.346  -0.029  -0.070  0.00  0.00    +0.148 C 
ATOM      9  N   UNL     1       8.067  -0.863  -1.045  0.00  0.00    -0.301 NA
ATOM     10  C   UNL     1       9.419  -0.337  -1.261  0.00  0.00    +0.117 C 
ATOM     11  H   UNL     1       8.138  -1.893  -0.665  0.00  0.00    +0.123 HD
ENDROOT
BRANCH   8  12
ATOM     12  C   UNL     1       5.888  -0.410  -0.057  0.00  0.00    +0.245 A 
ATOM     13  N   UNL     1       4.870   0.413  -0.043  0.00  0.00    -0.190 NA
ATOM     14  C   UNL     1       3.768  -0.373  -0.036  0.00  0.00    +0.209 A 
ATOM     15  N   UNL     1       4.181  -1.617  -0.042  0.00  0.00    -0.055 NA
ATOM     16  O   UNL     1       5.393  -1.652  -0.059  0.00  0.00    -0.336 OA
BRANCH  14  17
ATOM     17  C   UNL     1       2.363   0.085  -0.020  0.00  0.00    +0.060 A 
ATOM     18  C   UNL     1       1.213  -0.658  -0.013  0.00  0.00    +0.019 A 
ATOM     19  C   UNL     1       0.002  -0.004   0.002  0.00  0.00    +0.008 A 
ATOM     20  C   UNL     1      -0.016   1.355   0.009  0.00  0.00    +0.046 A 
ATOM     21  S   UNL     1       1.724   1.752  -0.005  0.00  0.00    -0.093 S 
ENDBRANCH  14  17
ENDBRANCH   8  12
TORSDOF 2
