REMARK  Name = ZINC01508358
REMARK  3 active torsions:
REMARK  status: ('A' for Active; 'I' for Inactive)
REMARK    1  A    between atoms: C_9  and  C_12
REMARK    2  A    between atoms: N_13  and  N_14
REMARK    3  A    between atoms: C_15  and  C_17
REMARK                            x       y       z     vdW  Elec       q    Type
REMARK                         _______ _______ _______ _____ _____    ______ ____
ROOT
ATOM      1  C   UNL     1     -10.540   7.956   0.306  0.00  0.00    +0.021 A 
ATOM      2  C   UNL     1     -10.698   6.621   0.631  0.00  0.00    +0.017 A 
ATOM      3  C   UNL     1      -9.608   5.769   0.597  0.00  0.00    +0.017 A 
ATOM      4  C   UNL     1      -8.339   6.253   0.235  0.00  0.00    +0.008 A 
ATOM      5  C   UNL     1      -8.198   7.607  -0.093  0.00  0.00    +0.030 A 
ATOM      6  C   UNL     1      -9.294   8.443  -0.056  0.00  0.00    +0.042 A 
ATOM      7 CL   UNL     1      -9.111  10.120  -0.465  0.00  0.00    -0.084 Cl
ATOM      8  C   UNL     1      -7.177   5.366   0.200  0.00  0.00    +0.055 C 
ATOM      9  C   UNL     1      -7.236   4.036   0.091  0.00  0.00    +0.001 C 
ATOM     10  C   UNL     1      -8.519   3.263  -0.022  0.00  0.00    +0.112 C 
ATOM     11  S   UNL     1      -9.792   4.062   1.004  0.00  0.00    -0.120 S 
ATOM     12 CL   UNL     1      -5.605   6.096   0.308  0.00  0.00    -0.083 Cl
ENDROOT
BRANCH   9  13
ATOM     13  C   UNL     1      -6.018   3.313   0.076  0.00  0.00    +0.136 C 
ATOM     14  N   UNL     1      -6.034   2.010   0.073  0.00  0.00    -0.188 NA
BRANCH  14  15
ATOM     15  N   UNL     1      -4.830   1.294   0.058  0.00  0.00    -0.203 N 
ATOM     16  C   UNL     1      -4.846  -0.053   0.055  0.00  0.00    +0.263 C 
ATOM     17  O   UNL     1      -5.906  -0.648   0.065  0.00  0.00    -0.268 OA
ATOM     18  H   UNL     1      -3.984   1.769   0.050  0.00  0.00    +0.178 HD
BRANCH  16  19
ATOM     19  C   UNL     1      -3.573  -0.809   0.039  0.00  0.00    +0.041 A 
ATOM     20  C   UNL     1      -2.342  -0.145   0.033  0.00  0.00    +0.033 A 
ATOM     21  C   UNL     1      -1.179  -0.889   0.013  0.00  0.00    +0.111 A 
ATOM     22  N   UNL     1      -1.219  -2.207   0.010  0.00  0.00    -0.263 NA
ATOM     23  C   UNL     1      -2.357  -2.873   0.021  0.00  0.00    +0.111 A 
ATOM     24  C   UNL     1      -3.567  -2.208   0.036  0.00  0.00    +0.033 A 
ENDBRANCH  16  19
ENDBRANCH  14  15
ENDBRANCH   9  13
TORSDOF 3
