REMARK  Name = ZINC34738460
REMARK  9 active torsions:
REMARK  status: ('A' for Active; 'I' for Inactive)
REMARK    1  A    between atoms: C_1  and  C_2
REMARK    2  A    between atoms: C_2  and  C_3
REMARK    3  A    between atoms: C_6  and  C_9
REMARK    4  A    between atoms: C_12  and  C_24
REMARK    5  A    between atoms: C_17  and  C_19
REMARK    6  A    between atoms: N_26  and  C_27
REMARK    7  A    between atoms: C_27  and  C_29
REMARK    8  A    between atoms: C_27  and  C_30
REMARK    9  A    between atoms: C_30  and  C_31
REMARK                            x       y       z     vdW  Elec       q    Type
REMARK                         _______ _______ _______ _____ _____    ______ ____
ROOT
ATOM      1  C   UNL     1       2.469  -2.062  -5.043  0.00  0.00    +0.037 C 
ATOM      2  C   UNL     1       3.154  -3.399  -4.747  0.00  0.00    +0.024 C 
ATOM      3  C   UNL     1       3.992  -3.823  -5.955  0.00  0.00    +0.093 C 
ATOM      4  C   UNL     1       5.076  -2.772  -6.214  0.00  0.00    +0.120 C 
ATOM      5  N   UNL     1       4.435  -1.458  -6.356  0.00  0.00    -0.296 N 
ATOM      6  C   UNL     1       3.535  -0.991  -5.293  0.00  0.00    +0.116 C 
ATOM      7  C   UNL     1       4.668  -0.694  -7.442  0.00  0.00    +0.250 C 
ATOM      8  O   UNL     1       5.466  -1.060  -8.283  0.00  0.00    -0.270 OA
ENDROOT
BRANCH   1  12
ATOM      9  C   UNL     1       0.058  -0.927  -1.706  0.00  0.00    -0.048 A 
ATOM     10  C   UNL     1      -0.523  -1.115  -2.946  0.00  0.00    +0.004 A 
ATOM     11  C   UNL     1       0.257  -1.482  -4.026  0.00  0.00    +0.004 A 
ATOM     12  C   UNL     1       1.619  -1.661  -3.866  0.00  0.00    -0.043 A 
ATOM     13  C   UNL     1       2.200  -1.473  -2.626  0.00  0.00    +0.004 A 
ATOM     14  C   UNL     1       1.420  -1.101  -1.547  0.00  0.00    +0.004 A 
BRANCH   9  16
ATOM     15  C   UNL     1      -0.867   0.999  -0.447  0.00  0.00    +0.009 C 
ATOM     16  C   UNL     1      -0.793  -0.527  -0.528  0.00  0.00    +0.032 C 
ENDBRANCH   9  16
ENDBRANCH   1  12
BRANCH   7  17
ATOM     17  C   UNL     1       3.956   0.585  -7.610  0.00  0.00    +0.074 A 
ATOM     18  C   UNL     1       3.678   1.591  -6.574  0.00  0.00    +0.054 A 
ATOM     19  C   UNL     1       3.011   2.579  -7.189  0.00  0.00    +0.195 A 
ATOM     20  O   UNL     1       2.861   2.269  -8.486  0.00  0.00    -0.470 OA
ATOM     21  C   UNL     1       3.421   1.087  -8.761  0.00  0.00    +0.207 A 
ENDBRANCH   7  17
BRANCH   3  22
ATOM     22  C   UNL     1       3.104  -3.941  -7.167  0.00  0.00    +0.218 C 
ATOM     23  O   UNL     1       1.918  -3.708  -7.074  0.00  0.00    -0.275 OA
ATOM     24  N   UNL     1       3.629  -4.305  -8.354  0.00  0.00    -0.312 N 
ATOM     25  H   UNL     1       4.578  -4.491  -8.428  0.00  0.00    +0.149 HD
BRANCH  24  26
ATOM     26  C   UNL     1       2.766  -4.419  -9.532  0.00  0.00    +0.070 C 
ATOM     27  C   UNL     1       2.612  -3.045 -10.187  0.00  0.00    +0.028 C 
BRANCH  26  28
ATOM     28  C   UNL     1       3.394  -5.393 -10.532  0.00  0.00    +0.018 C 
ATOM     29  C   UNL     1       3.433  -6.795  -9.921  0.00  0.00    +0.005 C 
ENDBRANCH  26  28
ENDBRANCH  24  26
ENDBRANCH   3  22
TORSDOF 6
