REMARK  Name = ZINC52426044
REMARK  7 active torsions:
REMARK  status: ('A' for Active; 'I' for Inactive)
REMARK    1  A    between atoms: C_1  and  C_2
REMARK    2  A    between atoms: C_2  and  C_4
REMARK    3  A    between atoms: C_2  and  S_13
REMARK    4  A    between atoms: N_9  and  C_10
REMARK    5  A    between atoms: C_10  and  C_11
REMARK    6  A    between atoms: C_10  and  C_12
REMARK    7  A    between atoms: S_13  and  C_14
REMARK                            x       y       z     vdW  Elec       q    Type
REMARK                         _______ _______ _______ _____ _____    ______ ____
ROOT
ATOM      1  C   UNL     1      -0.019   1.526   0.010  0.00  0.00    +0.029 C 
ATOM      2  C   UNL     1       0.002  -0.004   0.002  0.00  0.00    +0.139 C 
ENDROOT
BRANCH   2   3
ATOM      3  C   UNL     1       0.707  -0.490  -1.238  0.00  0.00    +0.234 C 
ATOM      4  O   UNL     1       0.067  -0.782  -2.225  0.00  0.00    -0.274 OA
ATOM      5  N   UNL     1       2.051  -0.601  -1.250  0.00  0.00    -0.239 N 
ATOM      6  C   UNL     1       2.682  -1.035  -2.358  0.00  0.00    +0.306 C 
ATOM      7  O   UNL     1       2.039  -1.327  -3.348  0.00  0.00    -0.252 OA
ATOM      8  N   UNL     1       4.025  -1.146  -2.370  0.00  0.00    -0.297 N 
ATOM      9  H   UNL     1       2.563  -0.367  -0.460  0.00  0.00    +0.159 HD
ATOM     10  H   UNL     1       4.537  -0.912  -1.580  0.00  0.00    +0.151 HD
BRANCH   8  11
ATOM     11  C   UNL     1       4.710  -1.618  -3.575  0.00  0.00    +0.068 C 
ATOM     12  C   UNL     1       6.146  -1.089  -3.586  0.00  0.00    +0.027 C 
ATOM     13  C   UNL     1       4.731  -3.148  -3.584  0.00  0.00    +0.027 C 
ENDBRANCH   8  11
ENDBRANCH   2   3
BRANCH   2  14
ATOM     14  S   UNL     1      -1.700  -0.632   0.015  0.00  0.00    -0.055 S 
BRANCH  14  15
ATOM     15  C   UNL     1      -2.335  -0.110   1.573  0.00  0.00    +0.259 A 
ATOM     16  N   UNL     1      -1.666   0.579   2.464  0.00  0.00    -0.203 NA
ATOM     17  C   UNL     1      -2.471   0.801   3.538  0.00  0.00    +0.112 A 
ATOM     18  C   UNL     1      -2.294   1.463   4.754  0.00  0.00    +0.051 A 
ATOM     19  C   UNL     1      -3.331   1.515   5.662  0.00  0.00    +0.043 A 
ATOM     20  C   UNL     1      -4.547   0.912   5.373  0.00  0.00    +0.024 A 
ATOM     21  C   UNL     1      -4.734   0.254   4.174  0.00  0.00    +0.050 A 
ATOM     22  C   UNL     1      -3.703   0.194   3.251  0.00  0.00    +0.156 A 
ATOM     23  O   UNL     1      -3.579  -0.356   2.020  0.00  0.00    -0.431 OA
ATOM     24 CL   UNL     1      -3.114   2.338   7.175  0.00  0.00    -0.083 Cl
ENDBRANCH  14  15
ENDBRANCH   2  14
TORSDOF 4
