REMARK  Name = ZINC07466510
REMARK  14 active torsions:
REMARK  status: ('A' for Active; 'I' for Inactive)
REMARK    1  A    between atoms: C_1  and  C_2
REMARK    2  A    between atoms: C_7  and  C_8
REMARK    3  A    between atoms: N_10  and  C_11
REMARK    4  A    between atoms: C_11  and  C_13
REMARK    5  A    between atoms: C_11  and  C_16
REMARK    6  A    between atoms: C_13  and  C_14
REMARK    7  A    between atoms: C_13  and  C_15
REMARK    8  A    between atoms: C_16  and  O_18
REMARK    9  A    between atoms: O_18  and  C_19
REMARK   10  A    between atoms: C_19  and  C_21
REMARK   11  A    between atoms: C_19  and  C_22
REMARK   12  A    between atoms: N_27  and  C_28
REMARK   13  A    between atoms: C_28  and  C_29
REMARK   14  A    between atoms: C_28  and  C_30
REMARK                            x       y       z     vdW  Elec       q    Type
REMARK                         _______ _______ _______ _____ _____    ______ ____
ROOT
ATOM      1  C   UNL     1      -2.650   1.746   2.067  0.00  0.00    +0.329 C 
ATOM      2  O   UNL     1      -2.948   0.996   2.966  0.00  0.00    -0.249 OA
ENDROOT
BRANCH   1   3
ATOM      3  C   UNL     1      -1.213   2.159   1.874  0.00  0.00    +0.185 C 
BRANCH   3   6
ATOM      4  C   UNL     1       0.789   2.083   3.261  0.00  0.00    +0.245 C 
ATOM      5  O   UNL     1       1.153   3.119   2.742  0.00  0.00    -0.270 OA
ATOM      6  N   UNL     1      -0.381   1.520   2.897  0.00  0.00    -0.298 N 
ATOM      7  H   UNL     1      -0.671   0.693   3.311  0.00  0.00    +0.150 HD
BRANCH   4  14
ATOM      8  C   UNL     1       3.411   3.156   3.847  0.00  0.00    +0.044 C 
ATOM      9  C   UNL     1       2.895   1.947   4.584  0.00  0.00    -0.038 A 
ATOM     10  C   UNL     1       3.674   1.342   5.548  0.00  0.00    +0.004 A 
ATOM     11  C   UNL     1       3.203   0.232   6.226  0.00  0.00    +0.000 A 
ATOM     12  C   UNL     1       1.948  -0.278   5.943  0.00  0.00    +0.001 A 
ATOM     13  C   UNL     1       1.157   0.321   4.984  0.00  0.00    +0.013 A 
ATOM     14  C   UNL     1       1.629   1.438   4.293  0.00  0.00    +0.040 A 
ENDBRANCH   4  14
ENDBRANCH   3   6
BRANCH   3  15
ATOM     15  C   UNL     1      -0.740   1.724   0.486  0.00  0.00    +0.014 C 
ATOM     16  C   UNL     1       0.719   2.142   0.290  0.00  0.00    +0.009 C 
ATOM     17  C   UNL     1      -1.609   2.390  -0.582  0.00  0.00    +0.009 C 
ENDBRANCH   3  15
ENDBRANCH   1   3
BRANCH   1  18
ATOM     18  O   UNL     1      -3.599   2.213   1.240  0.00  0.00    -0.451 OA
BRANCH  18  19
ATOM     19  C   UNL     1      -4.961   1.774   1.485  0.00  0.00    +0.259 C 
ATOM     20  C   UNL     1      -5.646   2.749   2.445  0.00  0.00    +0.062 C 
BRANCH  19  21
ATOM     21  C   UNL     1      -5.718   1.735   0.183  0.00  0.00    +0.261 C 
ATOM     22  O   UNL     1      -5.165   2.047  -0.850  0.00  0.00    -0.271 OA
ATOM     23  N   UNL     1      -7.011   1.354   0.166  0.00  0.00    -0.237 N 
ATOM     24  C   UNL     1      -7.688   1.319  -0.998  0.00  0.00    +0.306 C 
ATOM     25  O   UNL     1      -7.134   1.632  -2.033  0.00  0.00    -0.252 OA
ATOM     26  N   UNL     1      -8.981   0.938  -1.015  0.00  0.00    -0.297 N 
ATOM     27  H   UNL     1      -7.454   1.105   0.993  0.00  0.00    +0.159 HD
ATOM     28  H   UNL     1      -9.424   0.689  -0.189  0.00  0.00    +0.151 HD
BRANCH  26  29
ATOM     29  C   UNL     1      -9.717   0.900  -2.281  0.00  0.00    +0.068 C 
ATOM     30  C   UNL     1      -9.466  -0.438  -2.977  0.00  0.00    +0.027 C 
ATOM     31  C   UNL     1     -11.214   1.059  -2.005  0.00  0.00    +0.027 C 
ENDBRANCH  26  29
ENDBRANCH  19  21
ENDBRANCH  18  19
ENDBRANCH   1  18
TORSDOF 8
