REMARK  Name = ZINC36272603
REMARK  8 active torsions:
REMARK  status: ('A' for Active; 'I' for Inactive)
REMARK    1  A    between atoms: C_1  and  C_2
REMARK    2  A    between atoms: C_5  and  C_9
REMARK    3  A    between atoms: C_7  and  C_8
REMARK    4  A    between atoms: C_10  and  C_19
REMARK    5  A    between atoms: C_13  and  N_18
REMARK    6  A    between atoms: C_19  and  N_20
REMARK    7  A    between atoms: C_22  and  C_29
REMARK    8  A    between atoms: C_25  and  C_28
REMARK                            x       y       z     vdW  Elec       q    Type
REMARK                         _______ _______ _______ _____ _____    ______ ____
ROOT
ATOM      1  C   UNL     1       0.105  -4.257  -0.060  0.00  0.00    +0.094 A 
ATOM      2  C   UNL     1      -0.638  -5.059  -0.872  0.00  0.00    +0.065 A 
ATOM      3  N   UNL     1      -0.383  -6.350  -0.504  0.00  0.00    -0.300 N 
ATOM      4  C   UNL     1      -0.847  -7.549  -0.971  0.00  0.00    +0.115 A 
ATOM      5  C   UNL     1      -0.425  -8.713  -0.419  0.00  0.00    +0.041 A 
ATOM      6  C   UNL     1       0.498  -8.697   0.646  0.00  0.00    +0.028 A 
ATOM      7  C   UNL     1       0.964  -7.510   1.116  0.00  0.00    +0.048 A 
ATOM      8  C   UNL     1       0.515  -6.308   0.530  0.00  0.00    +0.139 A 
ATOM      9  N   UNL     1       0.803  -5.038   0.780  0.00  0.00    -0.227 NA
ENDROOT
BRANCH   1  14
ATOM     10  C   UNL     1       0.252   1.499  -0.219  0.00  0.00    +0.044 C 
ATOM     11  C   UNL     1       0.213  -0.007  -0.177  0.00  0.00    -0.047 A 
ATOM     12  C   UNL     1      -0.996  -0.669  -0.293  0.00  0.00    +0.004 A 
ATOM     13  C   UNL     1      -1.036  -2.048  -0.256  0.00  0.00    +0.010 A 
ATOM     14  C   UNL     1       0.143  -2.774  -0.101  0.00  0.00    +0.002 A 
ATOM     15  C   UNL     1       1.358  -2.102   0.016  0.00  0.00    +0.013 A 
ATOM     16  C   UNL     1       1.388  -0.722  -0.028  0.00  0.00    -0.047 A 
ATOM     17  C   UNL     1       2.702   0.006   0.092  0.00  0.00    +0.044 C 
ENDBRANCH   1  14
BRANCH   5  18
ATOM     18  N   UNL     1      -0.909  -9.934  -0.907  0.00  0.00    -0.357 N 
ATOM     19  H   UNL     1      -1.544  -9.946  -1.639  0.00  0.00    +0.142 HD
ATOM     20  H   UNL     1      -0.608 -10.767  -0.512  0.00  0.00    +0.142 HD
ENDBRANCH   5  18
BRANCH   2  21
ATOM     21  C   UNL     1      -1.568  -4.608  -1.969  0.00  0.00    +0.140 C 
BRANCH  21  22
ATOM     22  N   UNL     1      -2.905  -4.365  -1.409  0.00  0.00    -0.292 NA
ATOM     23  C   UNL     1      -3.513  -5.617  -0.937  0.00  0.00    +0.116 C 
ATOM     24  C   UNL     1      -4.876  -5.311  -0.309  0.00  0.00    +0.130 C 
ATOM     25  O   UNL     1      -5.696  -4.638  -1.268  0.00  0.00    -0.371 OA
ATOM     26  C   UNL     1      -5.134  -3.414  -1.749  0.00  0.00    +0.130 C 
ATOM     27  C   UNL     1      -3.774  -3.701  -2.391  0.00  0.00    +0.116 C 
ATOM     28  C   UNL     1      -6.071  -2.795  -2.788  0.00  0.00    +0.039 C 
ATOM     29  C   UNL     1      -5.549  -6.618   0.113  0.00  0.00    +0.039 C 
ENDBRANCH  21  22
ENDBRANCH   2  21
TORSDOF 4
