REMARK  Name = ZINC55024215
REMARK  8 active torsions:
REMARK  status: ('A' for Active; 'I' for Inactive)
REMARK    1  A    between atoms: C_1  and  N_2
REMARK    2  A    between atoms: N_2  and  C_3
REMARK    3  A    between atoms: N_2  and  C_12
REMARK    4  A    between atoms: C_3  and  C_4
REMARK    5  A    between atoms: C_4  and  C_5
REMARK    6  A    between atoms: C_12  and  C_13
REMARK    7  A    between atoms: C_13  and  C_14
REMARK    8  A    between atoms: N_16  and  N_17
REMARK                            x       y       z     vdW  Elec       q    Type
REMARK                         _______ _______ _______ _____ _____    ______ ____
ROOT
ATOM      1  C   UNL     1       0.588  -0.563  -3.683  0.00  0.00    +0.228 C 
ATOM      2  O   UNL     1       1.633  -1.170  -3.587  0.00  0.00    -0.274 OA
ATOM      3  N   UNL     1       0.057  -0.323  -4.898  0.00  0.00    -0.224 N 
ATOM      4  H   UNL     1      -0.780   0.162  -4.975  0.00  0.00    +0.174 HD
ENDROOT
BRANCH   3   5
ATOM      5  N   UNL     1       0.712  -0.775  -6.051  0.00  0.00    -0.137 N 
ATOM      6  C   UNL     1       1.406   0.021  -6.890  0.00  0.00    +0.263 C 
ATOM      7  O   UNL     1       1.575   1.218  -6.794  0.00  0.00    -0.271 OA
ATOM      8  C   UNL     1       1.929  -0.892  -7.974  0.00  0.00    +0.114 C 
ATOM      9  C   UNL     1       3.454  -0.880  -7.990  0.00  0.00    +0.035 C 
ATOM     10  C   UNL     1       3.963  -1.835  -9.073  0.00  0.00    +0.003 C 
ATOM     11  C   UNL     1       3.419  -1.396 -10.434  0.00  0.00    +0.000 C 
ATOM     12  C   UNL     1       1.889  -1.436 -10.410  0.00  0.00    +0.003 C 
ATOM     13  C   UNL     1       1.372  -0.480  -9.332  0.00  0.00    +0.035 C 
ATOM     14  N   UNL     1       1.429  -2.220  -7.593  0.00  0.00    -0.284 N 
ATOM     15  C   UNL     1       0.733  -2.052  -6.453  0.00  0.00    +0.326 C 
ATOM     16  O   UNL     1       0.181  -2.957  -5.858  0.00  0.00    -0.251 OA
ATOM     17  H   UNL     1       1.575  -3.053  -8.068  0.00  0.00    +0.151 HD
ENDBRANCH   3   5
BRANCH   1  18
ATOM     18  C   UNL     1      -0.118  -0.077  -2.443  0.00  0.00    +0.079 C 
BRANCH  18  19
ATOM     19  C   UNL     1       0.690  -0.478  -1.207  0.00  0.00    -0.070 C 
BRANCH  19  21
ATOM     20  C   UNL     1      -0.018   1.465   0.010  0.00  0.00    -0.096 C 
ATOM     21  N   UNL     1       0.002  -0.004   0.002  0.00  0.00    +0.378 N 
ATOM     22  H   UNL     1      -0.945  -0.353   0.009  0.00  0.00    -0.082 HD
BRANCH  21  23
ATOM     23  C   UNL     1       0.713  -0.491   1.192  0.00  0.00    -0.075 C 
BRANCH  23  24
ATOM     24  C   UNL     1      -0.071  -0.103   2.448  0.00  0.00    +0.016 C 
BRANCH  24  25
ATOM     25  C   UNL     1       0.658  -0.603   3.669  0.00  0.00    -0.049 A 
ATOM     26  C   UNL     1       0.390  -1.865   4.165  0.00  0.00    +0.006 A 
ATOM     27  C   UNL     1       1.058  -2.324   5.284  0.00  0.00    +0.038 A 
ATOM     28  C   UNL     1       1.996  -1.519   5.909  0.00  0.00    +0.123 A 
ATOM     29  C   UNL     1       2.263  -0.255   5.411  0.00  0.00    +0.038 A 
ATOM     30  C   UNL     1       1.598   0.200   4.288  0.00  0.00    +0.006 A 
ATOM     31  F   UNL     1       2.649  -1.967   7.003  0.00  0.00    -0.205 F 
ENDBRANCH  24  25
ENDBRANCH  23  24
ENDBRANCH  21  23
ENDBRANCH  19  21
ENDBRANCH  18  19
ENDBRANCH   1  18
TORSDOF 7
