REMARK  Name = ZINC32396899
REMARK  5 active torsions:
REMARK  status: ('A' for Active; 'I' for Inactive)
REMARK    1  A    between atoms: C_3  and  C_6
REMARK    2  A    between atoms: C_6  and  C_8
REMARK    3  A    between atoms: C_6  and  N_13
REMARK    4  A    between atoms: C_14  and  C_16
REMARK    5  A    between atoms: C_19  and  N_22
REMARK                            x       y       z     vdW  Elec       q    Type
REMARK                         _______ _______ _______ _____ _____    ______ ____
ROOT
ATOM      1  N   UNL     1      -3.680   3.181   0.054  0.00  0.00    -0.304 N 
ATOM      2  C   UNL     1      -2.521   3.868   0.047  0.00  0.00    +0.245 C 
ATOM      3  O   UNL     1      -2.534   5.083   0.053  0.00  0.00    -0.270 OA
ATOM      4  H   UNL     1      -3.667   2.081   0.048  0.00  0.00    +0.150 HD
ENDROOT
BRANCH   2   5
ATOM      5  C   UNL     1      -1.233   3.144   0.031  0.00  0.00    +0.037 A 
ATOM      6  C   UNL     1      -1.215   1.747   0.017  0.00  0.00    +0.015 A 
ATOM      7  C   UNL     1      -0.013   1.076   0.008  0.00  0.00    +0.028 A 
ATOM      8  C   UNL     1       1.182   1.786   0.000  0.00  0.00    +0.069 A 
ATOM      9  C   UNL     1       1.168   3.176   0.008  0.00  0.00    +0.028 A 
ATOM     10  C   UNL     1      -0.030   3.855   0.023  0.00  0.00    +0.015 A 
BRANCH   8  11
ATOM     11  N   UNL     1       2.402   1.101  -0.015  0.00  0.00    -0.200 N 
ATOM     12  C   UNL     1       3.644   1.634  -0.023  0.00  0.00    +0.250 A 
ATOM     13  N   UNL     1       4.493   0.641  -0.036  0.00  0.00    -0.116 NA
ATOM     14  N   UNL     1       3.874  -0.484  -0.035  0.00  0.00    -0.023 NA
ATOM     15  N   UNL     1       2.599  -0.292  -0.017  0.00  0.00    -0.039 NA
ENDBRANCH   8  11
ENDBRANCH   2   5
BRANCH   1  16
ATOM     16  C   UNL     1      -4.957   3.898   0.070  0.00  0.00    +0.113 C 
BRANCH  16  19
ATOM     17  C   UNL     1      -6.123   5.481   3.333  0.00  0.00    +0.008 A 
ATOM     18  C   UNL     1      -5.874   5.383   1.977  0.00  0.00    +0.013 A 
ATOM     19  C   UNL     1      -5.321   4.245   1.491  0.00  0.00    +0.010 A 
ATOM     20  S   UNL     1      -5.142   3.260   2.969  0.00  0.00    -0.100 S 
ATOM     21  C   UNL     1      -5.808   4.435   4.137  0.00  0.00    +0.045 A 
ENDBRANCH  16  19
BRANCH  16  22
ATOM     22  C   UNL     1      -6.048   3.012  -0.534  0.00  0.00    +0.014 C 
ATOM     23  C   UNL     1      -6.151   1.690   0.254  0.00  0.00    +0.006 C 
ATOM     24  C   UNL     1      -6.443   0.623  -0.832  0.00  0.00    +0.000 C 
ATOM     25  C   UNL     1      -5.572   1.098  -2.021  0.00  0.00    +0.000 C 
ATOM     26  C   UNL     1      -5.681   2.636  -1.980  0.00  0.00    +0.006 C 
ENDBRANCH  16  22
ENDBRANCH   1  16
TORSDOF 5
