REMARK  Name = ZINC39710526
REMARK  13 active torsions:
REMARK  status: ('A' for Active; 'I' for Inactive)
REMARK    1  A    between atoms: C_1  and  C_2
REMARK    2  A    between atoms: C_2  and  C_3
REMARK    3  A    between atoms: C_10  and  C_15
REMARK    4  A    between atoms: C_15  and  C_17
REMARK    5  A    between atoms: C_15  and  N_27
REMARK    6  A    between atoms: N_22  and  C_23
REMARK    7  A    between atoms: C_23  and  C_24
REMARK    8  A    between atoms: C_23  and  C_25
REMARK    9  A    between atoms: C_23  and  C_26
REMARK   10  A    between atoms: N_27  and  C_28
REMARK   11  A    between atoms: N_27  and  C_36
REMARK   12  A    between atoms: C_28  and  C_29
REMARK   13  A    between atoms: C_36  and  C_37
REMARK                            x       y       z     vdW  Elec       q    Type
REMARK                         _______ _______ _______ _____ _____    ______ ____
ROOT
ATOM      1  C   UNL     1       5.195  -3.298  -4.533  0.00  0.00    +0.115 C 
ENDROOT
BRANCH   1   9
ATOM      2  C   UNL     1       1.242   0.289  -2.174  0.00  0.00    -0.047 A 
ATOM      3  C   UNL     1       0.251  -0.148  -3.053  0.00  0.00    +0.005 A 
ATOM      4  C   UNL     1       0.524  -0.904  -4.149  0.00  0.00    +0.024 A 
ATOM      5  C   UNL     1       1.846  -1.282  -4.444  0.00  0.00    +0.040 A 
ATOM      6  N   UNL     1       2.102  -2.024  -5.522  0.00  0.00    -0.284 N 
ATOM      7  C   UNL     1       3.321  -2.414  -5.857  0.00  0.00    +0.226 C 
ATOM      8  O   UNL     1       3.493  -3.091  -6.853  0.00  0.00    -0.275 OA
ATOM      9  C   UNL     1       4.499  -2.017  -4.997  0.00  0.00    +0.119 C 
ATOM     10  C   UNL     1       4.213  -1.173  -3.770  0.00  0.00    -0.003 C 
ATOM     11  C   UNL     1       2.914  -0.835  -3.532  0.00  0.00    -0.007 A 
ATOM     12  C   UNL     1       2.550  -0.019  -2.374  0.00  0.00    +0.013 A 
ATOM     13  H   UNL     1       1.360  -2.289  -6.087  0.00  0.00    +0.155 HD
BRANCH   2  15
ATOM     14  C   UNL     1       0.885   2.605  -1.365  0.00  0.00    +0.009 C 
ATOM     15  C   UNL     1       0.855   1.125  -0.982  0.00  0.00    +0.032 C 
ENDBRANCH   2  15
ENDBRANCH   1   9
BRANCH   1  16
ATOM     16  C   UNL     1       6.130  -3.799  -5.636  0.00  0.00    +0.236 C 
ATOM     17  N   UNL     1       5.354  -4.362  -6.749  0.00  0.00    -0.148 NA
ATOM     18  N   UNL     1       5.651  -5.551  -6.880  0.00  0.00    -0.069 NA
ATOM     19  N   UNL     1       6.604  -5.978  -5.956  0.00  0.00    -0.179 N 
ATOM     20  N   UNL     1       6.950  -4.926  -5.144  0.00  0.00    -0.179 NA
ATOM     21  H   UNL     1       6.966  -6.875  -5.896  0.00  0.00    +0.191 HD
BRANCH  20  22
ATOM     22  C   UNL     1       8.383  -4.621  -5.255  0.00  0.00    +0.035 C 
ATOM     23  C   UNL     1       8.707  -3.379  -4.423  0.00  0.00    +0.029 C 
ATOM     24  C   UNL     1       9.198  -5.808  -4.739  0.00  0.00    +0.029 C 
ATOM     25  C   UNL     1       8.737  -4.359  -6.721  0.00  0.00    +0.029 C 
ENDBRANCH  20  22
ENDBRANCH   1  16
BRANCH   1  26
ATOM     26  N   UNL     1       4.186  -4.325  -4.242  0.00  0.00    -0.284 NA
BRANCH  26  27
ATOM     27  C   UNL     1       4.816  -5.553  -3.738  0.00  0.00    +0.122 C 
BRANCH  27  28
ATOM     28  C   UNL     1       3.760  -6.606  -3.519  0.00  0.00    -0.015 A 
ATOM     29  C   UNL     1       3.461  -7.030  -2.238  0.00  0.00    +0.006 A 
ATOM     30  C   UNL     1       2.492  -7.995  -2.037  0.00  0.00    +0.000 A 
ATOM     31  C   UNL     1       1.821  -8.537  -3.118  0.00  0.00    +0.001 A 
ATOM     32  C   UNL     1       2.119  -8.114  -4.399  0.00  0.00    +0.020 A 
ATOM     33  C   UNL     1       3.085  -7.144  -4.601  0.00  0.00    +0.045 A 
ATOM     34 CL   UNL     1       3.454  -6.607  -6.210  0.00  0.00    -0.083 Cl
ENDBRANCH  27  28
ENDBRANCH  26  27
BRANCH  26  35
ATOM     35  C   UNL     1       3.181  -3.823  -3.296  0.00  0.00    +0.159 C 
BRANCH  35  36
ATOM     36  C   UNL     1       1.926  -4.650  -3.410  0.00  0.00    +0.119 A 
ATOM     37  C   UNL     1       1.433  -5.467  -2.462  0.00  0.00    +0.046 A 
ATOM     38  C   UNL     1       0.252  -6.039  -2.987  0.00  0.00    +0.041 A 
ATOM     39  C   UNL     1       0.094  -5.538  -4.225  0.00  0.00    +0.195 A 
ATOM     40  O   UNL     1       1.107  -4.693  -4.474  0.00  0.00    -0.467 OA
ENDBRANCH  35  36
ENDBRANCH  26  35
ENDBRANCH   1  26
TORSDOF 9
