REMARK  Name = ZINC10441977
REMARK  7 active torsions:
REMARK  status: ('A' for Active; 'I' for Inactive)
REMARK    1  A    between atoms: C_1  and  C_2
REMARK    2  A    between atoms: C_5  and  N_8
REMARK    3  A    between atoms: C_18  and  S_19
REMARK    4  A    between atoms: S_19  and  C_20
REMARK    5  A    between atoms: C_20  and  C_21
REMARK    6  A    between atoms: C_24  and  C_26
REMARK    7  A    between atoms: N_30  and  C_31
REMARK                            x       y       z     vdW  Elec       q    Type
REMARK                         _______ _______ _______ _____ _____    ______ ____
ROOT
ATOM      1  N   UNL     1       7.262   7.506   0.087  0.00  0.00    -0.255 N 
ATOM      2  C   UNL     1       8.603   7.600  -0.069  0.00  0.00    +0.267 A 
ATOM      3  O   UNL     1       9.168   8.677  -0.027  0.00  0.00    -0.267 OA
ATOM      4  C   UNL     1       9.351   6.356  -0.292  0.00  0.00    +0.065 A 
ATOM      5  C   UNL     1      10.734   6.348  -0.464  0.00  0.00    +0.015 A 
ATOM      6  C   UNL     1      11.382   5.161  -0.667  0.00  0.00    +0.001 A 
ATOM      7  C   UNL     1      10.676   3.965  -0.705  0.00  0.00    +0.002 A 
ATOM      8  C   UNL     1       9.320   3.943  -0.540  0.00  0.00    +0.028 A 
ATOM      9  C   UNL     1       8.629   5.141  -0.329  0.00  0.00    +0.079 A 
ATOM     10  N   UNL     1       7.287   5.164  -0.155  0.00  0.00    -0.223 NA
ATOM     11  C   UNL     1       6.641   6.288   0.037  0.00  0.00    +0.177 A 
ENDROOT
BRANCH   1  16
ATOM     12  C   UNL     1       4.191  12.198   0.956  0.00  0.00    +0.044 C 
ATOM     13  C   UNL     1       5.006  10.952   0.725  0.00  0.00    -0.050 A 
ATOM     14  C   UNL     1       5.902  10.525   1.689  0.00  0.00    +0.005 A 
ATOM     15  C   UNL     1       6.651   9.383   1.480  0.00  0.00    +0.026 A 
ATOM     16  C   UNL     1       6.504   8.664   0.302  0.00  0.00    +0.052 A 
ATOM     17  C   UNL     1       5.608   9.098  -0.666  0.00  0.00    +0.026 A 
ATOM     18  C   UNL     1       4.858  10.237  -0.449  0.00  0.00    +0.005 A 
ENDBRANCH   1  16
BRANCH  11  19
ATOM     19  S   UNL     1       4.893   6.227   0.248  0.00  0.00    -0.078 S 
BRANCH  19  20
ATOM     20  C   UNL     1       4.620   4.444   0.095  0.00  0.00    +0.173 C 
BRANCH  20  21
ATOM     21  C   UNL     1       3.151   4.146   0.247  0.00  0.00    +0.230 C 
ATOM     22  O   UNL     1       2.366   5.049   0.439  0.00  0.00    -0.274 OA
ATOM     23  N   UNL     1       2.710   2.874   0.169  0.00  0.00    -0.250 N 
ATOM     24  C   UNL     1       1.395   2.608   0.304  0.00  0.00    +0.267 C 
ATOM     25  O   UNL     1       0.596   3.520   0.396  0.00  0.00    -0.268 OA
ATOM     26  H   UNL     1       3.338   2.152   0.015  0.00  0.00    +0.158 HD
BRANCH  24  27
ATOM     27  C   UNL     1       0.930   1.219   0.342  0.00  0.00    +0.105 A 
ATOM     28  C   UNL     1       1.725   0.091   0.357  0.00  0.00    +0.032 A 
ATOM     29  C   UNL     1       0.868  -1.012   0.394  0.00  0.00    +0.020 A 
ATOM     30  C   UNL     1      -0.405  -0.549   0.399  0.00  0.00    +0.086 A 
ATOM     31  N   UNL     1      -0.382   0.800   0.368  0.00  0.00    -0.346 N 
ATOM     32  C   UNL     1      -1.557   1.675   0.364  0.00  0.00    +0.149 C 
ENDBRANCH  24  27
ENDBRANCH  20  21
ENDBRANCH  19  20
ENDBRANCH  11  19
TORSDOF 5
