REMARK  Name = ZINC12683937
REMARK  6 active torsions:
REMARK  status: ('A' for Active; 'I' for Inactive)
REMARK    1  A    between atoms: C_1  and  C_2
REMARK    2  A    between atoms: C_2  and  C_3
REMARK    3  A    between atoms: C_3  and  N_4
REMARK    4  A    between atoms: C_10  and  S_11
REMARK    5  A    between atoms: S_11  and  C_12
REMARK    6  A    between atoms: C_12  and  C_13
REMARK                            x       y       z     vdW  Elec       q    Type
REMARK                         _______ _______ _______ _____ _____    ______ ____
ROOT
ATOM      1  C   UNL     1       1.480   6.298   2.541  0.00  0.00    +0.231 C 
ATOM      2  O   UNL     1       2.257   6.290   1.611  0.00  0.00    -0.274 OA
ATOM      3  N   UNL     1       1.472   7.333   3.404  0.00  0.00    -0.260 N 
ATOM      4  C   UNL     1       0.535   7.371   4.537  0.00  0.00    +0.209 C 
ATOM      5  C   UNL     1      -0.017   8.762   4.676  0.00  0.00    +0.235 C 
ATOM      6  O   UNL     1      -1.126   8.922   5.142  0.00  0.00    -0.274 OA
ATOM      7  N   UNL     1       0.701   9.833   4.288  0.00  0.00    -0.283 N 
ATOM      8  C   UNL     1       1.962   9.673   3.702  0.00  0.00    +0.055 A 
ATOM      9  C   UNL     1       2.356   8.413   3.247  0.00  0.00    +0.058 A 
ATOM     10  C   UNL     1       3.594   8.243   2.655  0.00  0.00    +0.025 A 
ATOM     11  C   UNL     1       4.444   9.326   2.518  0.00  0.00    +0.002 A 
ATOM     12  C   UNL     1       4.058  10.574   2.972  0.00  0.00    +0.002 A 
ATOM     13  C   UNL     1       2.821  10.751   3.563  0.00  0.00    +0.025 A 
ATOM     14  H   UNL     1       0.341  10.724   4.415  0.00  0.00    +0.155 HD
ENDROOT
BRANCH   1  15
ATOM     15  C   UNL     1       0.521   5.151   2.732  0.00  0.00    +0.173 C 
BRANCH  15  16
ATOM     16  S   UNL     1       0.774   3.928   1.422  0.00  0.00    -0.077 S 
BRANCH  16  23
ATOM     17  N   UNL     1      -0.698   1.558   1.213  0.00  0.00    -0.271 N 
ATOM     18  C   UNL     1      -1.686   0.912   1.864  0.00  0.00    +0.345 A 
ATOM     19  O   UNL     1      -2.166  -0.165   1.556  0.00  0.00    -0.245 OA
ATOM     20  N   UNL     1      -2.047   1.673   2.917  0.00  0.00    -0.226 N 
ATOM     21  H   UNL     1      -2.735   1.464   3.568  0.00  0.00    +0.194 HD
ATOM     22  N   UNL     1      -1.244   2.822   2.899  0.00  0.00    -0.145 NA
ATOM     23  C   UNL     1      -0.440   2.736   1.878  0.00  0.00    +0.192 A 
BRANCH  17  24
ATOM     24  C   UNL     1      -0.013   1.086   0.008  0.00  0.00    +0.129 C 
BRANCH  24  26
ATOM     25  C   UNL     1      -0.037   1.099  -2.490  0.00  0.00    +0.005 C 
ATOM     26  C   UNL     1      -0.753   1.593  -1.232  0.00  0.00    +0.018 C 
ENDBRANCH  24  26
ENDBRANCH  17  24
ENDBRANCH  16  23
ENDBRANCH  15  16
ENDBRANCH   1  15
TORSDOF 5
