REMARK  Name = ZINC66760222
REMARK  7 active torsions:
REMARK  status: ('A' for Active; 'I' for Inactive)
REMARK    1  A    between atoms: C_1  and  C_2
REMARK    2  A    between atoms: C_3  and  C_17
REMARK    3  A    between atoms: N_6  and  C_7
REMARK    4  A    between atoms: C_17  and  O_19
REMARK    5  A    between atoms: O_19  and  C_20
REMARK    6  A    between atoms: C_24  and  C_26
REMARK    7  A    between atoms: N_28  and  C_29
REMARK                            x       y       z     vdW  Elec       q    Type
REMARK                         _______ _______ _______ _____ _____    ______ ____
ROOT
ATOM      1  C   UNL     1      -0.699   1.172   0.331  0.00  0.00    +0.068 C 
ATOM      2  C   UNL     1      -0.371  -0.291   0.183  0.00  0.00    +0.076 A 
ATOM      3  C   UNL     1      -0.305  -0.998  -0.985  0.00  0.00    +0.193 A 
ATOM      4  N   UNL     1       0.017  -2.270  -0.695  0.00  0.00    -0.122 NA
ATOM      5  N   UNL     1       0.156  -2.401   0.578  0.00  0.00    -0.060 NA
ATOM      6  N   UNL     1      -0.078  -1.156   1.179  0.00  0.00    -0.216 N 
ENDROOT
BRANCH   6   7
ATOM      7  C   UNL     1      -0.023  -0.866   2.546  0.00  0.00    +0.076 A 
ATOM      8  C   UNL     1       0.696   0.219   2.999  0.00  0.00    +0.028 A 
ATOM      9  C   UNL     1       0.755   0.514   4.357  0.00  0.00    +0.004 A 
ATOM     10  C   UNL     1       0.107  -0.257   5.274  0.00  0.00    +0.028 A 
ATOM     11  C   UNL     1      -0.637  -1.373   4.855  0.00  0.00    +0.073 A 
ATOM     12  C   UNL     1      -0.708  -1.677   3.474  0.00  0.00    +0.026 A 
ATOM     13  C   UNL     1      -1.458  -2.791   3.058  0.00  0.00    +0.013 A 
ATOM     14  C   UNL     1      -2.095  -3.533   4.012  0.00  0.00    +0.020 A 
ATOM     15  C   UNL     1      -1.989  -3.176   5.354  0.00  0.00    +0.111 A 
ATOM     16  N   UNL     1      -1.279  -2.144   5.740  0.00  0.00    -0.255 NA
ENDBRANCH   6   7
BRANCH   3  17
ATOM     17  C   UNL     1      -0.547  -0.456  -2.334  0.00  0.00    +0.367 C 
ATOM     18  O   UNL     1      -0.833   0.717  -2.476  0.00  0.00    -0.243 OA
BRANCH  17  19
ATOM     19  O   UNL     1      -0.450  -1.261  -3.411  0.00  0.00    -0.421 OA
BRANCH  19  20
ATOM     20  C   UNL     1      -0.617  -0.705  -4.640  0.00  0.00    +0.133 A 
ATOM     21  C   UNL     1       0.347   0.155  -5.149  0.00  0.00    +0.046 A 
ATOM     22  C   UNL     1       0.183   0.723  -6.399  0.00  0.00    +0.004 A 
ATOM     23  C   UNL     1      -0.940   0.438  -7.149  0.00  0.00    +0.013 A 
ATOM     24  C   UNL     1      -1.914  -0.425  -6.646  0.00  0.00    +0.040 A 
ATOM     25  C   UNL     1      -1.744  -1.002  -5.387  0.00  0.00    +0.059 A 
BRANCH  24  26
ATOM     26  C   UNL     1      -3.119  -0.732  -7.446  0.00  0.00    +0.244 C 
ATOM     27  O   UNL     1      -3.965  -1.485  -7.006  0.00  0.00    -0.270 OA
ATOM     28  N   UNL     1      -3.277  -0.177  -8.664  0.00  0.00    -0.314 N 
ATOM     29  C   UNL     1      -4.471  -0.481  -9.457  0.00  0.00    +0.128 C 
ATOM     30  H   UNL     1      -2.602   0.423  -9.016  0.00  0.00    +0.149 HD
ENDBRANCH  24  26
ENDBRANCH  19  20
ENDBRANCH  17  19
ENDBRANCH   3  17
TORSDOF 5
