REMARK  Name = ZINC27100593
REMARK  11 active torsions:
REMARK  status: ('A' for Active; 'I' for Inactive)
REMARK    1  A    between atoms: C_1  and  C_2
REMARK    2  A    between atoms: C_2  and  C_4
REMARK    3  A    between atoms: C_2  and  N_14
REMARK    4  A    between atoms: C_7  and  O_12
REMARK    5  A    between atoms: C_9  and  O_10
REMARK    6  A    between atoms: O_10  and  C_11
REMARK    7  A    between atoms: O_12  and  C_13
REMARK    8  A    between atoms: N_17  and  C_20
REMARK    9  A    between atoms: C_20  and  C_21
REMARK   10  A    between atoms: C_22  and  O_38
REMARK   11  A    between atoms: C_29  and  C_32
REMARK                            x       y       z     vdW  Elec       q    Type
REMARK                         _______ _______ _______ _____ _____    ______ ____
ROOT
ATOM      1  C   UNL     1       0.407   5.414  -1.541  0.00  0.00    -0.035 C 
ENDROOT
BRANCH   1   2
ATOM      2  C   UNL     1      -0.589   5.795  -2.606  0.00  0.00    +0.020 A 
ATOM      3  C   UNL     1      -0.181   5.928  -3.922  0.00  0.00    +0.122 A 
ATOM      4  C   UNL     1      -1.094   6.274  -4.916  0.00  0.00    +0.046 A 
ATOM      5  C   UNL     1      -2.404   6.498  -4.601  0.00  0.00    +0.019 A 
ATOM      6  C   UNL     1      -2.829   6.373  -3.278  0.00  0.00    +0.065 A 
ATOM      7  C   UNL     1      -1.917   6.019  -2.268  0.00  0.00    +0.143 A 
ATOM      8  O   UNL     1      -2.329   5.898  -0.991  0.00  0.00    -0.462 OA
ATOM      9  C   UNL     1      -3.592   6.100  -0.606  0.00  0.00    +0.208 A 
ATOM     10  C   UNL     1      -4.575   6.446  -1.476  0.00  0.00    +0.064 A 
ATOM     11  C   UNL     1      -4.235   6.606  -2.901  0.00  0.00    +0.200 A 
ATOM     12  O   UNL     1      -5.075   6.916  -3.728  0.00  0.00    -0.286 OA
BRANCH  10  13
ATOM     13  C   UNL     1      -5.964   6.660  -1.002  0.00  0.00    -0.011 A 
ATOM     14  C   UNL     1      -6.652   7.820  -1.354  0.00  0.00    +0.009 A 
ATOM     15  C   UNL     1      -7.946   8.011  -0.914  0.00  0.00    +0.001 A 
ATOM     16  C   UNL     1      -8.556   7.060  -0.116  0.00  0.00    +0.000 A 
ATOM     17  C   UNL     1      -7.876   5.909   0.240  0.00  0.00    +0.001 A 
ATOM     18  C   UNL     1      -6.584   5.705  -0.199  0.00  0.00    +0.009 A 
ENDBRANCH  10  13
BRANCH   3  19
ATOM     19  O   UNL     1       1.119   5.715  -4.248  0.00  0.00    -0.506 OA
ATOM     20  H   UNL     1       1.448   5.819  -5.293  0.00  0.00    +0.292 HD
ENDBRANCH   3  19
ENDBRANCH   1   2
BRANCH   1  24
ATOM     21  N   UNL     1      -0.041   1.459  -0.128  0.00  0.00    -0.299 NA
ATOM     22  C   UNL     1      -0.818   1.860  -1.309  0.00  0.00    +0.066 C 
ATOM     23  C   UNL     1      -0.905   3.387  -1.363  0.00  0.00    -0.063 C 
ATOM     24  N   UNL     1       0.451   3.952  -1.411  0.00  0.00    +0.384 N 
ATOM     25  C   UNL     1       1.227   3.550  -0.230  0.00  0.00    -0.063 C 
ATOM     26  C   UNL     1       1.315   2.023  -0.176  0.00  0.00    +0.066 C 
ATOM     27  H   UNL     1       0.955   3.549  -2.302  0.00  0.00    -0.081 HD
BRANCH  21  29
ATOM     28  C   UNL     1       0.545  -0.615  -1.291  0.00  0.00    +0.029 C 
ATOM     29  C   UNL     1       0.002  -0.004   0.002  0.00  0.00    +0.087 C 
BRANCH  29  30
ATOM     30  C   UNL     1      -1.388  -0.527   0.259  0.00  0.00    +0.011 A 
ATOM     31  C   UNL     1      -2.091  -1.147  -0.756  0.00  0.00    +0.012 A 
ATOM     32  C   UNL     1      -3.363  -1.632  -0.522  0.00  0.00    +0.046 A 
ATOM     33  C   UNL     1      -3.942  -1.488   0.731  0.00  0.00    +0.124 A 
ATOM     34  C   UNL     1      -3.241  -0.861   1.750  0.00  0.00    +0.091 A 
ATOM     35  C   UNL     1      -1.962  -0.380   1.514  0.00  0.00    +0.128 A 
BRANCH  35  36
ATOM     36  O   UNL     1      -1.273   0.235   2.510  0.00  0.00    -0.495 OA
ATOM     37  C   UNL     1      -1.926   0.352   3.775  0.00  0.00    +0.277 C 
ENDBRANCH  35  36
BRANCH  33  38
ATOM     38  O   UNL     1      -5.196  -1.960   0.959  0.00  0.00    -0.495 OA
ATOM     39  C   UNL     1      -5.860  -2.595  -0.136  0.00  0.00    +0.277 C 
ENDBRANCH  33  38
ENDBRANCH  29  30
ENDBRANCH  21  29
ENDBRANCH   1  24
TORSDOF 8
