REMARK  Name = ZINC06473569
REMARK  8 active torsions:
REMARK  status: ('A' for Active; 'I' for Inactive)
REMARK    1  A    between atoms: C_1  and  C_2
REMARK    2  A    between atoms: C_3  and  N_9
REMARK    3  A    between atoms: N_9  and  C_10
REMARK    4  A    between atoms: C_10  and  N_12
REMARK    5  A    between atoms: N_12  and  N_13
REMARK    6  A    between atoms: C_14  and  C_15
REMARK    7  A    between atoms: C_14  and  C_16
REMARK    8  A    between atoms: C_19  and  C_22
REMARK                            x       y       z     vdW  Elec       q    Type
REMARK                         _______ _______ _______ _____ _____    ______ ____
ROOT
ATOM      1  N   UNL     1       2.325   1.415   0.005  0.00  0.00    -0.185 NA
ATOM      2  C   UNL     1       3.422   2.109  -0.000  0.00  0.00    +0.063 C 
ATOM      3  C   UNL     1       3.398   3.553  -0.431  0.00  0.00    +0.068 C 
ENDROOT
BRANCH   2   4
ATOM      4  C   UNL     1       4.692   1.485   0.416  0.00  0.00    -0.003 A 
ATOM      5  C   UNL     1       5.875   2.227   0.406  0.00  0.00    +0.010 A 
ATOM      6  C   UNL     1       7.058   1.638   0.800  0.00  0.00    +0.004 A 
ATOM      7  C   UNL     1       7.077   0.312   1.195  0.00  0.00    -0.044 A 
ATOM      8  C   UNL     1       5.909  -0.430   1.203  0.00  0.00    +0.004 A 
ATOM      9  C   UNL     1       4.718   0.147   0.816  0.00  0.00    +0.010 A 
BRANCH   7  10
ATOM     10  C   UNL     1       8.375  -0.326   1.619  0.00  0.00    +0.019 C 
ATOM     11  C   UNL     1       8.945   0.429   2.822  0.00  0.00    +0.008 C 
ATOM     12  C   UNL     1      10.263  -0.219   3.252  0.00  0.00    +0.001 C 
ATOM     13  C   UNL     1      11.261  -0.162   2.094  0.00  0.00    +0.000 C 
ATOM     14  C   UNL     1      10.691  -0.917   0.892  0.00  0.00    +0.001 C 
ATOM     15  C   UNL     1       9.373  -0.269   0.461  0.00  0.00    +0.008 C 
ENDBRANCH   7  10
ENDBRANCH   2   4
BRANCH   1  16
ATOM     16  N   UNL     1       1.119   2.008  -0.390  0.00  0.00    -0.218 N 
ATOM     17  H   UNL     1       1.104   2.937  -0.667  0.00  0.00    +0.176 HD
BRANCH  16  18
ATOM     18  C   UNL     1      -0.020   1.287  -0.384  0.00  0.00    +0.154 C 
ATOM     19  S   UNL     1      -1.492   2.010  -0.873  0.00  0.00    -0.017 S 
BRANCH  18  20
ATOM     20  N   UNL     1       0.002  -0.004   0.002  0.00  0.00    -0.295 N 
ATOM     21  H   UNL     1       0.847  -0.437   0.201  0.00  0.00    +0.154 HD
BRANCH  20  24
ATOM     22  C   UNL     1      -0.095  -2.636  -1.076  0.00  0.00    +0.047 C 
ATOM     23  C   UNL     1      -1.285  -2.008  -0.397  0.00  0.00    -0.011 A 
ATOM     24  C   UNL     1      -1.194  -0.720   0.115  0.00  0.00    +0.037 A 
ATOM     25  C   UNL     1      -2.295  -0.143   0.735  0.00  0.00    +0.023 A 
ATOM     26  C   UNL     1      -3.475  -0.852   0.845  0.00  0.00    +0.003 A 
ATOM     27  C   UNL     1      -3.562  -2.136   0.339  0.00  0.00    +0.020 A 
ATOM     28  C   UNL     1      -2.467  -2.715  -0.279  0.00  0.00    +0.046 A 
ATOM     29 CL   UNL     1      -2.580  -4.327  -0.913  0.00  0.00    -0.083 Cl
ENDBRANCH  20  24
ENDBRANCH  18  20
ENDBRANCH  16  18
ENDBRANCH   1  16
TORSDOF 6
