REMARK  Name = ZINC39000939
REMARK  3 active torsions:
REMARK  status: ('A' for Active; 'I' for Inactive)
REMARK    1  A    between atoms: C_3  and  C_8
REMARK    2  A    between atoms: N_14  and  N_15
REMARK    3  A    between atoms: C_16  and  C_17
REMARK                            x       y       z     vdW  Elec       q    Type
REMARK                         _______ _______ _______ _____ _____    ______ ____
ROOT
ATOM      1  C   UNL     1       3.845   2.281   0.090  0.00  0.00    +0.264 C 
ATOM      2  N   UNL     1       3.613   3.493  -0.711  0.00  0.00    -0.189 NA
ATOM      3  N   UNL     1       4.218   3.368  -1.779  0.00  0.00    -0.219 N 
ATOM      4  C   UNL     1       4.890   2.190  -1.885  0.00  0.00    +0.174 C 
ATOM      5  S   UNL     1       5.825   1.713  -3.237  0.00  0.00    -0.015 S 
ATOM      6  N   UNL     1       4.714   1.450  -0.764  0.00  0.00    -0.172 N 
ATOM      7  H   UNL     1       4.215   4.043  -2.475  0.00  0.00    +0.176 HD
ENDROOT
BRANCH   1  10
ATOM      8  C   UNL     1       0.187   1.654   0.788  0.00  0.00    +0.002 A 
ATOM      9  C   UNL     1       1.382   2.303   0.534  0.00  0.00    +0.007 A 
ATOM     10  C   UNL     1       2.543   1.573   0.367  0.00  0.00    -0.001 A 
ATOM     11  C   UNL     1       2.512   0.194   0.453  0.00  0.00    +0.027 A 
ATOM     12  C   UNL     1       1.317  -0.456   0.707  0.00  0.00    +0.041 A 
ATOM     13  C   UNL     1       0.154   0.276   0.874  0.00  0.00    +0.020 A 
ATOM     14 CL   UNL     1       1.276  -2.188   0.814  0.00  0.00    -0.084 Cl
ENDBRANCH   1  10
BRANCH   6  15
ATOM     15  N   UNL     1       5.239   0.183  -0.478  0.00  0.00    -0.183 NA
ATOM     16  C   UNL     1       6.086  -0.371  -1.297  0.00  0.00    +0.145 C 
BRANCH  16  17
ATOM     17  C   UNL     1       6.555  -1.737  -1.052  0.00  0.00    +0.032 A 
ATOM     18  C   UNL     1       7.448  -2.499  -1.788  0.00  0.00    +0.017 A 
ATOM     19  C   UNL     1       7.735  -3.771  -1.352  0.00  0.00    +0.008 A 
ATOM     20  C   UNL     1       7.140  -4.238  -0.223  0.00  0.00    +0.046 A 
ATOM     21  S   UNL     1       6.131  -2.852   0.276  0.00  0.00    -0.096 S 
ENDBRANCH  16  17
ENDBRANCH   6  15
TORSDOF 3
