REMARK  Name = ZINC06761980
REMARK  9 active torsions:
REMARK  status: ('A' for Active; 'I' for Inactive)
REMARK    1  A    between atoms: C_1  and  C_2
REMARK    2  A    between atoms: C_2  and  C_3
REMARK    3  A    between atoms: C_2  and  C_4
REMARK    4  A    between atoms: C_2  and  C_5
REMARK    5  A    between atoms: C_8  and  O_11
REMARK    6  A    between atoms: O_11  and  C_12
REMARK    7  A    between atoms: C_14  and  O_34
REMARK    8  A    between atoms: C_16  and  O_33
REMARK    9  A    between atoms: C_25  and  C_28
REMARK                            x       y       z     vdW  Elec       q    Type
REMARK                         _______ _______ _______ _____ _____    ______ ____
ROOT
ATOM      1  C   UNL     1      -1.069  -2.126   0.001  0.00  0.00    +0.339 C 
ATOM      2  C   UNL     1      -2.467  -2.730   0.151  0.00  0.00    +0.214 C 
ATOM      3  C   UNL     1      -3.326  -2.352  -1.062  0.00  0.00    +0.180 C 
ATOM      4  C   UNL     1      -2.609  -2.821  -2.328  0.00  0.00    +0.184 C 
ATOM      5  C   UNL     1      -1.225  -2.161  -2.381  0.00  0.00    +0.179 C 
ATOM      6  O   UNL     1      -0.480  -2.556  -1.231  0.00  0.00    -0.331 OA
ATOM      7  C   UNL     1      -0.529  -2.600  -3.669  0.00  0.00    +0.197 C 
ATOM      8  O   UNL     1      -1.377  -2.268  -4.776  0.00  0.00    -0.342 OA
ATOM      9  C   UNL     1      -2.682  -2.843  -4.712  0.00  0.00    +0.319 C 
ATOM     10  O   UNL     1      -3.335  -2.450  -3.499  0.00  0.00    -0.336 OA
ENDROOT
BRANCH   9  11
ATOM     11  C   UNL     1      -3.494  -2.373  -5.891  0.00  0.00    +0.161 A 
ATOM     12  C   UNL     1      -3.191  -2.575  -7.186  0.00  0.00    +0.050 A 
ATOM     13  C   UNL     1      -4.217  -1.969  -7.947  0.00  0.00    +0.041 A 
ATOM     14  C   UNL     1      -5.086  -1.433  -7.071  0.00  0.00    +0.195 A 
ATOM     15  O   UNL     1      -4.646  -1.685  -5.828  0.00  0.00    -0.463 OA
ENDBRANCH   9  11
BRANCH   3  16
ATOM     16  O   UNL     1      -4.600  -2.991  -0.966  0.00  0.00    -0.386 OA
ATOM     17  H   UNL     1      -5.110  -2.738  -0.184  0.00  0.00    +0.210 HD
ENDBRANCH   3  16
BRANCH   2  18
ATOM     18  O   UNL     1      -2.364  -4.152   0.236  0.00  0.00    -0.383 OA
ATOM     19  H   UNL     1      -1.836  -4.465   0.984  0.00  0.00    +0.210 HD
ENDBRANCH   2  18
BRANCH   1  20
ATOM     20  O   UNL     1      -1.165  -0.701   0.010  0.00  0.00    -0.461 OA
BRANCH  20  24
ATOM     21  C   UNL     1       2.377   1.414  -0.013  0.00  0.00    -0.042 A 
ATOM     22  C   UNL     1       1.171   2.089   0.002  0.00  0.00    +0.008 A 
ATOM     23  C   UNL     1      -0.017   1.383   0.010  0.00  0.00    +0.046 A 
ATOM     24  C   UNL     1       0.002  -0.004   0.002  0.00  0.00    +0.124 A 
ATOM     25  C   UNL     1       1.214  -0.679  -0.013  0.00  0.00    +0.046 A 
ATOM     26  C   UNL     1       2.399   0.031  -0.021  0.00  0.00    +0.008 A 
BRANCH  21  28
ATOM     27  C   UNL     1       4.466   1.835  -1.282  0.00  0.00    +0.015 C 
ATOM     28  C   UNL     1       3.671   2.186  -0.023  0.00  0.00    -0.013 C 
ATOM     29  C   UNL     1       3.370   3.686  -0.012  0.00  0.00    +0.015 C 
ATOM     30  C   UNL     1       4.492   1.822   1.216  0.00  0.00    +0.015 C 
ENDBRANCH  21  28
ENDBRANCH  20  24
ENDBRANCH   1  20
TORSDOF 6
