REMARK  Name = ZINC43347359
REMARK  5 active torsions:
REMARK  status: ('A' for Active; 'I' for Inactive)
REMARK    1  A    between atoms: C_1  and  C_2
REMARK    2  A    between atoms: C_3  and  N_11
REMARK    3  A    between atoms: C_7  and  N_8
REMARK    4  A    between atoms: N_14  and  C_15
REMARK    5  A    between atoms: C_20  and  C_23
REMARK                            x       y       z     vdW  Elec       q    Type
REMARK                         _______ _______ _______ _____ _____    ______ ____
ROOT
ATOM      1  N   UNL     1      -0.409   0.193  -2.478  0.00  0.00    -0.269 N 
ATOM      2  C   UNL     1      -0.692  -0.489  -3.606  0.00  0.00    +0.304 C 
ATOM      3  O   UNL     1      -0.661  -1.704  -3.606  0.00  0.00    -0.253 OA
ATOM      4  N   UNL     1      -1.010   0.177  -4.734  0.00  0.00    -0.296 N 
ATOM      5  H   UNL     1      -0.382   1.162  -2.491  0.00  0.00    +0.156 HD
ATOM      6  H   UNL     1      -1.035   1.147  -4.734  0.00  0.00    +0.151 HD
ENDROOT
BRANCH   1   9
ATOM      7  C   UNL     1      -1.254   1.373  -0.030  0.00  0.00    +0.048 C 
ATOM      8  C   UNL     1      -0.549   0.041  -0.072  0.00  0.00    +0.001 A 
ATOM      9  C   UNL     1      -0.154  -0.499  -1.289  0.00  0.00    +0.040 A 
ATOM     10  C   UNL     1       0.495  -1.726  -1.322  0.00  0.00    +0.024 A 
ATOM     11  C   UNL     1       0.745  -2.406  -0.146  0.00  0.00    +0.004 A 
ATOM     12  C   UNL     1       0.350  -1.866   1.063  0.00  0.00    +0.033 A 
ATOM     13  C   UNL     1      -0.292  -0.641   1.101  0.00  0.00    +0.131 A 
BRANCH  13  14
ATOM     14  N   UNL     1      -0.708  -0.064   2.399  0.00  0.00    +0.057 N 
ATOM     15  O   UNL     1      -0.804   1.134   2.525  0.00  0.00    -0.126 OA
ATOM     16  O   UNL     1      -0.952  -0.791   3.333  0.00  0.00    -0.126 OA
ENDBRANCH  13  14
ENDBRANCH   1   9
BRANCH   4  17
ATOM     17  C   UNL     1      -1.318  -0.563  -5.960  0.00  0.00    +0.075 C 
ATOM     18  C   UNL     1      -2.795  -0.965  -5.955  0.00  0.00    +0.022 C 
ATOM     19  C   UNL     1      -3.665   0.291  -5.886  0.00  0.00    +0.002 C 
ATOM     20  C   UNL     1      -3.381   1.176  -7.102  0.00  0.00    +0.012 C 
ATOM     21  C   UNL     1      -1.905   1.578  -7.106  0.00  0.00    +0.095 C 
ATOM     22  C   UNL     1      -1.034   0.322  -7.175  0.00  0.00    +0.034 C 
BRANCH  21  23
ATOM     23  C   UNL     1      -1.621   2.463  -8.321  0.00  0.00    +0.393 C 
ATOM     24  F   UNL     1      -2.417   3.612  -8.258  0.00  0.00    -0.170 F 
ATOM     25  F   UNL     1      -0.271   2.831  -8.325  0.00  0.00    -0.170 F 
ATOM     26  F   UNL     1      -1.915   1.756  -9.492  0.00  0.00    -0.170 F 
ENDBRANCH  21  23
ENDBRANCH   4  17
TORSDOF 4
