REMARK  Name = ZINC31677041
REMARK  7 active torsions:
REMARK  status: ('A' for Active; 'I' for Inactive)
REMARK    1  A    between atoms: C_1  and  C_2
REMARK    2  A    between atoms: N_4  and  C_5
REMARK    3  A    between atoms: C_10  and  O_11
REMARK    4  A    between atoms: O_11  and  C_12
REMARK    5  A    between atoms: C_12  and  C_13
REMARK    6  A    between atoms: N_15  and  C_16
REMARK    7  A    between atoms: C_17  and  C_25
REMARK                            x       y       z     vdW  Elec       q    Type
REMARK                         _______ _______ _______ _____ _____    ______ ____
ROOT
ATOM      1  C   UNL     1      -1.056  -2.150  -0.003  0.00  0.00    +0.255 C 
ATOM      2  O   UNL     1       0.069  -2.602  -0.007  0.00  0.00    -0.272 OA
ATOM      3  N   UNL     1      -2.117  -2.981   0.001  0.00  0.00    -0.277 N 
ATOM      4  H   UNL     1      -3.138  -2.571   0.005  0.00  0.00    +0.155 HD
ENDROOT
BRANCH   3   5
ATOM      5  C   UNL     1      -1.921  -4.354  -0.001  0.00  0.00    +0.084 A 
ATOM      6  C   UNL     1      -2.876  -5.361   0.007  0.00  0.00    +0.068 A 
ATOM      7  C   UNL     1      -2.403  -6.735  -0.002  0.00  0.00    -0.023 A 
ATOM      8  C   UNL     1      -1.060  -6.881  -0.006  0.00  0.00    -0.004 A 
ATOM      9  S   UNL     1      -0.425  -5.228  -0.007  0.00  0.00    -0.077 S 
ATOM     10  C   UNL     1      -0.291  -8.166  -0.009  0.00  0.00    +0.043 C 
ATOM     11  C   UNL     1      -1.250  -9.304   0.372  0.00  0.00    +0.005 C 
ATOM     12  C   UNL     1      -2.528  -9.171  -0.461  0.00  0.00    +0.005 C 
ATOM     13  C   UNL     1      -3.324  -7.949  -0.000  0.00  0.00    +0.037 C 
BRANCH   6  14
ATOM     14  C   UNL     1      -4.309  -5.051   0.020  0.00  0.00    +0.244 C 
ATOM     15  O   UNL     1      -4.913  -4.922  -1.028  0.00  0.00    -0.270 OA
ATOM     16  N   UNL     1      -4.957  -4.907   1.193  0.00  0.00    -0.325 N 
ATOM     17  H   UNL     1      -6.032  -4.674   1.203  0.00  0.00    +0.145 HD
ATOM     18  H   UNL     1      -4.411  -5.024   2.141  0.00  0.00    +0.145 HD
ENDBRANCH   6  14
ENDBRANCH   3   5
BRANCH   1  19
ATOM     19  C   UNL     1      -1.269  -0.658  -0.001  0.00  0.00    +0.325 C 
BRANCH  19  20
ATOM     20  O   UNL     1      -0.003   0.004  -0.005  0.00  0.00    -0.481 OA
BRANCH  20  26
ATOM     21  C   UNL     1       1.182   2.074  -0.008  0.00  0.00    +0.076 A 
ATOM     22  C   UNL     1       1.161   3.461  -0.008  0.00  0.00    +0.027 A 
ATOM     23  C   UNL     1      -0.046   4.134  -0.003  0.00  0.00    +0.002 A 
ATOM     24  C   UNL     1      -1.235   3.428   0.001  0.00  0.00    +0.004 A 
ATOM     25  C   UNL     1      -1.222   2.046  -0.005  0.00  0.00    +0.047 A 
ATOM     26  C   UNL     1      -0.017   1.364  -0.004  0.00  0.00    +0.142 A 
BRANCH  21  30
ATOM     27  C   UNL     1       4.849   1.300   0.354  0.00  0.00    +0.109 C 
ATOM     28  C   UNL     1       3.512   1.985   0.472  0.00  0.00    +0.214 C 
ATOM     29  O   UNL     1       3.432   3.072   1.004  0.00  0.00    -0.276 OA
ATOM     30  N   UNL     1       2.404   1.390  -0.013  0.00  0.00    -0.283 N 
ATOM     31  H   UNL     1       2.460   0.367  -0.414  0.00  0.00    +0.155 HD
ENDBRANCH  21  30
ENDBRANCH  20  26
ENDBRANCH  19  20
ENDBRANCH   1  19
TORSDOF 6
