REMARK  Name = ZINC49858453
REMARK  7 active torsions:
REMARK  status: ('A' for Active; 'I' for Inactive)
REMARK    1  A    between atoms: C_1  and  C_2
REMARK    2  A    between atoms: C_2  and  C_3
REMARK    3  A    between atoms: C_3  and  C_4
REMARK    4  A    between atoms: C_7  and  C_10
REMARK    5  A    between atoms: C_12  and  C_20
REMARK    6  A    between atoms: N_13  and  C_19
REMARK    7  A    between atoms: C_16  and  C_17
REMARK                            x       y       z     vdW  Elec       q    Type
REMARK                         _______ _______ _______ _____ _____    ______ ____
ROOT
ATOM      1  C   UNL     1      -1.357  -6.289  -0.019  0.00  0.00    +0.006 A 
ATOM      2  C   UNL     1      -2.445  -7.023   0.489  0.00  0.00    +0.031 A 
ATOM      3  C   UNL     1      -2.414  -8.376   0.475  0.00  0.00    +0.019 A 
ATOM      4  N   UNL     1      -1.347  -9.052  -0.022  0.00  0.00    -0.315 N 
ATOM      5  C   UNL     1      -0.278  -8.405  -0.522  0.00  0.00    +0.269 A 
ATOM      6  O   UNL     1       0.667  -9.036  -0.963  0.00  0.00    -0.266 OA
ATOM      7  C   UNL     1      -0.255  -6.988  -0.539  0.00  0.00    +0.124 A 
ATOM      8  C   UNL     1      -1.360 -10.517  -0.015  0.00  0.00    +0.152 C 
ATOM      9  C   UNL     1      -3.587  -9.147   1.023  0.00  0.00    +0.063 C 
ENDROOT
BRANCH   1  13
ATOM     10  C   UNL     1      -1.413  -2.041   0.005  0.00  0.00    -0.047 A 
ATOM     11  C   UNL     1      -1.409  -2.723  -1.199  0.00  0.00    +0.004 A 
ATOM     12  C   UNL     1      -1.391  -4.102  -1.214  0.00  0.00    +0.009 A 
ATOM     13  C   UNL     1      -1.376  -4.809  -0.011  0.00  0.00    -0.016 A 
ATOM     14  C   UNL     1      -1.379  -4.115   1.200  0.00  0.00    +0.009 A 
ATOM     15  C   UNL     1      -1.392  -2.736   1.201  0.00  0.00    +0.004 A 
BRANCH  10  16
ATOM     16  C   UNL     1      -1.433  -0.534   0.013  0.00  0.00    +0.035 C 
BRANCH  16  18
ATOM     17  C   UNL     1      -0.019   1.526   0.010  0.00  0.00    +0.004 C 
ATOM     18  C   UNL     1       0.002  -0.004   0.002  0.00  0.00    +0.001 C 
ENDBRANCH  16  18
ENDBRANCH  10  16
ENDBRANCH   1  13
BRANCH   7  19
ATOM     19  C   UNL     1       0.872  -6.283  -1.072  0.00  0.00    +0.105 C 
ATOM     20  N   UNL     1       1.766  -5.723  -1.495  0.00  0.00    -0.191 NA
ENDBRANCH   7  19
TORSDOF 4
