REMARK  Name = ZINC13396659
REMARK  10 active torsions:
REMARK  status: ('A' for Active; 'I' for Inactive)
REMARK    1  A    between atoms: C_1  and  C_2
REMARK    2  A    between atoms: C_2  and  N_3
REMARK    3  A    between atoms: C_4  and  C_25
REMARK    4  A    between atoms: C_7  and  S_8
REMARK    5  A    between atoms: S_8  and  C_9
REMARK    6  A    between atoms: C_9  and  C_10
REMARK    7  A    between atoms: C_18  and  C_24
REMARK    8  A    between atoms: C_19  and  C_21
REMARK    9  A    between atoms: C_29  and  O_31
REMARK   10  A    between atoms: O_31  and  C_32
REMARK                            x       y       z     vdW  Elec       q    Type
REMARK                         _______ _______ _______ _____ _____    ______ ____
ROOT
ATOM      1  S   UNL     1      -1.873  -0.363  -2.715  0.00  0.00    -0.081 S 
ENDROOT
BRANCH   1   6
ATOM      2  N   UNL     1      -1.554  -0.468   0.062  0.00  0.00    -0.302 N 
ATOM      3  C   UNL     1      -2.287  -0.937   1.127  0.00  0.00    +0.165 A 
ATOM      4  N   UNL     1      -3.390  -1.455   0.638  0.00  0.00    -0.128 NA
ATOM      5  N   UNL     1      -3.397  -1.343  -0.642  0.00  0.00    -0.122 NA
ATOM      6  C   UNL     1      -2.301  -0.742  -1.048  0.00  0.00    +0.192 A 
BRANCH   3   7
ATOM      7  C   UNL     1      -1.905  -0.872   2.554  0.00  0.00    +0.023 A 
ATOM      8  C   UNL     1      -0.939   0.043   2.979  0.00  0.00    +0.012 A 
ATOM      9  C   UNL     1      -0.584   0.101   4.311  0.00  0.00    +0.004 A 
ATOM     10  C   UNL     1      -1.182  -0.744   5.228  0.00  0.00    +0.045 A 
ATOM     11  C   UNL     1      -2.143  -1.656   4.815  0.00  0.00    +0.121 A 
ATOM     12  C   UNL     1      -2.511  -1.719   3.481  0.00  0.00    +0.057 A 
BRANCH  11  13
ATOM     13  O   UNL     1      -2.727  -2.485   5.720  0.00  0.00    -0.495 OA
ATOM     14  C   UNL     1      -2.303  -2.362   7.079  0.00  0.00    +0.277 C 
ENDBRANCH  11  13
ENDBRANCH   3   7
BRANCH   2  16
ATOM     15  C   UNL     1      -0.446   1.712   0.129  0.00  0.00    +0.027 C 
ATOM     16  C   UNL     1      -0.248   0.195   0.109  0.00  0.00    +0.122 C 
ENDBRANCH   2  16
ENDBRANCH   1   6
BRANCH   1  17
ATOM     17  C   UNL     1      -3.276  -0.987  -3.681  0.00  0.00    +0.113 C 
BRANCH  17  18
ATOM     18  C   UNL     1      -3.035  -0.724  -5.145  0.00  0.00    -0.022 A 
ATOM     19  C   UNL     1      -3.545   0.387  -5.725  0.00  0.00    +0.075 A 
ATOM     20  C   UNL     1      -3.330   0.649  -7.090  0.00  0.00    +0.250 A 
ATOM     21  O   UNL     1      -3.795   1.655  -7.600  0.00  0.00    -0.268 OA
ATOM     22  N   UNL     1      -2.608  -0.212  -7.835  0.00  0.00    -0.317 N 
ATOM     23  H   UNL     1      -2.462  -0.029  -8.776  0.00  0.00    +0.169 HD
ATOM     24  C   UNL     1      -2.085  -1.335  -7.278  0.00  0.00    +0.089 A 
ATOM     25  C   UNL     1      -2.262  -1.646  -5.920  0.00  0.00    +0.014 A 
ATOM     26  C   UNL     1      -1.658  -2.837  -5.486  0.00  0.00    -0.020 A 
ATOM     27  C   UNL     1      -0.965  -3.559  -6.416  0.00  0.00    +0.106 A 
ATOM     28  S   UNL     1      -1.163  -2.588  -7.896  0.00  0.00    -0.064 S 
ATOM     29  C   UNL     1      -1.770  -3.299  -4.056  0.00  0.00    +0.046 C 
BRANCH  27  30
ATOM     30  C   UNL     1      -0.268  -4.782  -6.246  0.00  0.00    +0.393 C 
ATOM     31  O   UNL     1      -0.240  -5.324  -5.148  0.00  0.00    -0.240 OA
ATOM     32  O   UNL     1       0.305  -5.297  -7.198  0.00  0.00    -0.240 OA
ENDBRANCH  27  30
ENDBRANCH  17  18
ENDBRANCH   1  17
TORSDOF 7
