REMARK  Name = ZINC08266467
REMARK  3 active torsions:
REMARK  status: ('A' for Active; 'I' for Inactive)
REMARK    1  A    between atoms: C_1  and  C_2
REMARK    2  A    between atoms: C_7  and  C_13
REMARK    3  A    between atoms: C_13  and  N_48
REMARK                            x       y       z     vdW  Elec       q    Type
REMARK                         _______ _______ _______ _____ _____    ______ ____
ROOT
ATOM      1  C   UNL     1     -10.267  -0.235  -4.723  0.00  0.00    +0.045 C 
ATOM      2  C   UNL     1      -8.876   0.312  -4.535  0.00  0.00    -0.034 A 
ATOM      3  C   UNL     1      -7.772  -0.549  -4.593  0.00  0.00    +0.008 A 
ATOM      4  C   UNL     1      -6.517  -0.046  -4.421  0.00  0.00    +0.047 A 
ATOM      5  C   UNL     1      -6.350   1.332  -4.190  0.00  0.00    +0.140 A 
ATOM      6  N   UNL     1      -5.124   1.827  -4.027  0.00  0.00    -0.236 NA
ATOM      7  C   UNL     1      -4.926   3.116  -3.802  0.00  0.00    +0.032 A 
ATOM      8  C   UNL     1      -6.001   3.981  -3.741  0.00  0.00    +0.092 A 
ATOM      9  C   UNL     1      -7.292   3.469  -3.916  0.00  0.00    +0.258 A 
ATOM     10  O   UNL     1      -8.263   4.208  -3.867  0.00  0.00    -0.267 OA
ATOM     11  N   UNL     1      -7.447   2.147  -4.138  0.00  0.00    -0.268 N 
ATOM     12  C   UNL     1      -8.696   1.633  -4.310  0.00  0.00    +0.099 A 
ENDROOT
BRANCH   7  13
ATOM     13  C   UNL     1      -3.525   3.641  -3.618  0.00  0.00    -0.022 C 
BRANCH  13  23
ATOM     14  C   UNL     1      -3.660   3.555  -1.202  0.00  0.00    -0.078 C 
ATOM     15  C   UNL     1      -2.946   3.060   0.059  0.00  0.00    -0.015 C 
ATOM     16  C   UNL     1      -2.902   1.530   0.044  0.00  0.00    -0.011 C 
ATOM     17  C   UNL     1      -2.155   1.023   1.277  0.00  0.00    +0.004 C 
ATOM     18  C   UNL     1      -0.729   1.580   1.267  0.00  0.00    +0.000 C 
ATOM     19  C   UNL     1      -0.013   1.086   0.008  0.00  0.00    +0.000 C 
ATOM     20  C   UNL     1      -0.753   1.593  -1.231  0.00  0.00    +0.002 C 
ATOM     21  C   UNL     1      -2.188   1.060  -1.225  0.00  0.00    -0.025 C 
ATOM     22  C   UNL     1      -2.927   1.597  -2.454  0.00  0.00    -0.075 C 
ATOM     23  N   UNL     1      -2.917   3.085  -2.393  0.00  0.00    +0.384 N 
ATOM     24  H   UNL     1      -1.945   3.408  -2.326  0.00  0.00    -0.081 HD
ENDBRANCH  13  23
ENDBRANCH   7  13
TORSDOF 2
