REMARK  Name = ZINC38670959
REMARK  7 active torsions:
REMARK  status: ('A' for Active; 'I' for Inactive)
REMARK    1  A    between atoms: C_1  and  N_2
REMARK    2  A    between atoms: C_10  and  C_12
REMARK    3  A    between atoms: C_12  and  C_14
REMARK    4  A    between atoms: C_12  and  N_30
REMARK    5  A    between atoms: C_14  and  N_15
REMARK    6  A    between atoms: C_16  and  C_18
REMARK    7  A    between atoms: C_18  and  C_24
REMARK                            x       y       z     vdW  Elec       q    Type
REMARK                         _______ _______ _______ _____ _____    ______ ____
ROOT
ATOM      1  C   UNL     1       5.446  -2.786  -0.512  0.00  0.00    -0.020 C 
ENDROOT
BRANCH   1  11
ATOM      2  C   UNL     1       1.058   1.665   1.366  0.00  0.00    +0.129 C 
ATOM      3  N   UNL     1       0.963   0.207   1.255  0.00  0.00    -0.333 N 
ATOM      4  C   UNL     1      -0.288  -0.487   1.590  0.00  0.00    +0.105 C 
ATOM      5  C   UNL     1       0.070  -1.714   2.438  0.00  0.00    +0.024 C 
ATOM      6  C   UNL     1       0.923  -2.664   1.597  0.00  0.00    +0.038 C 
ATOM      7  C   UNL     1       2.079  -1.925   0.978  0.00  0.00    -0.026 A 
ATOM      8  C   UNL     1       2.059  -0.546   0.822  0.00  0.00    +0.033 A 
ATOM      9  C   UNL     1       3.139   0.105   0.236  0.00  0.00    +0.023 A 
ATOM     10  C   UNL     1       4.232  -0.620  -0.195  0.00  0.00    +0.004 A 
ATOM     11  C   UNL     1       4.252  -1.994  -0.043  0.00  0.00    -0.059 A 
ATOM     12  C   UNL     1       3.182  -2.645   0.549  0.00  0.00    +0.007 A 
ENDBRANCH   1  11
BRANCH   1  13
ATOM     13  N   UNL     1       6.677  -2.053  -0.187  0.00  0.00    +0.385 N 
ATOM     14  C   UNL     1       7.838  -2.821  -0.653  0.00  0.00    -0.078 C 
ATOM     15  C   UNL     1       9.119  -2.025  -0.390  0.00  0.00    -0.019 C 
ATOM     16  C   UNL     1       9.249  -1.759   1.112  0.00  0.00    -0.004 C 
ATOM     17  C   UNL     1       7.998  -1.024   1.601  0.00  0.00    -0.019 C 
ATOM     18  C   UNL     1       6.759  -1.856   1.265  0.00  0.00    -0.078 C 
ATOM     19  H   UNL     1       6.664  -1.155  -0.647  0.00  0.00    -0.081 HD
ENDBRANCH   1  13
BRANCH   1  20
ATOM     20  C   UNL     1       5.359  -2.992  -2.025  0.00  0.00    +0.093 C 
BRANCH  20  21
ATOM     21  N   UNL     1       5.491  -1.700  -2.702  0.00  0.00    -0.316 N 
ATOM     22  C   UNL     1       5.506  -1.643  -4.049  0.00  0.00    +0.224 C 
ATOM     23  O   UNL     1       5.317  -2.648  -4.700  0.00  0.00    -0.275 OA
ATOM     24  H   UNL     1       5.567  -0.885  -2.182  0.00  0.00    +0.149 HD
BRANCH  22  25
ATOM     25  C   UNL     1       5.758  -0.330  -4.745  0.00  0.00    +0.076 C 
ATOM     26  C   UNL     1       5.898  -0.568  -6.252  0.00  0.00    +0.049 C 
ATOM     27  C   UNL     1       7.117  -1.458  -6.509  0.00  0.00    +0.161 C 
ATOM     28  O   UNL     1       8.282  -0.837  -5.963  0.00  0.00    -0.380 OA
ATOM     29  C   UNL     1       8.227  -0.632  -4.550  0.00  0.00    +0.161 C 
ATOM     30  C   UNL     1       7.053   0.291  -4.214  0.00  0.00    +0.049 C 
BRANCH  25  31
ATOM     31  C   UNL     1       4.606   0.607  -4.486  0.00  0.00    -0.032 A 
ATOM     32  C   UNL     1       4.840   1.853  -3.936  0.00  0.00    +0.004 A 
ATOM     33  C   UNL     1       3.784   2.713  -3.698  0.00  0.00    +0.000 A 
ATOM     34  C   UNL     1       2.494   2.326  -4.010  0.00  0.00    +0.000 A 
ATOM     35  C   UNL     1       2.260   1.080  -4.561  0.00  0.00    +0.000 A 
ATOM     36  C   UNL     1       3.317   0.222  -4.803  0.00  0.00    +0.004 A 
ENDBRANCH  25  31
ENDBRANCH  22  25
ENDBRANCH  20  21
ENDBRANCH   1  20
TORSDOF 6
