REMARK  Name = ZINC03946824
REMARK  8 active torsions:
REMARK  status: ('A' for Active; 'I' for Inactive)
REMARK    1  A    between atoms: C_1  and  C_2
REMARK    2  A    between atoms: C_2  and  C_3
REMARK    3  A    between atoms: C_3  and  C_4
REMARK    4  A    between atoms: N_12  and  N_13
REMARK    5  A    between atoms: C_14  and  C_15
REMARK    6  A    between atoms: C_17  and  O_23
REMARK    7  A    between atoms: C_18  and  O_22
REMARK    8  A    between atoms: O_23  and  C_24
REMARK                            x       y       z     vdW  Elec       q    Type
REMARK                         _______ _______ _______ _____ _____    ______ ____
ROOT
ATOM      1  C   UNL     1      -9.657  -2.394   0.211  0.00  0.00    +0.050 A 
ATOM      2  C   UNL     1     -10.304  -3.183  -0.696  0.00  0.00    +0.093 A 
ATOM      3  C   UNL     1      -9.609  -3.614  -1.840  0.00  0.00    +0.253 A 
ATOM      4  O   UNL     1     -10.156  -4.321  -2.670  0.00  0.00    -0.268 OA
ATOM      5  N   UNL     1      -8.324  -3.232  -2.001  0.00  0.00    -0.294 N 
ATOM      6  H   UNL     1      -7.811  -3.526  -2.807  0.00  0.00    +0.172 HD
ATOM      7  C   UNL     1      -7.731  -2.443  -1.063  0.00  0.00    +0.216 A 
ATOM      8  N   UNL     1      -8.388  -2.048   0.010  0.00  0.00    -0.219 NA
ATOM      9  N   UNL     1      -6.427  -2.059  -1.233  0.00  0.00    -0.207 N 
ATOM     10  H   UNL     1      -5.935  -2.349  -2.017  0.00  0.00    +0.177 HD
ENDROOT
BRANCH   9  11
ATOM     11  N   UNL     1      -5.805  -1.248  -0.275  0.00  0.00    -0.188 NA
ATOM     12  C   UNL     1      -4.570  -0.884  -0.436  0.00  0.00    +0.138 C 
BRANCH  12  13
ATOM     13  C   UNL     1      -3.915  -0.031   0.572  0.00  0.00    -0.001 A 
ATOM     14  C   UNL     1      -2.585   0.362   0.400  0.00  0.00    +0.059 A 
ATOM     15  C   UNL     1      -1.976   1.163   1.348  0.00  0.00    +0.163 A 
ATOM     16  C   UNL     1      -2.686   1.572   2.475  0.00  0.00    +0.173 A 
ATOM     17  C   UNL     1      -4.008   1.187   2.644  0.00  0.00    +0.063 A 
ATOM     18  C   UNL     1      -4.623   0.388   1.702  0.00  0.00    +0.028 A 
ATOM     19 BR   UNL     1      -4.968   1.752   4.172  0.00  0.00    -0.046 Br
BRANCH  16  20
ATOM     20  O   UNL     1      -2.083   2.354   3.409  0.00  0.00    -0.503 OA
ATOM     21  H   UNL     1      -2.177   3.303   3.248  0.00  0.00    +0.292 HD
ENDBRANCH  16  20
BRANCH  15  22
ATOM     22  O   UNL     1      -0.682   1.547   1.184  0.00  0.00    -0.491 OA
ATOM     23  C   UNL     1      -0.013   1.086   0.008  0.00  0.00    +0.277 C 
ENDBRANCH  15  22
ENDBRANCH  12  13
ENDBRANCH   9  11
BRANCH   1  24
ATOM     24  C   UNL     1     -10.380  -1.920   1.446  0.00  0.00    +0.055 C 
BRANCH  24  26
ATOM     25  C   UNL     1     -10.816  -2.388   3.861  0.00  0.00    +0.004 C 
ATOM     26  C   UNL     1     -10.082  -2.870   2.608  0.00  0.00    +0.003 C 
ENDBRANCH  24  26
ENDBRANCH   1  24
TORSDOF 6
