REMARK  Name = ZINC39794012
REMARK  6 active torsions:
REMARK  status: ('A' for Active; 'I' for Inactive)
REMARK    1  A    between atoms: C_1  and  C_2
REMARK    2  A    between atoms: C_5  and  C_8
REMARK    3  A    between atoms: N_12  and  C_16
REMARK    4  A    between atoms: C_16  and  C_17
REMARK    5  A    between atoms: N_19  and  C_20
REMARK    6  A    between atoms: C_24  and  N_26
REMARK                            x       y       z     vdW  Elec       q    Type
REMARK                         _______ _______ _______ _____ _____    ______ ____
ROOT
ATOM      1  C   UNL     1       0.027  -4.792  -0.802  0.00  0.00    +0.028 C 
ATOM      2  C   UNL     1       0.172  -5.283   0.454  0.00  0.00    +0.080 C 
ATOM      3  C   UNL     1       0.308  -6.683   0.908  0.00  0.00    +0.261 C 
ATOM      4  O   UNL     1       0.303  -7.614   0.124  0.00  0.00    -0.269 OA
ATOM      5  N   UNL     1       0.435  -6.872   2.211  0.00  0.00    -0.219 N 
ATOM      6  C   UNL     1       0.440  -5.838   3.076  0.00  0.00    +0.286 C 
ATOM      7  O   UNL     1       0.548  -5.868   4.287  0.00  0.00    -0.262 OA
ATOM      8  S   UNL     1       0.257  -4.415   2.014  0.00  0.00    -0.026 S 
ENDROOT
BRANCH   1  13
ATOM      9  C   UNL     1      -1.125   0.783  -1.593  0.00  0.00    +0.044 C 
ATOM     10  C   UNL     1      -0.823  -0.679  -1.386  0.00  0.00    -0.050 A 
ATOM     11  C   UNL     1      -0.348  -1.440  -2.440  0.00  0.00    +0.004 A 
ATOM     12  C   UNL     1      -0.070  -2.778  -2.259  0.00  0.00    +0.008 A 
ATOM     13  C   UNL     1      -0.267  -3.366  -1.004  0.00  0.00    -0.024 A 
ATOM     14  C   UNL     1      -0.746  -2.589   0.057  0.00  0.00    +0.008 A 
ATOM     15  C   UNL     1      -1.015  -1.252  -0.140  0.00  0.00    +0.004 A 
ENDBRANCH   1  13
BRANCH   5  16
ATOM     16  C   UNL     1       0.575  -8.237   2.726  0.00  0.00    +0.213 C 
BRANCH  16  17
ATOM     17  C   UNL     1       2.034  -8.608   2.778  0.00  0.00    +0.235 C 
ATOM     18  O   UNL     1       2.876  -7.811   2.420  0.00  0.00    -0.274 OA
ATOM     19  N   UNL     1       2.405  -9.825   3.222  0.00  0.00    -0.284 N 
ATOM     20  H   UNL     1       1.731 -10.486   3.446  0.00  0.00    +0.155 HD
BRANCH  19  21
ATOM     21  C   UNL     1       3.762 -10.136   3.360  0.00  0.00    +0.036 A 
ATOM     22  C   UNL     1       4.210 -11.425   3.101  0.00  0.00    +0.023 A 
ATOM     23  C   UNL     1       5.551 -11.729   3.238  0.00  0.00    +0.004 A 
ATOM     24  C   UNL     1       6.446 -10.752   3.633  0.00  0.00    +0.033 A 
ATOM     25  C   UNL     1       6.003  -9.468   3.891  0.00  0.00    +0.128 A 
ATOM     26  C   UNL     1       4.665  -9.156   3.750  0.00  0.00    +0.056 A 
BRANCH  25  27
ATOM     27  N   UNL     1       6.964  -8.425   4.314  0.00  0.00    +0.056 N 
ATOM     28  O   UNL     1       8.136  -8.696   4.433  0.00  0.00    -0.126 OA
ATOM     29  O   UNL     1       6.577  -7.302   4.540  0.00  0.00    -0.126 OA
ENDBRANCH  25  27
ENDBRANCH  19  21
ENDBRANCH  16  17
ENDBRANCH   5  16
TORSDOF 5
