REMARK  Name = ZINC39487996
REMARK  8 active torsions:
REMARK  status: ('A' for Active; 'I' for Inactive)
REMARK    1  A    between atoms: C_1  and  C_2
REMARK    2  A    between atoms: C_2  and  C_32
REMARK    3  A    between atoms: N_4  and  S_22
REMARK    4  A    between atoms: N_7  and  C_8
REMARK    5  A    between atoms: C_8  and  C_9
REMARK    6  A    between atoms: C_9  and  C_16
REMARK    7  A    between atoms: S_22  and  O_25
REMARK    8  A    between atoms: O_25  and  C_26
REMARK                            x       y       z     vdW  Elec       q    Type
REMARK                         _______ _______ _______ _____ _____    ______ ____
ROOT
ATOM      1  C   UNL     1      -0.223   1.074   2.515  0.00  0.00    +0.039 C 
ATOM      2  C   UNL     1       0.459   0.120   1.532  0.00  0.00    +0.079 C 
ATOM      3  C   UNL     1       1.532   0.864   0.713  0.00  0.00    +0.169 C 
ATOM      4  N   UNL     1       2.783   0.173   1.063  0.00  0.00    -0.124 N 
ATOM      5  C   UNL     1       2.514  -0.809   1.933  0.00  0.00    +0.327 C 
ATOM      6  O   UNL     1       3.370  -1.542   2.390  0.00  0.00    -0.251 OA
ATOM      7  N   UNL     1       1.218  -0.910   2.255  0.00  0.00    -0.273 N 
ENDROOT
BRANCH   2   8
ATOM      8  C   UNL     1      -0.560  -0.515   0.620  0.00  0.00    -0.023 A 
ATOM      9  C   UNL     1      -0.555  -1.883   0.426  0.00  0.00    +0.006 A 
ATOM     10  C   UNL     1      -1.489  -2.466  -0.410  0.00  0.00    +0.000 A 
ATOM     11  C   UNL     1      -2.428  -1.680  -1.051  0.00  0.00    +0.000 A 
ATOM     12  C   UNL     1      -2.434  -0.311  -0.856  0.00  0.00    +0.000 A 
ATOM     13  C   UNL     1      -1.502   0.271  -0.017  0.00  0.00    +0.006 A 
ENDBRANCH   2   8
BRANCH   4  14
ATOM     14  S   UNL     1       4.284   0.549   0.473  0.00  0.00    +0.213 S 
ATOM     15  O   UNL     1       5.218  -0.211   1.226  0.00  0.00    -0.115 OA
ATOM     16  O   UNL     1       4.197   0.464  -0.943  0.00  0.00    -0.115 OA
BRANCH  14  17
ATOM     17  O   UNL     1       4.544   2.012   0.806  0.00  0.00    -0.331 OA
BRANCH  17  18
ATOM     18  C   UNL     1       4.759   2.248   2.127  0.00  0.00    +0.158 A 
ATOM     19  C   UNL     1       3.725   2.711   2.927  0.00  0.00    +0.048 A 
ATOM     20  C   UNL     1       3.946   2.950   4.270  0.00  0.00    +0.004 A 
ATOM     21  C   UNL     1       5.197   2.729   4.816  0.00  0.00    +0.000 A 
ATOM     22  C   UNL     1       6.229   2.268   4.020  0.00  0.00    +0.004 A 
ATOM     23  C   UNL     1       6.012   2.022   2.678  0.00  0.00    +0.048 A 
ENDBRANCH  17  18
ENDBRANCH  14  17
ENDBRANCH   4  14
BRANCH   7  24
ATOM     24  C   UNL     1       0.647  -1.892   3.181  0.00  0.00    +0.117 C 
BRANCH  24  25
ATOM     25  C   UNL     1       1.564  -2.039   4.397  0.00  0.00    -0.008 C 
ATOM     26  C   UNL     1       0.718  -2.300   5.646  0.00  0.00    +0.027 C 
ATOM     27  C   UNL     1      -0.199  -1.101   5.896  0.00  0.00    +0.120 C 
ATOM     28  N   UNL     1       0.614   0.108   6.079  0.00  0.00    -0.145 NA
ATOM     29  C   UNL     1       1.400   0.407   4.874  0.00  0.00    +0.120 C 
ATOM     30  C   UNL     1       2.364  -0.748   4.593  0.00  0.00    +0.027 C 
ATOM     31  F   UNL     1      -0.127   1.122   6.414  0.00  0.00    -0.133 F 
BRANCH  25  32
ATOM     32  C   UNL     1       2.526  -3.208   4.175  0.00  0.00    -0.003 C 
ATOM     33  C   UNL     1       1.724  -4.488   3.929  0.00  0.00    +0.004 C 
ATOM     34  C   UNL     1       2.686  -5.657   3.707  0.00  0.00    +0.000 C 
ATOM     35  C   UNL     1       3.565  -5.836   4.945  0.00  0.00    +0.000 C 
ATOM     36  C   UNL     1       4.367  -4.556   5.192  0.00  0.00    +0.000 C 
ATOM     37  C   UNL     1       3.405  -3.387   5.414  0.00  0.00    +0.004 C 
ENDBRANCH  25  32
ENDBRANCH  24  25
ENDBRANCH   7  24
TORSDOF 7
