REMARK  Name = ZINC63456911
REMARK  7 active torsions:
REMARK  status: ('A' for Active; 'I' for Inactive)
REMARK    1  A    between atoms: C_1  and  C_2
REMARK    2  A    between atoms: C_4  and  C_7
REMARK    3  A    between atoms: C_7  and  C_8
REMARK    4  A    between atoms: N_9  and  O_10
REMARK    5  A    between atoms: O_10  and  C_11
REMARK    6  A    between atoms: C_11  and  C_12
REMARK    7  A    between atoms: N_14  and  C_15
REMARK                            x       y       z     vdW  Elec       q    Type
REMARK                         _______ _______ _______ _____ _____    ______ ____
ROOT
ATOM      1  O   UNL     1      -3.447  -1.538   3.072  0.00  0.00    -0.383 OA
ENDROOT
BRANCH   1   3
ATOM      2  C   UNL     1      -2.894  -2.792   1.168  0.00  0.00    +0.138 C 
ATOM      3  N   UNL     1      -2.597  -1.830   1.978  0.00  0.00    -0.073 NA
ATOM      4  N   UNL     1      -4.037  -3.534   1.370  0.00  0.00    -0.344 N 
ATOM      5  H   UNL     1      -4.260  -4.256   0.762  0.00  0.00    +0.144 HD
ATOM      6  H   UNL     1      -4.619  -3.334   2.120  0.00  0.00    +0.144 HD
BRANCH   2   7
ATOM      7  C   UNL     1      -1.990  -3.103   0.004  0.00  0.00    +0.130 C 
BRANCH   7  11
ATOM      8  C   UNL     1       0.015   1.482   0.029  0.00  0.00    +0.073 C 
ATOM      9  C   UNL     1       0.028  -0.025   0.021  0.00  0.00    +0.076 A 
ATOM     10  N   UNL     1      -0.992  -0.847   0.016  0.00  0.00    -0.249 NA
ATOM     11  C   UNL     1      -0.819  -2.154   0.009  0.00  0.00    +0.056 A 
ATOM     12  C   UNL     1       0.461  -2.605   0.007  0.00  0.00    +0.070 A 
ATOM     13  S   UNL     1       1.355  -1.060   0.009  0.00  0.00    -0.081 S 
ENDBRANCH   7  11
ENDBRANCH   2   7
ENDBRANCH   1   3
BRANCH   1  14
ATOM     14  C   UNL     1      -2.997  -0.451   3.883  0.00  0.00    +0.358 C 
BRANCH  14  15
ATOM     15  C   UNL     1      -3.971  -0.229   5.012  0.00  0.00    +0.258 C 
ATOM     16  O   UNL     1      -4.954  -0.933   5.111  0.00  0.00    -0.272 OA
ATOM     17  N   UNL     1      -3.751   0.751   5.910  0.00  0.00    -0.283 N 
ATOM     18  H   UNL     1      -2.932   1.270   5.870  0.00  0.00    +0.155 HD
BRANCH  17  19
ATOM     19  C   UNL     1      -4.702   1.020   6.900  0.00  0.00    +0.034 A 
ATOM     20  C   UNL     1      -4.916   2.325   7.323  0.00  0.00    +0.024 A 
ATOM     21  C   UNL     1      -5.856   2.588   8.300  0.00  0.00    +0.017 A 
ATOM     22  C   UNL     1      -6.585   1.553   8.857  0.00  0.00    +0.018 A 
ATOM     23  C   UNL     1      -6.375   0.251   8.437  0.00  0.00    +0.017 A 
ATOM     24  C   UNL     1      -5.439  -0.017   7.457  0.00  0.00    +0.024 A 
ATOM     25 BR   UNL     1      -7.871   1.916  10.195  0.00  0.00    -0.050 Br
ENDBRANCH  17  19
ENDBRANCH  14  15
ENDBRANCH   1  14
TORSDOF 6
