REMARK  Name = ZINC31412325
REMARK  6 active torsions:
REMARK  status: ('A' for Active; 'I' for Inactive)
REMARK    1  A    between atoms: C_1  and  C_2
REMARK    2  A    between atoms: C_5  and  C_8
REMARK    3  A    between atoms: C_10  and  C_13
REMARK    4  A    between atoms: C_13  and  S_14
REMARK    5  A    between atoms: S_14  and  C_15
REMARK    6  A    between atoms: C_15  and  C_16
REMARK                            x       y       z     vdW  Elec       q    Type
REMARK                         _______ _______ _______ _____ _____    ______ ____
ROOT
ATOM      1  S   UNL     1      -3.035   1.162   1.730  0.00  0.00    -0.147 S 
ENDROOT
BRANCH   1   2
ATOM      2  C   UNL     1      -2.477   1.389   0.019  0.00  0.00    +0.125 C 
BRANCH   2   5
ATOM      3  C   UNL     1       0.362   3.728   0.018  0.00  0.00    +0.109 A 
ATOM      4  N   UNL     1      -0.865   3.226   0.027  0.00  0.00    -0.243 NA
ATOM      5  C   UNL     1      -1.071   1.930   0.017  0.00  0.00    +0.059 A 
ATOM      6  C   UNL     1      -0.013   1.076   0.008  0.00  0.00    +0.071 A 
ATOM      7  S   UNL     1       1.348   2.236   0.001  0.00  0.00    -0.075 S 
BRANCH   3  12
ATOM      8  C   UNL     1       2.057   9.227   0.031  0.00  0.00    +0.044 C 
ATOM      9  C   UNL     1       1.613   7.787   0.028  0.00  0.00    -0.050 A 
ATOM     10  C   UNL     1       2.557   6.776   0.014  0.00  0.00    +0.004 A 
ATOM     11  C   UNL     1       2.157   5.455   0.010  0.00  0.00    +0.011 A 
ATOM     12  C   UNL     1       0.798   5.141   0.021  0.00  0.00    +0.007 A 
ATOM     13  C   UNL     1      -0.149   6.166   0.030  0.00  0.00    +0.011 A 
ATOM     14  C   UNL     1       0.264   7.482   0.039  0.00  0.00    +0.004 A 
ENDBRANCH   3  12
ENDBRANCH   2   5
ENDBRANCH   1   2
BRANCH   1  15
ATOM     15  C   UNL     1      -4.721   0.515   1.560  0.00  0.00    +0.145 C 
BRANCH  15  16
ATOM     16  C   UNL     1      -5.309   0.280   2.927  0.00  0.00    +0.146 A 
ATOM     17  N   UNL     1      -5.160  -0.894   3.515  0.00  0.00    -0.199 NA
ATOM     18  C   UNL     1      -5.674  -1.105   4.725  0.00  0.00    +0.217 A 
ATOM     19  N   UNL     1      -6.346  -0.136   5.337  0.00  0.00    -0.181 NA
ATOM     20  C   UNL     1      -6.499   1.041   4.740  0.00  0.00    +0.217 A 
ATOM     21  N   UNL     1      -5.977   1.246   3.533  0.00  0.00    -0.199 NA
ATOM     22  N   UNL     1      -7.197   2.050   5.371  0.00  0.00    -0.327 N 
ATOM     23  N   UNL     1      -5.513  -2.329   5.341  0.00  0.00    -0.327 N 
ATOM     24  H   UNL     1      -7.322   3.025   4.877  0.00  0.00    +0.145 HD
ATOM     25  H   UNL     1      -7.628   1.881   6.369  0.00  0.00    +0.145 HD
ATOM     26  H   UNL     1      -5.938  -2.502   6.340  0.00  0.00    +0.145 HD
ATOM     27  H   UNL     1      -4.960  -3.132   4.832  0.00  0.00    +0.145 HD
ENDBRANCH  15  16
ENDBRANCH   1  15
TORSDOF 5
