REMARK  Name = ZINC63270917
REMARK  2 active torsions:
REMARK  status: ('A' for Active; 'I' for Inactive)
REMARK    1  A    between atoms: C_17  and  C_19
REMARK    2  A    between atoms: C_19  and  N_20
REMARK                            x       y       z     vdW  Elec       q    Type
REMARK                         _______ _______ _______ _____ _____    ______ ____
ROOT
ATOM      1  N   UNL     1       1.886   0.874   4.951  0.00  0.00    -0.291 N 
ATOM      2  C   UNL     1       0.980   1.535   5.699  0.00  0.00    +0.303 C 
ATOM      3  O   UNL     1       0.753   2.710   5.481  0.00  0.00    -0.253 OA
ATOM      4  N   UNL     1       0.327   0.894   6.688  0.00  0.00    -0.283 N 
ATOM      5  C   UNL     1       0.691  -0.486   7.023  0.00  0.00    +0.114 C 
ATOM      6  C   UNL     1      -0.547  -1.391   6.885  0.00  0.00    +0.052 C 
ATOM      7  C   UNL     1      -1.688  -0.668   7.558  0.00  0.00    -0.035 C 
ATOM      8  C   UNL     1      -2.549  -1.060   8.489  0.00  0.00    +0.001 A 
ATOM      9  C   UNL     1      -2.776  -2.369   9.123  0.00  0.00    +0.030 A 
ATOM     10  C   UNL     1      -3.747  -2.413  10.074  0.00  0.00    +0.042 A 
ATOM     11  C   UNL     1      -4.506  -1.300  10.452  0.00  0.00    +0.022 A 
ATOM     12  C   UNL     1      -4.370  -0.061   9.915  0.00  0.00    +0.027 A 
ATOM     13  C   UNL     1      -3.385   0.109   8.898  0.00  0.00    +0.043 A 
ATOM     14  N   UNL     1      -3.062   1.162   8.207  0.00  0.00    -0.376 N 
ATOM     15  C   UNL     1      -2.034   0.782   7.239  0.00  0.00    +0.124 C 
ATOM     16  C   UNL     1      -0.740   1.589   7.425  0.00  0.00    +0.138 C 
ATOM     17 CL   UNL     1      -4.063  -3.929  10.859  0.00  0.00    -0.084 Cl
ATOM     18  H   UNL     1       2.121  -0.041   5.170  0.00  0.00    +0.151 HD
ATOM     19  H   UNL     1      -3.440   2.049   8.316  0.00  0.00    +0.160 HD
ENDROOT
BRANCH   1  20
ATOM     20  C   UNL     1       2.515   1.538   3.806  0.00  0.00    +0.201 C 
BRANCH  20  35
ATOM     21  C   UNL     1      -0.027   1.366   0.011  0.00  0.00    +0.007 A 
ATOM     22  C   UNL     1       1.190   2.057   0.002  0.00  0.00    +0.022 A 
ATOM     23  C   UNL     1       2.368   1.381  -0.048  0.00  0.00    +0.027 A 
ATOM     24  N   UNL     1       2.381   0.031  -0.146  0.00  0.00    -0.312 N 
ATOM     25  C   UNL     1       1.222  -0.665  -0.038  0.00  0.00    +0.251 A 
ATOM     26  O   UNL     1       1.252  -1.883   0.024  0.00  0.00    -0.268 OA
ATOM     27  C   UNL     1      -0.010   0.002   0.003  0.00  0.00    +0.070 A 
ATOM     28  C   UNL     1       3.593  -0.739  -0.427  0.00  0.00    +0.130 C 
ATOM     29  C   UNL     1       4.857   0.032  -0.095  0.00  0.00    +0.027 C 
ATOM     30  C   UNL     1       4.774   1.443  -0.678  0.00  0.00    +0.018 C 
ATOM     31  C   UNL     1       3.641   2.192   0.028  0.00  0.00    +0.054 C 
ATOM     32  C   UNL     1       4.012   2.341   1.513  0.00  0.00    +0.117 C 
ATOM     33  N   UNL     1       4.179   0.985   2.061  0.00  0.00    -0.299 N 
ATOM     34  C   UNL     1       5.114   0.089   1.405  0.00  0.00    +0.113 C 
ATOM     35  C   UNL     1       3.480   0.589   3.143  0.00  0.00    +0.233 C 
ATOM     36  O   UNL     1       3.628  -0.531   3.584  0.00  0.00    -0.274 OA
ENDBRANCH  20  35
ENDBRANCH   1  20
TORSDOF 2
