REMARK  Name = ZINC09310046
REMARK  6 active torsions:
REMARK  status: ('A' for Active; 'I' for Inactive)
REMARK    1  A    between atoms: C_1  and  C_2
REMARK    2  A    between atoms: C_6  and  N_8
REMARK    3  A    between atoms: C_12  and  C_13
REMARK    4  A    between atoms: C_16  and  C_18
REMARK    5  A    between atoms: C_20  and  N_25
REMARK    6  A    between atoms: C_23  and  C_24
REMARK                            x       y       z     vdW  Elec       q    Type
REMARK                         _______ _______ _______ _____ _____    ______ ____
ROOT
ATOM      1  N   UNL     1      -2.915  -1.617   3.899  0.00  0.00    -0.190 N 
ATOM      2  C   UNL     1      -2.811  -1.826   2.571  0.00  0.00    +0.264 C 
ATOM      3  O   UNL     1      -3.049  -0.935   1.777  0.00  0.00    -0.269 OA
ATOM      4  C   UNL     1      -2.407  -3.164   2.106  0.00  0.00    +0.103 C 
ATOM      5  C   UNL     1      -2.285  -3.456   0.750  0.00  0.00    +0.064 C 
ATOM      6  C   UNL     1      -2.133  -4.178   3.139  0.00  0.00    +0.257 C 
ATOM      7  O   UNL     1      -1.789  -5.304   2.832  0.00  0.00    -0.270 OA
ATOM      8  N   UNL     1      -2.272  -3.825   4.433  0.00  0.00    -0.235 N 
ATOM      9  C   UNL     1      -2.649  -2.587   4.784  0.00  0.00    +0.320 C 
ATOM     10  O   UNL     1      -2.757  -2.332   5.968  0.00  0.00    -0.251 OA
ATOM     11  H   UNL     1      -2.095  -4.481   5.125  0.00  0.00    +0.159 HD
ENDROOT
BRANCH   1  17
ATOM     12  C   UNL     1      -1.687   2.904   5.397  0.00  0.00    +0.044 C 
ATOM     13  C   UNL     1      -2.728   1.856   5.098  0.00  0.00    -0.049 A 
ATOM     14  C   UNL     1      -4.068   2.142   5.283  0.00  0.00    +0.003 A 
ATOM     15  C   UNL     1      -5.027   1.184   5.010  0.00  0.00    +0.002 A 
ATOM     16  C   UNL     1      -4.648  -0.061   4.545  0.00  0.00    +0.024 A 
ATOM     17  C   UNL     1      -3.303  -0.353   4.364  0.00  0.00    +0.046 A 
ATOM     18  C   UNL     1      -2.343   0.612   4.640  0.00  0.00    +0.027 A 
ENDBRANCH   1  17
BRANCH   5  19
ATOM     19  C   UNL     1      -2.730  -2.535  -0.208  0.00  0.00    +0.129 A 
ATOM     20  C   UNL     1      -2.117  -2.265  -1.425  0.00  0.00    +0.050 A 
ATOM     21  C   UNL     1      -2.888  -1.292  -2.056  0.00  0.00    +0.050 A 
ATOM     22  C   UNL     1      -3.940  -0.999  -1.212  0.00  0.00    +0.136 A 
ATOM     23  O   UNL     1      -3.825  -1.752  -0.105  0.00  0.00    -0.455 OA
BRANCH  22  24
ATOM     24  C   UNL     1      -5.010  -0.019  -1.479  0.00  0.00    +0.022 A 
ATOM     25  C   UNL     1      -4.688   1.278  -1.890  0.00  0.00    +0.044 A 
ATOM     26  C   UNL     1      -5.694   2.188  -2.137  0.00  0.00    +0.127 A 
ATOM     27  C   UNL     1      -7.019   1.821  -1.980  0.00  0.00    +0.033 A 
ATOM     28  C   UNL     1      -7.345   0.539  -1.574  0.00  0.00    +0.006 A 
ATOM     29  C   UNL     1      -6.351  -0.385  -1.329  0.00  0.00    -0.040 A 
ATOM     30  C   UNL     1      -6.708  -1.782  -0.893  0.00  0.00    +0.044 C 
BRANCH  26  31
ATOM     31  N   UNL     1      -5.355   3.562  -2.572  0.00  0.00    +0.056 N 
ATOM     32  O   UNL     1      -4.189   3.887  -2.710  0.00  0.00    -0.126 OA
ATOM     33  O   UNL     1      -6.242   4.368  -2.791  0.00  0.00    -0.126 OA
ENDBRANCH  26  31
ENDBRANCH  22  24
ENDBRANCH   5  19
TORSDOF 4
