REMARK  Name = ZINC39440998
REMARK  8 active torsions:
REMARK  status: ('A' for Active; 'I' for Inactive)
REMARK    1  A    between atoms: C_1  and  C_2
REMARK    2  A    between atoms: C_2  and  C_4
REMARK    3  A    between atoms: C_2  and  O_13
REMARK    4  A    between atoms: N_9  and  C_10
REMARK    5  A    between atoms: C_10  and  C_11
REMARK    6  A    between atoms: C_10  and  C_12
REMARK    7  A    between atoms: O_13  and  C_14
REMARK    8  A    between atoms: C_14  and  C_16
REMARK                            x       y       z     vdW  Elec       q    Type
REMARK                         _______ _______ _______ _____ _____    ______ ____
ROOT
ATOM      1  C   UNL     1       2.023  -0.663   1.045  0.00  0.00    +0.340 C 
ATOM      2  O   UNL     1       2.581  -0.429  -0.009  0.00  0.00    -0.245 OA
ENDROOT
BRANCH   1   3
ATOM      3  C   UNL     1       2.801  -1.149   2.198  0.00  0.00    +0.060 A 
ATOM      4  C   UNL     1       2.117  -1.431   3.455  0.00  0.00    +0.017 A 
ATOM      5  C   UNL     1       2.793  -1.882   4.531  0.00  0.00    +0.027 A 
ATOM      6  C   UNL     1       4.241  -2.095   4.447  0.00  0.00    +0.043 A 
ATOM      7  N   UNL     1       5.107  -2.500   5.347  0.00  0.00    -0.378 N 
ATOM      8  C   UNL     1       6.417  -2.615   4.714  0.00  0.00    +0.106 C 
ATOM      9  C   UNL     1       7.482  -1.774   5.423  0.00  0.00    +0.029 C 
ATOM     10  C   UNL     1       8.732  -1.726   4.538  0.00  0.00    +0.003 C 
ATOM     11  C   UNL     1       8.455  -0.984   3.232  0.00  0.00    +0.004 C 
ATOM     12  C   UNL     1       7.409  -1.751   2.405  0.00  0.00    +0.033 C 
ATOM     13  C   UNL     1       6.241  -2.047   3.317  0.00  0.00    -0.038 C 
ATOM     14  C   UNL     1       4.928  -1.797   3.166  0.00  0.00    -0.000 A 
ATOM     15  C   UNL     1       4.159  -1.333   2.066  0.00  0.00    +0.025 A 
ATOM     16  H   UNL     1       4.910  -2.691   6.278  0.00  0.00    +0.160 HD
ENDBRANCH   1   3
BRANCH   1  17
ATOM     17  O   UNL     1       0.693  -0.477   1.160  0.00  0.00    -0.449 OA
BRANCH  17  19
ATOM     18  C   UNL     1      -0.019   1.526   0.010  0.00  0.00    +0.062 C 
ATOM     19  C   UNL     1       0.002  -0.004   0.002  0.00  0.00    +0.259 C 
BRANCH  19  20
ATOM     20  C   UNL     1      -1.412  -0.526   0.013  0.00  0.00    +0.261 C 
ATOM     21  O   UNL     1      -1.818  -1.157   0.965  0.00  0.00    -0.271 OA
ATOM     22  N   UNL     1      -2.225  -0.290  -1.036  0.00  0.00    -0.237 N 
ATOM     23  C   UNL     1      -3.489  -0.757  -1.027  0.00  0.00    +0.306 C 
ATOM     24  O   UNL     1      -3.896  -1.390  -0.072  0.00  0.00    -0.252 OA
ATOM     25  N   UNL     1      -4.302  -0.522  -2.075  0.00  0.00    -0.297 N 
ATOM     26  H   UNL     1      -1.900   0.215  -1.798  0.00  0.00    +0.159 HD
ATOM     27  H   UNL     1      -3.977  -0.017  -2.837  0.00  0.00    +0.151 HD
BRANCH  25  28
ATOM     28  C   UNL     1      -5.677  -1.029  -2.065  0.00  0.00    +0.068 C 
ATOM     29  C   UNL     1      -6.546  -0.164  -2.979  0.00  0.00    +0.027 C 
ATOM     30  C   UNL     1      -5.691  -2.474  -2.566  0.00  0.00    +0.027 C 
ENDBRANCH  25  28
ENDBRANCH  19  20
ENDBRANCH  17  19
ENDBRANCH   1  17
TORSDOF 5
