REMARK  Name = ZINC63059387
REMARK  5 active torsions:
REMARK  status: ('A' for Active; 'I' for Inactive)
REMARK    1  A    between atoms: C_1  and  C_2
REMARK    2  A    between atoms: C_4  and  C_10
REMARK    3  A    between atoms: C_7  and  N_8
REMARK    4  A    between atoms: N_8  and  N_9
REMARK    5  A    between atoms: N_12  and  C_13
REMARK                            x       y       z     vdW  Elec       q    Type
REMARK                         _______ _______ _______ _____ _____    ______ ____
ROOT
ATOM      1  C   UNL     1      -1.024  -3.512  -1.990  0.00  0.00    +0.248 C 
ATOM      2  O   UNL     1      -2.052  -3.453  -2.637  0.00  0.00    -0.270 OA
ATOM      3  N   UNL     1       0.047  -4.163  -2.486  0.00  0.00    -0.279 N 
ATOM      4  H   UNL     1       0.889  -4.149  -2.004  0.00  0.00    +0.155 HD
ENDROOT
BRANCH   3   5
ATOM      5  C   UNL     1      -0.055  -4.860  -3.696  0.00  0.00    +0.071 A 
ATOM      6  C   UNL     1      -0.455  -6.191  -3.701  0.00  0.00    +0.065 A 
ATOM      7  C   UNL     1      -0.555  -6.876  -4.897  0.00  0.00    +0.037 A 
ATOM      8  C   UNL     1      -0.257  -6.239  -6.088  0.00  0.00    +0.021 A 
ATOM      9  C   UNL     1       0.142  -4.914  -6.086  0.00  0.00    +0.037 A 
ATOM     10  C   UNL     1       0.238  -4.221  -4.894  0.00  0.00    +0.065 A 
ATOM     11 CL   UNL     1       0.731  -2.557  -4.894  0.00  0.00    -0.082 Cl
ATOM     12 BR   UNL     1      -0.394  -7.181  -7.722  0.00  0.00    -0.050 Br
ATOM     13 CL   UNL     1      -0.828  -6.992  -2.207  0.00  0.00    -0.082 Cl
ENDBRANCH   3   5
BRANCH   1  17
ATOM     14  C   UNL     1      -3.182  -0.871   1.645  0.00  0.00    +0.046 C 
ATOM     15  C   UNL     1      -1.986  -1.600   1.089  0.00  0.00    -0.028 A 
ATOM     16  C   UNL     1      -2.059  -2.196  -0.149  0.00  0.00    +0.018 A 
ATOM     17  C   UNL     1      -0.949  -2.872  -0.664  0.00  0.00    +0.037 A 
ATOM     18  C   UNL     1       0.232  -2.939   0.081  0.00  0.00    +0.015 A 
ATOM     19  C   UNL     1       0.299  -2.341   1.318  0.00  0.00    +0.025 A 
ATOM     20  C   UNL     1      -0.807  -1.664   1.826  0.00  0.00    +0.044 A 
BRANCH  20  21
ATOM     21  N   UNL     1      -0.735  -1.056   3.075  0.00  0.00    -0.283 N 
ATOM     22  H   UNL     1      -1.506  -0.587   3.431  0.00  0.00    +0.166 HD
BRANCH  21  23
ATOM     23  N   UNL     1       0.422  -1.118   3.799  0.00  0.00    -0.257 NA
ATOM     24  H   UNL     1       1.200  -0.753   3.270  0.00  0.00    +0.140 HD
ATOM     25  H   UNL     1       0.324  -0.634   4.679  0.00  0.00    +0.140 HD
ENDBRANCH  21  23
ENDBRANCH  20  21
ENDBRANCH   1  17
TORSDOF 4
