REMARK  Name = ZINC04322240
REMARK  4 active torsions:
REMARK  status: ('A' for Active; 'I' for Inactive)
REMARK    1  A    between atoms: C_4  and  N_7
REMARK    2  A    between atoms: N_18  and  N_19
REMARK    3  A    between atoms: C_20  and  C_21
REMARK    4  A    between atoms: C_26  and  O_27
REMARK                            x       y       z     vdW  Elec       q    Type
REMARK                         _______ _______ _______ _____ _____    ______ ____
ROOT
ATOM      1  N   UNL     1       3.621  -0.684  -0.253  0.00  0.00    -0.247 N 
ATOM      2  C   UNL     1       4.777   0.011  -0.366  0.00  0.00    +0.267 A 
ATOM      3  O   UNL     1       4.776   1.197  -0.638  0.00  0.00    -0.267 OA
ATOM      4  C   UNL     1       6.032  -0.720  -0.147  0.00  0.00    +0.065 A 
ATOM      5  C   UNL     1       7.275  -0.095  -0.240  0.00  0.00    +0.015 A 
ATOM      6  C   UNL     1       8.413  -0.822  -0.027  0.00  0.00    +0.001 A 
ATOM      7  C   UNL     1       8.344  -2.175   0.281  0.00  0.00    +0.002 A 
ATOM      8  C   UNL     1       7.139  -2.813   0.378  0.00  0.00    +0.028 A 
ATOM      9  C   UNL     1       5.957  -2.097   0.166  0.00  0.00    +0.080 A 
ATOM     10  N   UNL     1       4.749  -2.687   0.253  0.00  0.00    -0.214 NA
ATOM     11  C   UNL     1       3.641  -2.016   0.060  0.00  0.00    +0.223 A 
ATOM     12  N   UNL     1       2.445  -2.680   0.170  0.00  0.00    -0.206 N 
ATOM     13  H   UNL     1       1.610  -2.190   0.105  0.00  0.00    +0.177 HD
ENDROOT
BRANCH   1  17
ATOM     14  C   UNL     1      -0.023   1.250  -0.845  0.00  0.00    +0.000 A 
ATOM     15  C   UNL     1       0.540   1.210   0.418  0.00  0.00    +0.002 A 
ATOM     16  C   UNL     1       1.748   0.570   0.617  0.00  0.00    +0.026 A 
ATOM     17  C   UNL     1       2.396  -0.035  -0.452  0.00  0.00    +0.053 A 
ATOM     18  C   UNL     1       1.828   0.007  -1.718  0.00  0.00    +0.026 A 
ATOM     19  C   UNL     1       0.621   0.649  -1.911  0.00  0.00    +0.002 A 
ENDBRANCH   1  17
BRANCH  12  20
ATOM     20  N   UNL     1       2.430  -4.066   0.375  0.00  0.00    -0.187 NA
ATOM     21  C   UNL     1       1.298  -4.694   0.479  0.00  0.00    +0.142 C 
BRANCH  21  22
ATOM     22  C   UNL     1       1.283  -6.152   0.696  0.00  0.00    +0.036 A 
ATOM     23  C   UNL     1       0.068  -6.833   0.802  0.00  0.00    +0.013 A 
ATOM     24  C   UNL     1       0.060  -8.197   1.004  0.00  0.00    +0.001 A 
ATOM     25  C   UNL     1       1.251  -8.896   1.102  0.00  0.00    +0.004 A 
ATOM     26  C   UNL     1       2.460  -8.233   0.998  0.00  0.00    +0.046 A 
ATOM     27  C   UNL     1       2.486  -6.864   0.789  0.00  0.00    +0.125 A 
BRANCH  27  28
ATOM     28  O   UNL     1       3.674  -6.213   0.682  0.00  0.00    -0.506 OA
ATOM     29  H   UNL     1       4.026  -5.895   1.524  0.00  0.00    +0.292 HD
ENDBRANCH  27  28
ENDBRANCH  21  22
ENDBRANCH  12  20
TORSDOF 4
