REMARK  Name = ZINC13639997
REMARK  7 active torsions:
REMARK  status: ('A' for Active; 'I' for Inactive)
REMARK    1  A    between atoms: C_4  and  C_7
REMARK    2  A    between atoms: C_7  and  C_8
REMARK    3  A    between atoms: C_8  and  N_9
REMARK    4  A    between atoms: C_10  and  C_12
REMARK    5  A    between atoms: C_19  and  C_28
REMARK    6  A    between atoms: C_31  and  O_35
REMARK    7  A    between atoms: C_33  and  O_34
REMARK                            x       y       z     vdW  Elec       q    Type
REMARK                         _______ _______ _______ _____ _____    ______ ____
ROOT
ATOM      1  C   UNL     1       2.274   2.581  -0.214  0.00  0.00    +0.058 A 
ATOM      2  C   UNL     1       2.736   3.894  -0.313  0.00  0.00    +0.015 A 
ATOM      3  C   UNL     1       4.085   4.151  -0.210  0.00  0.00    +0.001 A 
ATOM      4  C   UNL     1       4.978   3.115  -0.007  0.00  0.00    +0.006 A 
ATOM      5  C   UNL     1       4.539   1.803   0.096  0.00  0.00    -0.019 A 
ATOM      6  C   UNL     1       3.185   1.529  -0.003  0.00  0.00    +0.044 A 
ATOM      7  N   UNL     1       2.686   0.236   0.046  0.00  0.00    -0.336 N 
ATOM      8  C   UNL     1       3.546  -0.652   0.829  0.00  0.00    +0.108 C 
ATOM      9  C   UNL     1       4.947  -0.677   0.212  0.00  0.00    +0.029 C 
ATOM     10  C   UNL     1       5.566   0.732   0.321  0.00  0.00    +0.049 C 
ATOM     11  C   UNL     1       6.112   0.806   1.728  0.00  0.00    -0.023 C 
ATOM     12  C   UNL     1       6.284  -0.396   2.217  0.00  0.00    -0.030 C 
ATOM     13  C   UNL     1       5.885  -1.446   1.200  0.00  0.00    +0.033 C 
ATOM     14  H   UNL     1       1.743   0.233   0.403  0.00  0.00    +0.147 HD
ENDROOT
BRANCH   8  15
ATOM     15  C   UNL     1       3.631  -0.147   2.247  0.00  0.00    +0.015 A 
ATOM     16  C   UNL     1       3.595   1.211   2.499  0.00  0.00    +0.012 A 
ATOM     17  C   UNL     1       3.668   1.677   3.798  0.00  0.00    +0.046 A 
ATOM     18  C   UNL     1       3.787   0.781   4.852  0.00  0.00    +0.120 A 
ATOM     19  C   UNL     1       3.829  -0.581   4.601  0.00  0.00    +0.091 A 
ATOM     20  C   UNL     1       3.750  -1.046   3.297  0.00  0.00    +0.125 A 
BRANCH  20  21
ATOM     21  O   UNL     1       3.791  -2.381   3.047  0.00  0.00    -0.506 OA
ATOM     22  H   UNL     1       4.685  -2.748   3.013  0.00  0.00    +0.292 HD
ENDBRANCH  20  21
BRANCH  18  23
ATOM     23  O   UNL     1       3.863   1.240   6.129  0.00  0.00    -0.507 OA
ATOM     24  H   UNL     1       4.765   1.412   6.432  0.00  0.00    +0.292 HD
ENDBRANCH  18  23
ENDBRANCH   8  15
BRANCH   1  26
ATOM     25  N   UNL     1      -0.053   3.312  -0.386  0.00  0.00    -0.311 N 
ATOM     26  C   UNL     1       0.832   2.297  -0.324  0.00  0.00    +0.246 C 
ATOM     27  O   UNL     1       0.440   1.146  -0.363  0.00  0.00    -0.270 OA
ATOM     28  H   UNL     1       0.260   4.230  -0.354  0.00  0.00    +0.149 HD
BRANCH  25  29
ATOM     29  C   UNL     1      -1.486   3.030  -0.501  0.00  0.00    +0.109 C 
BRANCH  29  30
ATOM     30  C   UNL     1      -2.263   4.347  -0.552  0.00  0.00    +0.054 C 
BRANCH  30  34
ATOM     31  C   UNL     1      -6.441   3.523  -0.888  0.00  0.00    +0.000 A 
ATOM     32  C   UNL     1      -5.859   3.647   0.360  0.00  0.00    +0.000 A 
ATOM     33  C   UNL     1      -4.507   3.914   0.469  0.00  0.00    +0.004 A 
ATOM     34  C   UNL     1      -3.737   4.056  -0.671  0.00  0.00    -0.046 A 
ATOM     35  C   UNL     1      -4.320   3.937  -1.918  0.00  0.00    +0.004 A 
ATOM     36  C   UNL     1      -5.671   3.666  -2.027  0.00  0.00    +0.000 A 
ENDBRANCH  30  34
ENDBRANCH  29  30
ENDBRANCH  25  29
ENDBRANCH   1  26
TORSDOF 7
