REMARK  Name = ZINC41685921
REMARK  5 active torsions:
REMARK  status: ('A' for Active; 'I' for Inactive)
REMARK    1  A    between atoms: C_1  and  C_2
REMARK    2  A    between atoms: N_5  and  C_11
REMARK    3  A    between atoms: C_7  and  C_9
REMARK    4  A    between atoms: C_7  and  C_10
REMARK    5  A    between atoms: C_11  and  C_17
REMARK                            x       y       z     vdW  Elec       q    Type
REMARK                         _______ _______ _______ _____ _____    ______ ____
ROOT
ATOM      1  C   UNL     1      -0.446   1.469  -0.207  0.00  0.00    +0.036 C 
ATOM      2  C   UNL     1      -0.183  -0.033  -0.090  0.00  0.00    +0.099 C 
ATOM      3  C   UNL     1       0.510  -0.532  -1.360  0.00  0.00    -0.045 C 
ATOM      4  N   UNL     1       0.813  -1.963  -1.221  0.00  0.00    +0.394 N 
ATOM      5  C   UNL     1       1.700  -2.164  -0.066  0.00  0.00    -0.042 C 
ATOM      6  C   UNL     1       1.004  -1.663   1.202  0.00  0.00    +0.050 C 
ATOM      7  O   UNL     1       0.660  -0.284   1.038  0.00  0.00    -0.375 OA
ATOM      8  C   UNL     1      -0.267  -2.480   1.445  0.00  0.00    +0.039 C 
ATOM      9  C   UNL     1       1.947  -1.816   2.397  0.00  0.00    +0.039 C 
ATOM     10  H   UNL     1      -0.044  -2.476  -1.081  0.00  0.00    -0.080 HD
ENDROOT
BRANCH   4  11
ATOM     11  C   UNL     1       1.479  -2.443  -2.439  0.00  0.00    +0.042 C 
ATOM     12  C   UNL     1       2.844  -1.763  -2.580  0.00  0.00    +0.027 C 
ATOM     13  C   UNL     1       3.495  -2.210  -3.891  0.00  0.00    +0.159 C 
ATOM     14  O   UNL     1       2.633  -1.889  -4.984  0.00  0.00    -0.380 OA
ATOM     15  C   UNL     1       1.359  -2.534  -4.931  0.00  0.00    +0.159 C 
ATOM     16  C   UNL     1       0.621  -2.100  -3.661  0.00  0.00    +0.027 C 
BRANCH  11  17
ATOM     17  C   UNL     1       1.664  -3.937  -2.357  0.00  0.00    +0.346 C 
ATOM     18  O   UNL     1       1.180  -4.561  -1.428  0.00  0.00    -0.248 OA
ATOM     19  O   UNL     1       2.297  -4.521  -3.219  0.00  0.00    -0.248 OA
ENDBRANCH  11  17
ENDBRANCH   4  11
TORSDOF 2
