REMARK  Name = ZINC13736450
REMARK  5 active torsions:
REMARK  status: ('A' for Active; 'I' for Inactive)
REMARK    1  A    between atoms: C_3  and  C_9
REMARK    2  A    between atoms: C_12  and  C_14
REMARK    3  A    between atoms: C_14  and  N_39
REMARK    4  A    between atoms: C_15  and  C_16
REMARK    5  A    between atoms: C_15  and  N_39
REMARK                            x       y       z     vdW  Elec       q    Type
REMARK                         _______ _______ _______ _____ _____    ______ ____
ROOT
ATOM      1  C   UNL     1       1.279   1.815  -0.000  0.00  0.00    +0.136 A 
ATOM      2  C   UNL     1      -0.017   1.405   0.010  0.00  0.00    +0.050 A 
ATOM      3  C   UNL     1       0.002  -0.004   0.002  0.00  0.00    +0.043 A 
ATOM      4  C   UNL     1       1.295  -0.381  -0.012  0.00  0.00    +0.089 A 
ATOM      5  O   UNL     1       2.064   0.720  -0.014  0.00  0.00    -0.462 OA
ENDROOT
BRANCH   1   8
ATOM      6  C   UNL     1       1.663   5.439  -0.905  0.00  0.00    +0.016 A 
ATOM      7  C   UNL     1       1.227   4.130  -0.916  0.00  0.00    +0.014 A 
ATOM      8  C   UNL     1       1.746   3.217   0.003  0.00  0.00    +0.031 A 
ATOM      9  C   UNL     1       2.713   3.632   0.921  0.00  0.00    +0.030 A 
ATOM     10  C   UNL     1       3.145   4.943   0.918  0.00  0.00    +0.031 A 
ATOM     11  C   UNL     1       2.622   5.845   0.007  0.00  0.00    +0.019 A 
ATOM     12 BR   UNL     1       3.219   7.639   0.010  0.00  0.00    -0.050 Br
ATOM     13 BR   UNL     1       3.430   2.401   2.165  0.00  0.00    -0.050 Br
ENDBRANCH   1   8
BRANCH   4  14
ATOM     14  C   UNL     1       1.796  -1.802  -0.025  0.00  0.00    -0.007 C 
BRANCH  14  15
ATOM     15  N   UNL     1       1.944  -2.250  -1.423  0.00  0.00    +0.384 N 
ATOM     16  H   UNL     1       2.614  -1.640  -1.905  0.00  0.00    -0.085 HD
ATOM     17  H   UNL     1       1.033  -2.197  -1.893  0.00  0.00    -0.085 HD
BRANCH  15  18
ATOM     18  C   UNL     1       2.433  -3.641  -1.466  0.00  0.00    -0.079 C 
BRANCH  18  19
ATOM     19  C   UNL     1       2.576  -4.077  -2.925  0.00  0.00    -0.032 C 
ATOM     20  C   UNL     1       1.196  -4.113  -3.587  0.00  0.00    -0.018 C 
ATOM     21  C   UNL     1       1.338  -4.609  -5.027  0.00  0.00    -0.082 C 
ATOM     22  C   UNL     1       3.283  -5.931  -4.442  0.00  0.00    -0.082 C 
ATOM     23  C   UNL     1       3.198  -5.475  -2.983  0.00  0.00    -0.018 C 
ATOM     24  N   UNL     1       1.931  -5.960  -5.033  0.00  0.00    +0.379 N 
ATOM     25  H   UNL     1       1.992  -6.299  -6.000  0.00  0.00    -0.086 HD
ATOM     26  H   UNL     1       1.336  -6.593  -4.485  0.00  0.00    -0.086 HD
ENDBRANCH  18  19
ENDBRANCH  15  18
ENDBRANCH  14  15
ENDBRANCH   4  14
TORSDOF 5
