REMARK  Name = ZINC15827742
REMARK  3 active torsions:
REMARK  status: ('A' for Active; 'I' for Inactive)
REMARK    1  A    between atoms: C_6  and  N_7
REMARK    2  A    between atoms: N_7  and  S_8
REMARK    3  A    between atoms: S_8  and  C_11
REMARK                            x       y       z     vdW  Elec       q    Type
REMARK                         _______ _______ _______ _____ _____    ______ ____
ROOT
ATOM      1  S   UNL     1       3.648   3.457  -1.003  0.00  0.00    +0.072 S 
ATOM      2  O   UNL     1       4.945   4.014  -0.842  0.00  0.00    -0.150 OA
ATOM      3  O   UNL     1       3.143   3.055  -2.269  0.00  0.00    -0.150 OA
ENDROOT
BRANCH   1   4
ATOM      4  C   UNL     1       2.509   4.637  -0.358  0.00  0.00    +0.109 A 
ATOM      5  C   UNL     1       1.173   4.573  -0.717  0.00  0.00    +0.032 A 
ATOM      6  C   UNL     1       0.267   5.487  -0.215  0.00  0.00    +0.048 A 
ATOM      7  C   UNL     1       0.696   6.483   0.646  0.00  0.00    +0.133 A 
ATOM      8  C   UNL     1       2.051   6.556   1.005  0.00  0.00    +0.080 A 
ATOM      9  C   UNL     1       2.954   5.624   0.497  0.00  0.00    +0.045 A 
ATOM     10  C   UNL     1       2.493   7.629   1.915  0.00  0.00    +0.248 C 
ATOM     11  O   UNL     1       3.474   8.299   1.653  0.00  0.00    -0.270 OA
ATOM     12  N   UNL     1       1.787   7.854   3.049  0.00  0.00    -0.308 N 
ATOM     13  C   UNL     1       0.676   6.967   3.397  0.00  0.00    +0.145 C 
ATOM     14  C   UNL     1      -0.537   7.250   2.521  0.00  0.00    +0.247 C 
ATOM     15  O   UNL     1      -0.174   7.391   1.153  0.00  0.00    -0.490 OA
ATOM     16  H   UNL     1       2.015   8.600   3.627  0.00  0.00    +0.149 HD
ENDBRANCH   1   4
BRANCH   1  17
ATOM     17  N   UNL     1       3.580   2.125  -0.022  0.00  0.00    -0.216 N 
ATOM     18  H   UNL     1       3.300   1.270  -0.384  0.00  0.00    +0.174 HD
BRANCH  17  24
ATOM     19  C   UNL     1       5.082   2.909   1.697  0.00  0.00    +0.027 A 
ATOM     20  C   UNL     1       5.424   3.013   3.032  0.00  0.00    +0.042 A 
ATOM     21  C   UNL     1       4.616   2.445   4.001  0.00  0.00    +0.142 A 
ATOM     22  C   UNL     1       3.462   1.770   3.636  0.00  0.00    +0.078 A 
ATOM     23  C   UNL     1       3.117   1.663   2.302  0.00  0.00    +0.047 A 
ATOM     24  C   UNL     1       3.927   2.232   1.328  0.00  0.00    +0.050 A 
ATOM     25 CL   UNL     1       2.451   1.058   4.854  0.00  0.00    -0.081 Cl
ATOM     26  F   UNL     1       4.953   2.548   5.306  0.00  0.00    -0.204 F 
ENDBRANCH  17  24
ENDBRANCH   1  17
TORSDOF 3
