REMARK  Name = ZINC03378652
REMARK  9 active torsions:
REMARK  status: ('A' for Active; 'I' for Inactive)
REMARK    1  A    between atoms: C_1  and  O_2
REMARK    2  A    between atoms: O_2  and  C_3
REMARK    3  A    between atoms: C_6  and  O_32
REMARK    4  A    between atoms: C_7  and  C_9
REMARK    5  A    between atoms: C_10  and  C_11
REMARK    6  A    between atoms: C_11  and  O_13
REMARK    7  A    between atoms: O_13  and  C_14
REMARK    8  A    between atoms: C_14  and  C_28
REMARK    9  A    between atoms: O_32  and  C_33
REMARK                            x       y       z     vdW  Elec       q    Type
REMARK                         _______ _______ _______ _____ _____    ______ ____
ROOT
ATOM      1  C   UNL     1       2.285  -4.209  -0.085  0.00  0.00    +0.309 C 
ATOM      2  C   UNL     1       0.792  -4.407   0.064  0.00  0.00    +0.036 A 
ATOM      3  C   UNL     1      -0.282  -4.054  -0.743  0.00  0.00    +0.011 A 
ATOM      4  C   UNL     1      -1.560  -4.351  -0.380  0.00  0.00    +0.009 A 
ATOM      5  C   UNL     1      -1.802  -5.026   0.830  0.00  0.00    -0.016 A 
ATOM      6  C   UNL     1      -3.111  -5.347   1.232  0.00  0.00    +0.008 A 
ATOM      7  C   UNL     1      -3.312  -6.001   2.408  0.00  0.00    +0.001 A 
ATOM      8  C   UNL     1      -2.240  -6.358   3.223  0.00  0.00    +0.001 A 
ATOM      9  C   UNL     1      -0.959  -6.062   2.865  0.00  0.00    +0.010 A 
ATOM     10  C   UNL     1      -0.714  -5.389   1.658  0.00  0.00    +0.004 A 
ATOM     11  C   UNL     1       0.606  -5.069   1.259  0.00  0.00    +0.049 A 
ATOM     12  N   UNL     1       1.829  -5.309   1.880  0.00  0.00    -0.281 N 
ATOM     13  C   UNL     1       2.864  -4.839   1.163  0.00  0.00    +0.275 C 
ATOM     14  O   UNL     1       4.038  -4.907   1.460  0.00  0.00    -0.270 OA
ATOM     15  H   UNL     1       1.922  -5.763   2.731  0.00  0.00    +0.155 HD
ENDROOT
BRANCH   1  16
ATOM     16  C   UNL     1       2.625  -2.718  -0.144  0.00  0.00    +0.443 C 
ATOM     17  F   UNL     1       2.297  -2.116   1.076  0.00  0.00    -0.166 F 
ATOM     18  F   UNL     1       3.993  -2.561  -0.388  0.00  0.00    -0.166 F 
ATOM     19  F   UNL     1       1.895  -2.114  -1.173  0.00  0.00    -0.166 F 
ENDBRANCH   1  16
BRANCH   1  20
ATOM     20  O   UNL     1       2.765  -4.877  -1.253  0.00  0.00    -0.431 OA
BRANCH  20  21
ATOM     21  C   UNL     1       2.661  -6.222  -1.276  0.00  0.00    +0.334 C 
ATOM     22  O   UNL     1       2.084  -6.803  -0.375  0.00  0.00    -0.246 OA
BRANCH  21  24
ATOM     23  C   UNL     1       3.119  -8.306  -2.370  0.00  0.00    +0.018 C 
ATOM     24  C   UNL     1       3.223  -6.959  -2.348  0.00  0.00    +0.092 C 
BRANCH  23  29
ATOM     25  C   UNL     1       4.910  -9.132  -5.562  0.00  0.00    +0.121 A 
ATOM     26  C   UNL     1       4.801 -10.517  -5.582  0.00  0.00    +0.049 A 
ATOM     27  C   UNL     1       4.147 -11.181  -4.562  0.00  0.00    +0.050 A 
ATOM     28  C   UNL     1       3.600 -10.470  -3.506  0.00  0.00    +0.127 A 
ATOM     29  C   UNL     1       3.701  -9.070  -3.482  0.00  0.00    +0.020 A 
ATOM     30  C   UNL     1       4.365  -8.406  -4.520  0.00  0.00    +0.057 A 
BRANCH  25  32
ATOM     31  C   UNL     1       6.095  -9.299  -7.617  0.00  0.00    +0.277 C 
ATOM     32  O   UNL     1       5.555  -8.488  -6.572  0.00  0.00    -0.495 OA
ENDBRANCH  25  32
BRANCH  28  33
ATOM     33  O   UNL     1       2.963 -11.124  -2.502  0.00  0.00    -0.495 OA
ATOM     34  C   UNL     1       2.900 -12.548  -2.593  0.00  0.00    +0.277 C 
ENDBRANCH  28  33
ENDBRANCH  23  29
ENDBRANCH  21  24
ENDBRANCH  20  21
ENDBRANCH   1  20
TORSDOF 7
