REMARK  Name = ZINC07380358
REMARK  5 active torsions:
REMARK  status: ('A' for Active; 'I' for Inactive)
REMARK    1  A    between atoms: C_1  and  C_2
REMARK    2  A    between atoms: C_10  and  C_11
REMARK    3  A    between atoms: N_13  and  N_14
REMARK    4  A    between atoms: N_14  and  S_15
REMARK    5  A    between atoms: S_15  and  C_18
REMARK                            x       y       z     vdW  Elec       q    Type
REMARK                         _______ _______ _______ _____ _____    ______ ____
ROOT
ATOM      1  C   UNL     1      -2.457   0.738   2.722  0.00  0.00    +0.294 C 
ATOM      2  O   UNL     1      -1.603   0.608   3.579  0.00  0.00    -0.265 OA
ATOM      3  N   UNL     1      -2.162   1.367   1.567  0.00  0.00    -0.225 N 
ATOM      4  H   UNL     1      -2.842   1.470   0.883  0.00  0.00    +0.171 HD
ENDROOT
BRANCH   1  14
ATOM      5  C   UNL     1      -3.390  -0.759   5.283  0.00  0.00    +0.048 C 
ATOM      6  C   UNL     1      -4.218  -0.445   4.064  0.00  0.00    +0.008 A 
ATOM      7  C   UNL     1      -5.625  -0.779   3.846  0.00  0.00    +0.024 A 
ATOM      8  C   UNL     1      -6.598  -1.436   4.604  0.00  0.00    +0.012 A 
ATOM      9  C   UNL     1      -7.857  -1.596   4.097  0.00  0.00    +0.001 A 
ATOM     10  C   UNL     1      -8.174  -1.110   2.836  0.00  0.00    +0.004 A 
ATOM     11  C   UNL     1      -7.229  -0.460   2.073  0.00  0.00    +0.047 A 
ATOM     12  C   UNL     1      -5.941  -0.285   2.567  0.00  0.00    +0.136 A 
ATOM     13  O   UNL     1      -4.832   0.294   2.069  0.00  0.00    -0.450 OA
ATOM     14  C   UNL     1      -3.809   0.209   2.946  0.00  0.00    +0.195 A 
ENDBRANCH   1  14
BRANCH   3  15
ATOM     15  N   UNL     1      -0.872   1.871   1.353  0.00  0.00    -0.108 NA
ATOM     16  H   UNL     1      -0.480   2.486   1.993  0.00  0.00    +0.172 HD
BRANCH  15  17
ATOM     17  S   UNL     1      -0.017   1.417   0.010  0.00  0.00    +0.074 S 
ATOM     18  O   UNL     1       0.002  -0.004   0.002  0.00  0.00    -0.152 OA
ATOM     19  O   UNL     1       1.172   2.195   0.003  0.00  0.00    -0.152 OA
BRANCH  17  20
ATOM     20  C   UNL     1      -0.954   1.915  -1.397  0.00  0.00    +0.108 A 
ATOM     21  C   UNL     1      -1.879   1.052  -1.952  0.00  0.00    +0.028 A 
ATOM     22  C   UNL     1      -2.618   1.444  -3.053  0.00  0.00    +0.003 A 
ATOM     23  C   UNL     1      -2.424   2.696  -3.605  0.00  0.00    +0.020 A 
ATOM     24  C   UNL     1      -1.494   3.559  -3.053  0.00  0.00    +0.043 A 
ATOM     25  C   UNL     1      -0.759   3.168  -1.948  0.00  0.00    +0.048 A 
ATOM     26 CL   UNL     1      -1.250   5.131  -3.746  0.00  0.00    -0.083 Cl
ENDBRANCH  17  20
ENDBRANCH  15  17
ENDBRANCH   3  15
TORSDOF 4
