REMARK  Name = ZINC35428695
REMARK  4 active torsions:
REMARK  status: ('A' for Active; 'I' for Inactive)
REMARK    1  A    between atoms: C_1  and  C_2
REMARK    2  A    between atoms: C_5  and  C_21
REMARK    3  A    between atoms: N_8  and  C_10
REMARK    4  A    between atoms: C_11  and  C_18
REMARK                            x       y       z     vdW  Elec       q    Type
REMARK                         _______ _______ _______ _____ _____    ______ ____
ROOT
ATOM      1  C   UNL     1       1.496  -2.438   2.334  0.00  0.00    +0.139 A 
ATOM      2  C   UNL     1       2.642  -3.210   2.279  0.00  0.00    +0.176 A 
ATOM      3  N   UNL     1       3.047  -3.436   3.608  0.00  0.00    -0.286 N 
ATOM      4  C   UNL     1       4.056  -4.093   4.269  0.00  0.00    +0.101 A 
ATOM      5  C   UNL     1       4.115  -4.087   5.602  0.00  0.00    +0.067 A 
ATOM      6  S   UNL     1       2.681  -3.109   6.024  0.00  0.00    -0.058 S 
ATOM      7  C   UNL     1       2.122  -2.789   4.366  0.00  0.00    +0.180 A 
ATOM      8  N   UNL     1       1.224  -2.204   3.611  0.00  0.00    -0.207 NA
ENDROOT
BRANCH   1  14
ATOM      9  C   UNL     1      -0.019   1.526   0.010  0.00  0.00    +0.009 C 
ATOM     10  C   UNL     1       0.002  -0.004   0.002  0.00  0.00    +0.002 C 
ATOM     11  C   UNL     1      -1.434  -0.535   0.015  0.00  0.00    +0.009 C 
ATOM     12  C   UNL     1      -1.402  -2.064   0.086  0.00  0.00    +0.002 C 
ATOM     13  C   UNL     1      -0.613  -2.496   1.324  0.00  0.00    +0.089 C 
ATOM     14  N   UNL     1       0.758  -1.980   1.239  0.00  0.00    -0.377 NA
ATOM     15  C   UNL     1       0.740  -0.512   1.242  0.00  0.00    +0.089 C 
ATOM     16  C   UNL     1      -2.832  -2.602   0.177  0.00  0.00    +0.009 C 
ATOM     17  H   UNL     1       1.188  -2.307   0.386  0.00  0.00    +0.128 HD
ENDBRANCH   1  14
BRANCH   2  18
ATOM     18  C   UNL     1       3.282  -3.681   1.114  0.00  0.00    +0.406 C 
ATOM     19  O   UNL     1       4.386  -4.420   1.213  0.00  0.00    -0.239 OA
ATOM     20  O   UNL     1       2.782  -3.387  -0.086  0.00  0.00    -0.239 OA
ENDBRANCH   2  18
TORSDOF 2
