REMARK  Name = ZINC20859299
REMARK  9 active torsions:
REMARK  status: ('A' for Active; 'I' for Inactive)
REMARK    1  A    between atoms: C_1  and  C_2
REMARK    2  A    between atoms: C_2  and  C_3
REMARK    3  A    between atoms: C_2  and  C_4
REMARK    4  A    between atoms: C_4  and  C_5
REMARK    5  A    between atoms: C_11  and  C_15
REMARK    6  A    between atoms: C_15  and  O_16
REMARK    7  A    between atoms: O_16  and  C_17
REMARK    8  A    between atoms: C_20  and  N_23
REMARK    9  A    between atoms: C_24  and  C_26
REMARK                            x       y       z     vdW  Elec       q    Type
REMARK                         _______ _______ _______ _____ _____    ______ ____
ROOT
ATOM      1  C   UNL     1       1.558  -5.915  -1.416  0.00  0.00    +0.121 A 
ATOM      2  C   UNL     1       1.408  -6.803  -0.361  0.00  0.00    +0.047 A 
ATOM      3  C   UNL     1       1.686  -8.144  -0.541  0.00  0.00    +0.027 A 
ATOM      4  C   UNL     1       2.126  -8.601  -1.776  0.00  0.00    +0.034 A 
ATOM      5  C   UNL     1       2.281  -7.711  -2.830  0.00  0.00    +0.027 A 
ATOM      6  C   UNL     1       1.998  -6.372  -2.650  0.00  0.00    +0.047 A 
ENDROOT
BRANCH   4   7
ATOM      7  N   UNL     1       2.412  -9.960  -1.958  0.00  0.00    -0.281 N 
ATOM      8  C   UNL     1       1.701 -10.893  -1.295  0.00  0.00    +0.248 C 
ATOM      9  O   UNL     1       0.750 -10.563  -0.614  0.00  0.00    -0.270 OA
ATOM     10  H   UNL     1       3.217 -10.266  -2.642  0.00  0.00    +0.155 HD
BRANCH   8  11
ATOM     11  C   UNL     1       2.077 -12.317  -1.396  0.00  0.00    +0.041 A 
ATOM     12  C   UNL     1       3.166 -12.700  -2.183  0.00  0.00    +0.017 A 
ATOM     13  C   UNL     1       3.518 -14.029  -2.272  0.00  0.00    +0.050 A 
ATOM     14  C   UNL     1       2.788 -14.993  -1.590  0.00  0.00    +0.166 A 
ATOM     15  C   UNL     1       1.696 -14.617  -0.806  0.00  0.00    +0.167 A 
ATOM     16  C   UNL     1       1.341 -13.286  -0.709  0.00  0.00    +0.062 A 
ATOM     17  O   UNL     1       1.155 -15.740  -0.248  0.00  0.00    -0.453 OA
ATOM     18  C   UNL     1       1.671 -16.840  -1.020  0.00  0.00    +0.466 C 
ATOM     19  O   UNL     1       2.928 -16.347  -1.520  0.00  0.00    -0.453 OA
ENDBRANCH   8  11
ENDBRANCH   4   7
BRANCH   1  20
ATOM     20  O   UNL     1       1.280  -4.596  -1.239  0.00  0.00    -0.486 OA
BRANCH  20  21
ATOM     21  C   UNL     1       0.831  -4.196   0.057  0.00  0.00    +0.284 C 
BRANCH  21  28
ATOM     22  C   UNL     1       1.157   2.114  -0.140  0.00  0.00    +0.103 A 
ATOM     23  N   UNL     1       0.086   1.403   0.043  0.00  0.00    -0.159 NA
ATOM     24  N   UNL     1       0.129   0.012   0.069  0.00  0.00    -0.171 N 
ATOM     25  C   UNL     1      -0.920  -0.843   0.252  0.00  0.00    +0.275 A 
ATOM     26  O   UNL     1      -2.047  -0.403   0.417  0.00  0.00    -0.266 OA
ATOM     27  C   UNL     1      -0.702  -2.221   0.249  0.00  0.00    +0.099 A 
ATOM     28  C   UNL     1       0.573  -2.711   0.063  0.00  0.00    +0.087 A 
ATOM     29  N   UNL     1       1.573  -1.850  -0.112  0.00  0.00    -0.223 NA
ATOM     30  C   UNL     1       1.359  -0.559  -0.108  0.00  0.00    +0.199 A 
ATOM     31  S   UNL     1       2.416   0.859  -0.306  0.00  0.00    -0.033 S 
BRANCH  22  32
ATOM     32  C   UNL     1       1.300   3.614  -0.197  0.00  0.00    +0.068 C 
BRANCH  32  34
ATOM     33  C   UNL     1      -0.582   3.960   1.410  0.00  0.00    +0.007 C 
ATOM     34  C   UNL     1      -0.071   4.264   0.001  0.00  0.00    -0.011 C 
ATOM     35  C   UNL     1       0.053   5.779  -0.181  0.00  0.00    +0.007 C 
ENDBRANCH  32  34
ENDBRANCH  22  32
ENDBRANCH  21  28
ENDBRANCH  20  21
ENDBRANCH   1  20
TORSDOF 7
