REMARK  Name = ZINC66825649
REMARK  7 active torsions:
REMARK  status: ('A' for Active; 'I' for Inactive)
REMARK    1  A    between atoms: C_1  and  C_2
REMARK    2  A    between atoms: C_2  and  C_4
REMARK    3  A    between atoms: C_2  and  N_9
REMARK    4  A    between atoms: C_10  and  C_12
REMARK    5  A    between atoms: C_12  and  N_13
REMARK    6  A    between atoms: N_13  and  C_14
REMARK    7  A    between atoms: C_17  and  N_21
REMARK                            x       y       z     vdW  Elec       q    Type
REMARK                         _______ _______ _______ _____ _____    ______ ____
ROOT
ATOM      1  N   UNL     1      -3.929  -1.240   2.572  0.00  0.00    -0.335 N 
ATOM      2  H   UNL     1      -3.318  -1.065   3.304  0.00  0.00    +0.147 HD
ENDROOT
BRANCH   1   3
ATOM      3  C   UNL     1      -5.224  -1.696   2.836  0.00  0.00    +0.029 A 
ATOM      4  C   UNL     1      -6.098  -1.953   1.787  0.00  0.00    +0.025 A 
ATOM      5  C   UNL     1      -7.376  -2.403   2.048  0.00  0.00    +0.031 A 
ATOM      6  C   UNL     1      -7.789  -2.601   3.358  0.00  0.00    +0.084 A 
ATOM      7  C   UNL     1      -6.916  -2.344   4.408  0.00  0.00    +0.068 A 
ATOM      8  C   UNL     1      -5.634  -1.899   4.147  0.00  0.00    +0.045 A 
ATOM      9 CL   UNL     1      -7.433  -2.591   6.047  0.00  0.00    -0.081 Cl
BRANCH   6  10
ATOM     10  N   UNL     1      -9.089  -3.059   3.623  0.00  0.00    -0.238 N 
ATOM     11  C   UNL     1      -9.705  -4.098   3.017  0.00  0.00    +0.114 A 
ATOM     12  C   UNL     1     -10.943  -4.213   3.554  0.00  0.00    +0.041 A 
ATOM     13  C   UNL     1     -11.088  -3.213   4.520  0.00  0.00    +0.135 A 
ATOM     14  N   UNL     1      -9.976  -2.524   4.567  0.00  0.00    -0.175 NA
ENDBRANCH   6  10
ENDBRANCH   1   3
BRANCH   1  15
ATOM     15  C   UNL     1      -3.496  -1.026   1.189  0.00  0.00    +0.197 C 
BRANCH  15  17
ATOM     16  N   UNL     1      -1.458  -0.272   0.008  0.00  0.00    -0.304 N 
ATOM     17  C   UNL     1      -2.071  -0.537   1.179  0.00  0.00    +0.231 C 
ATOM     18  O   UNL     1      -1.475  -0.383   2.224  0.00  0.00    -0.274 OA
ATOM     19  H   UNL     1      -1.934  -0.396  -0.828  0.00  0.00    +0.149 HD
BRANCH  16  21
ATOM     20  C   UNL     1      -0.052   1.722   0.185  0.00  0.00    +0.036 C 
ATOM     21  C   UNL     1      -0.072   0.204  -0.002  0.00  0.00    +0.136 C 
BRANCH  21  22
ATOM     22  C   UNL     1       0.571  -0.149  -1.318  0.00  0.00    +0.125 A 
ATOM     23  C   UNL     1       1.829  -0.594  -1.485  0.00  0.00    +0.046 A 
ATOM     24  C   UNL     1       2.011  -0.797  -2.872  0.00  0.00    +0.041 A 
ATOM     25  C   UNL     1       0.853  -0.465  -3.470  0.00  0.00    +0.195 A 
ATOM     26  O   UNL     1      -0.017  -0.078  -2.524  0.00  0.00    -0.466 OA
ENDBRANCH  21  22
ENDBRANCH  16  21
ENDBRANCH  15  17
ENDBRANCH   1  15
TORSDOF 6
