REMARK  Name = ZINC12411478
REMARK  9 active torsions:
REMARK  status: ('A' for Active; 'I' for Inactive)
REMARK    1  A    between atoms: C_1  and  C_2
REMARK    2  A    between atoms: C_2  and  O_3
REMARK    3  A    between atoms: O_3  and  C_4
REMARK    4  A    between atoms: C_6  and  C_11
REMARK    5  A    between atoms: C_9  and  O_10
REMARK    6  A    between atoms: C_19  and  O_34
REMARK    7  A    between atoms: C_22  and  C_23
REMARK    8  A    between atoms: C_22  and  N_63
REMARK    9  A    between atoms: N_25  and  C_26
REMARK                            x       y       z     vdW  Elec       q    Type
REMARK                         _______ _______ _______ _____ _____    ______ ____
ROOT
ATOM      1  C   UNL     1       0.750  -2.044   1.199  0.00  0.00    -0.031 C 
ATOM      2  C   UNL     1       0.710  -0.513   1.231  0.00  0.00    +0.011 C 
ATOM      3  C   UNL     1      -0.015  -0.004  -0.017  0.00  0.00    +0.005 C 
ATOM      4  C   UNL     1      -0.037   1.526  -0.010  0.00  0.00    +0.000 C 
ATOM      5  C   UNL     1       1.399   2.054  -0.009  0.00  0.00    +0.003 C 
ATOM      6  C   UNL     1       2.125   1.551   1.236  0.00  0.00    +0.035 C 
ATOM      7  C   UNL     1       2.143   0.023   1.243  0.00  0.00    +0.066 C 
ATOM      8  C   UNL     1       2.881  -0.487   0.004  0.00  0.00    +0.016 C 
ATOM      9  C   UNL     1       2.856  -2.018  -0.003  0.00  0.00    -0.075 C 
ATOM     10  N   UNL     1       1.450  -2.476  -0.030  0.00  0.00    +0.390 N 
ATOM     11  H   UNL     1       0.981  -2.061  -0.844  0.00  0.00    -0.080 HD
ENDROOT
BRANCH   1  14
ATOM     12  C   UNL     1      -2.529  -3.548   2.321  0.00  0.00    +0.162 A 
ATOM     13  C   UNL     1      -1.234  -3.055   2.340  0.00  0.00    +0.051 A 
ATOM     14  C   UNL     1      -0.657  -2.584   1.175  0.00  0.00    -0.057 A 
ATOM     15  C   UNL     1      -1.366  -2.611  -0.011  0.00  0.00    +0.006 A 
ATOM     16  C   UNL     1      -2.656  -3.105  -0.038  0.00  0.00    +0.049 A 
ATOM     17  C   UNL     1      -3.242  -3.575   1.127  0.00  0.00    +0.158 A 
BRANCH  17  18
ATOM     18  O   UNL     1      -4.512  -4.061   1.103  0.00  0.00    -0.503 OA
ATOM     19  H   UNL     1      -4.567  -5.010   0.927  0.00  0.00    +0.292 HD
ENDBRANCH  17  18
BRANCH  12  20
ATOM     20  O   UNL     1      -3.100  -4.007   3.467  0.00  0.00    -0.489 OA
BRANCH  20  22
ATOM     21  C   UNL     1      -3.112  -4.505   5.832  0.00  0.00    +0.048 C 
ATOM     22  C   UNL     1      -2.308  -3.949   4.655  0.00  0.00    +0.226 C 
ENDBRANCH  20  22
ENDBRANCH  12  20
ENDBRANCH   1  14
BRANCH   7  23
ATOM     23  O   UNL     1       2.813  -0.438   2.418  0.00  0.00    -0.388 OA
ATOM     24  H   UNL     1       3.729  -0.136   2.493  0.00  0.00    +0.210 HD
ENDBRANCH   7  23
BRANCH  10  25
ATOM     25  C   UNL     1       1.402  -3.947  -0.148  0.00  0.00    +0.020 C 
BRANCH  25  26
ATOM     26  C   UNL     1       1.916  -4.342  -1.508  0.00  0.00    +0.201 C 
ATOM     27  O   UNL     1       2.297  -3.491  -2.283  0.00  0.00    -0.278 OA
ATOM     28  N   UNL     1       1.952  -5.642  -1.864  0.00  0.00    -0.286 N 
ATOM     29  H   UNL     1       1.724  -6.328  -1.217  0.00  0.00    +0.155 HD
BRANCH  28  30
ATOM     30  C   UNL     1       2.319  -6.002  -3.166  0.00  0.00    +0.052 A 
ATOM     31  C   UNL     1       2.150  -5.102  -4.210  0.00  0.00    +0.026 A 
ATOM     32  C   UNL     1       2.518  -5.457  -5.493  0.00  0.00    +0.022 A 
ATOM     33  C   UNL     1       3.045  -6.712  -5.741  0.00  0.00    +0.042 A 
ATOM     34  C   UNL     1       3.210  -7.613  -4.704  0.00  0.00    +0.041 A 
ATOM     35  C   UNL     1       2.849  -7.261  -3.417  0.00  0.00    +0.064 A 
ATOM     36 CL   UNL     1       3.056  -8.392  -2.116  0.00  0.00    -0.082 Cl
ATOM     37 CL   UNL     1       3.500  -7.157  -7.356  0.00  0.00    -0.083 Cl
ENDBRANCH  28  30
ENDBRANCH  25  26
ENDBRANCH  10  25
TORSDOF 8
