REMARK  Name = ZINC19854073
REMARK  15 active torsions:
REMARK  status: ('A' for Active; 'I' for Inactive)
REMARK    1  A    between atoms: C_1  and  C_2
REMARK    2  A    between atoms: C_2  and  O_3
REMARK    3  A    between atoms: O_3  and  C_4
REMARK    4  A    between atoms: C_8  and  C_11
REMARK    5  A    between atoms: C_9  and  O_10
REMARK    6  A    between atoms: C_11  and  N_12
REMARK    7  A    between atoms: C_15  and  C_18
REMARK    8  A    between atoms: C_18  and  C_20
REMARK    9  A    between atoms: C_18  and  N_28
REMARK   10  A    between atoms: C_20  and  C_21
REMARK   11  A    between atoms: N_28  and  C_29
REMARK   12  A    between atoms: N_28  and  C_30
REMARK   13  A    between atoms: C_30  and  C_31
REMARK   14  A    between atoms: N_33  and  C_37
REMARK   15  A    between atoms: C_35  and  C_36
REMARK                            x       y       z     vdW  Elec       q    Type
REMARK                         _______ _______ _______ _____ _____    ______ ____
ROOT
ATOM      1  N   UNL     1      -4.088  -4.671  -2.273  0.00  0.00    +0.382 N 
ATOM      2  C   UNL     1      -4.130  -3.208  -2.401  0.00  0.00    -0.078 C 
ATOM      3  C   UNL     1      -5.038  -2.823  -3.571  0.00  0.00    -0.014 C 
ATOM      4  C   UNL     1      -6.445  -3.372  -3.321  0.00  0.00    +0.003 C 
ATOM      5  C   UNL     1      -6.368  -4.891  -3.143  0.00  0.00    -0.014 C 
ATOM      6  C   UNL     1      -5.421  -5.216  -1.985  0.00  0.00    -0.078 C 
ATOM      7  H   UNL     1      -3.759  -5.082  -3.238  0.00  0.00    -0.081 HD
ENDROOT
BRANCH   1   8
ATOM      8  C   UNL     1      -3.119  -5.082  -1.249  0.00  0.00    -0.039 C 
BRANCH   8  13
ATOM      9  C   UNL     1       0.241  -4.956  -2.987  0.00  0.00    +0.162 A 
ATOM     10  C   UNL     1       0.803  -3.828  -2.410  0.00  0.00    +0.049 A 
ATOM     11  C   UNL     1       0.096  -3.112  -1.462  0.00  0.00    +0.004 A 
ATOM     12  C   UNL     1      -1.171  -3.518  -1.088  0.00  0.00    +0.005 A 
ATOM     13  C   UNL     1      -1.737  -4.642  -1.659  0.00  0.00    -0.019 A 
ATOM     14  C   UNL     1      -1.037  -5.361  -2.614  0.00  0.00    +0.160 A 
BRANCH  14  15
ATOM     15  O   UNL     1      -1.594  -6.464  -3.182  0.00  0.00    -0.503 OA
ATOM     16  H   UNL     1      -2.604  -6.784  -2.886  0.00  0.00    +0.292 HD
ENDBRANCH  14  15
BRANCH   9  17
ATOM     17  O   UNL     1       0.935  -5.661  -3.920  0.00  0.00    -0.489 OA
BRANCH  17  19
ATOM     18  C   UNL     1       2.860  -6.099  -5.315  0.00  0.00    +0.048 C 
ATOM     19  C   UNL     1       2.239  -5.183  -4.258  0.00  0.00    +0.226 C 
ENDBRANCH  17  19
ENDBRANCH   9  17
ENDBRANCH   8  13
ENDBRANCH   1   8
BRANCH   4  20
ATOM     20  C   UNL     1      -7.343  -3.042  -4.515  0.00  0.00    +0.064 C 
BRANCH  20  21
ATOM     21  N   UNL     1      -7.504  -1.586  -4.619  0.00  0.00    -0.298 NA
ATOM     22  C   UNL     1      -8.747  -1.243  -5.323  0.00  0.00    +0.105 C 
BRANCH  21  23
ATOM     23  C   UNL     1      -7.459  -0.955  -3.293  0.00  0.00    +0.123 C 
BRANCH  23  24
ATOM     24  C   UNL     1      -7.466   0.543  -3.449  0.00  0.00    +0.007 A 
ATOM     25  C   UNL     1      -6.376   1.344  -3.499  0.00  0.00    +0.113 A 
ATOM     26  N   UNL     1      -6.806   2.615  -3.647  0.00  0.00    -0.274 N 
ATOM     27  N   UNL     1      -8.206   2.595  -3.682  0.00  0.00    -0.176 NA
ATOM     28  C   UNL     1      -8.601   1.353  -3.563  0.00  0.00    +0.064 A 
ATOM     29  C   UNL     1     -10.031   0.878  -3.550  0.00  0.00    +0.068 C 
ATOM     30  C   UNL     1      -5.957   3.805  -3.748  0.00  0.00    +0.172 C 
ENDBRANCH  23  24
ENDBRANCH  21  23
ENDBRANCH  20  21
BRANCH  20  31
ATOM     31  C   UNL     1      -6.702  -3.577  -5.797  0.00  0.00    +0.054 C 
BRANCH  31  32
ATOM     32  C   UNL     1      -7.647  -3.375  -6.954  0.00  0.00    -0.046 A 
ATOM     33  C   UNL     1      -8.680  -4.269  -7.166  0.00  0.00    +0.006 A 
ATOM     34  C   UNL     1      -9.550  -4.082  -8.223  0.00  0.00    +0.038 A 
ATOM     35  C   UNL     1      -9.381  -3.004  -9.076  0.00  0.00    +0.123 A 
ATOM     36  C   UNL     1      -8.343  -2.112  -8.865  0.00  0.00    +0.038 A 
ATOM     37  C   UNL     1      -7.477  -2.299  -7.804  0.00  0.00    +0.006 A 
ATOM     38  F   UNL     1     -10.228  -2.822 -10.113  0.00  0.00    -0.205 F 
ENDBRANCH  31  32
ENDBRANCH  20  31
ENDBRANCH   4  20
TORSDOF 11
