REMARK  Name = ZINC53582246
REMARK  10 active torsions:
REMARK  status: ('A' for Active; 'I' for Inactive)
REMARK    1  A    between atoms: C_1  and  C_2
REMARK    2  A    between atoms: C_5  and  C_7
REMARK    3  A    between atoms: C_7  and  C_9
REMARK    4  A    between atoms: C_7  and  N_10
REMARK    5  A    between atoms: N_10  and  C_11
REMARK    6  A    between atoms: C_14  and  C_20
REMARK    7  A    between atoms: C_16  and  N_17
REMARK    8  A    between atoms: N_22  and  C_23
REMARK    9  A    between atoms: C_23  and  C_24
REMARK   10  A    between atoms: C_23  and  C_25
REMARK                            x       y       z     vdW  Elec       q    Type
REMARK                         _______ _______ _______ _____ _____    ______ ____
ROOT
ATOM      1  C   UNL     1       2.592  -5.379   1.380  0.00  0.00    +0.058 A 
ATOM      2  C   UNL     1       1.782  -6.496   1.190  0.00  0.00    +0.026 A 
ATOM      3  C   UNL     1       2.102  -7.690   1.794  0.00  0.00    +0.015 A 
ATOM      4  C   UNL     1       3.242  -7.782   2.599  0.00  0.00    +0.039 A 
ATOM      5  C   UNL     1       4.053  -6.659   2.787  0.00  0.00    +0.047 A 
ATOM      6  C   UNL     1       3.730  -5.468   2.176  0.00  0.00    +0.148 A 
ENDROOT
BRANCH   4   7
ATOM      7  C   UNL     1       3.587  -9.060   3.248  0.00  0.00    +0.244 C 
ATOM      8  O   UNL     1       4.579  -9.139   3.948  0.00  0.00    -0.270 OA
ATOM      9  N   UNL     1       2.804 -10.142   3.066  0.00  0.00    -0.309 N 
ATOM     10  H   UNL     1       2.013 -10.080   2.508  0.00  0.00    +0.149 HD
BRANCH   9  11
ATOM     11  C   UNL     1       3.147 -11.412   3.710  0.00  0.00    +0.067 C 
ATOM     12  C   UNL     1       1.882 -12.254   3.885  0.00  0.00    +0.027 C 
ATOM     13  C   UNL     1       4.149 -12.172   2.839  0.00  0.00    +0.027 C 
ENDBRANCH   9  11
ENDBRANCH   4   7
BRANCH   6  14
ATOM     14  N   UNL     1       4.591  -4.280   2.371  0.00  0.00    +0.058 N 
ATOM     15  O   UNL     1       5.792  -4.408   2.429  0.00  0.00    -0.126 OA
ATOM     16  O   UNL     1       4.094  -3.183   2.471  0.00  0.00    -0.126 OA
ENDBRANCH   6  14
BRANCH   1  17
ATOM     17  N   UNL     1       2.266  -4.174   0.768  0.00  0.00    -0.335 N 
ATOM     18  H   UNL     1       2.873  -3.420   0.828  0.00  0.00    +0.147 HD
BRANCH  17  19
ATOM     19  C   UNL     1       1.005  -4.043   0.033  0.00  0.00    +0.104 C 
ATOM     20  C   UNL     1       1.194  -4.550  -1.398  0.00  0.00    +0.033 C 
BRANCH  19  25
ATOM     21  C   UNL     1       0.408   1.585  -0.225  0.00  0.00    +0.051 C 
ATOM     22  C   UNL     1       0.306   0.085  -0.120  0.00  0.00    -0.013 A 
ATOM     23  C   UNL     1      -0.793  -0.685   0.075  0.00  0.00    +0.011 A 
ATOM     24  C   UNL     1      -0.647  -2.058   0.138  0.00  0.00    +0.013 A 
ATOM     25  C   UNL     1       0.590  -2.594   0.003  0.00  0.00    +0.010 A 
ATOM     26  S   UNL     1       1.600  -1.140  -0.228  0.00  0.00    -0.097 S 
ENDBRANCH  19  25
ENDBRANCH  17  19
ENDBRANCH   1  17
TORSDOF 6
