REMARK  Name = ZINC14700565
REMARK  10 active torsions:
REMARK  status: ('A' for Active; 'I' for Inactive)
REMARK    1  A    between atoms: C_1  and  C_2
REMARK    2  A    between atoms: C_5  and  N_9
REMARK    3  A    between atoms: C_6  and  O_8
REMARK    4  A    between atoms: C_10  and  C_12
REMARK    5  A    between atoms: C_14  and  C_24
REMARK    6  A    between atoms: N_20  and  C_21
REMARK    7  A    between atoms: C_21  and  C_22
REMARK    8  A    between atoms: C_21  and  C_23
REMARK    9  A    between atoms: C_24  and  C_25
REMARK   10  A    between atoms: C_24  and  C_26
REMARK                            x       y       z     vdW  Elec       q    Type
REMARK                         _______ _______ _______ _____ _____    ______ ____
ROOT
ATOM      1  C   UNL     1       3.719  -0.951   0.176  0.00  0.00    +0.051 A 
ATOM      2  C   UNL     1       4.926  -0.255   0.164  0.00  0.00    +0.037 A 
ATOM      3  C   UNL     1       6.117  -0.958   0.260  0.00  0.00    +0.047 A 
ATOM      4  N   UNL     1       6.139  -2.270   0.353  0.00  0.00    -0.232 NA
ATOM      5  C   UNL     1       5.027  -2.991   0.364  0.00  0.00    +0.159 A 
ATOM      6  C   UNL     1       3.770  -2.359   0.276  0.00  0.00    +0.051 A 
ATOM      7  C   UNL     1       2.791  -3.374   0.312  0.00  0.00    +0.145 A 
ATOM      8  N   UNL     1       3.391  -4.526   0.414  0.00  0.00    -0.177 NA
ATOM      9  N   UNL     1       4.777  -4.336   0.450  0.00  0.00    -0.244 N 
ENDROOT
BRANCH   1  11
ATOM     10  N   UNL     1       2.402   1.105  -0.015  0.00  0.00    -0.279 N 
ATOM     11  C   UNL     1       2.426  -0.239   0.080  0.00  0.00    +0.249 C 
ATOM     12  O   UNL     1       1.385  -0.867   0.087  0.00  0.00    -0.270 OA
ATOM     13  H   UNL     1       3.232   1.600  -0.101  0.00  0.00    +0.155 HD
BRANCH  10  18
ATOM     14  C   UNL     1      -2.556   3.867   0.094  0.00  0.00    +0.044 C 
ATOM     15  C   UNL     1      -1.239   3.136   0.064  0.00  0.00    -0.047 A 
ATOM     16  C   UNL     1      -1.131   1.886   0.646  0.00  0.00    +0.005 A 
ATOM     17  C   UNL     1       0.076   1.213   0.627  0.00  0.00    +0.027 A 
ATOM     18  C   UNL     1       1.180   1.787   0.012  0.00  0.00    +0.076 A 
ATOM     19  C   UNL     1       1.069   3.044  -0.579  0.00  0.00    +0.138 A 
ATOM     20  C   UNL     1      -0.143   3.714  -0.550  0.00  0.00    +0.050 A 
BRANCH  19  21
ATOM     21  O   UNL     1       2.147   3.611  -1.183  0.00  0.00    -0.505 OA
ATOM     22  H   UNL     1       2.230   3.396  -2.122  0.00  0.00    +0.292 HD
ENDBRANCH  19  21
ENDBRANCH  10  18
ENDBRANCH   1  11
BRANCH   9  23
ATOM     23  C   UNL     1       5.787  -5.392   0.559  0.00  0.00    +0.103 C 
ATOM     24  C   UNL     1       5.571  -6.170   1.859  0.00  0.00    +0.032 C 
ATOM     25  C   UNL     1       5.660  -6.344  -0.632  0.00  0.00    +0.032 C 
ENDBRANCH   9  23
BRANCH   3  26
ATOM     26  C   UNL     1       7.420  -0.201   0.252  0.00  0.00    +0.032 C 
ATOM     27  C   UNL     1       7.848   0.064  -1.192  0.00  0.00    +0.014 C 
ATOM     28  C   UNL     1       7.239   1.132   0.983  0.00  0.00    +0.014 C 
ENDBRANCH   3  26
TORSDOF 5
