REMARK  Name = ZINC13267723
REMARK  8 active torsions:
REMARK  status: ('A' for Active; 'I' for Inactive)
REMARK    1  A    between atoms: C_1  and  O_2
REMARK    2  A    between atoms: O_2  and  C_3
REMARK    3  A    between atoms: C_5  and  C_25
REMARK    4  A    between atoms: C_6  and  N_11
REMARK    5  A    between atoms: C_8  and  O_9
REMARK    6  A    between atoms: O_9  and  C_10
REMARK    7  A    between atoms: N_11  and  S_12
REMARK    8  A    between atoms: S_12  and  C_15
REMARK                            x       y       z     vdW  Elec       q    Type
REMARK                         _______ _______ _______ _____ _____    ______ ____
ROOT
ATOM      1  N   UNL     1      -3.370   4.527  -1.519  0.00  0.00    -0.215 N 
ATOM      2  H   UNL     1      -3.474   5.428  -1.864  0.00  0.00    +0.174 HD
ENDROOT
BRANCH   1   6
ATOM      3  C   UNL     1      -3.793   1.254  -4.075  0.00  0.00    +0.162 A 
ATOM      4  C   UNL     1      -3.212   2.412  -4.547  0.00  0.00    +0.066 A 
ATOM      5  C   UNL     1      -3.065   3.516  -3.699  0.00  0.00    +0.089 A 
ATOM      6  C   UNL     1      -3.512   3.436  -2.369  0.00  0.00    +0.066 A 
ATOM      7  C   UNL     1      -4.090   2.264  -1.905  0.00  0.00    +0.074 A 
ATOM      8  C   UNL     1      -4.235   1.179  -2.754  0.00  0.00    +0.163 A 
BRANCH   5   9
ATOM      9  C   UNL     1      -2.446   4.753  -4.197  0.00  0.00    +0.388 C 
ATOM     10  O   UNL     1      -2.319   5.710  -3.457  0.00  0.00    -0.241 OA
ATOM     11  O   UNL     1      -2.018   4.826  -5.473  0.00  0.00    -0.241 OA
ENDBRANCH   5   9
BRANCH   3  13
ATOM     12  C   UNL     1      -3.462   0.327  -6.241  0.00  0.00    +0.277 C 
ATOM     13  O   UNL     1      -3.935   0.182  -4.901  0.00  0.00    -0.491 OA
ENDBRANCH   3  13
BRANCH   8  14
ATOM     14  O   UNL     1      -4.806   0.035  -2.296  0.00  0.00    -0.491 OA
ATOM     15  C   UNL     1      -5.237   0.025  -0.934  0.00  0.00    +0.277 C 
ENDBRANCH   8  14
ENDBRANCH   1   6
BRANCH   1  16
ATOM     16  S   UNL     1      -3.022   4.290   0.083  0.00  0.00    +0.072 S 
ATOM     17  O   UNL     1      -4.004   3.391   0.582  0.00  0.00    -0.150 OA
ATOM     18  O   UNL     1      -2.810   5.576   0.648  0.00  0.00    -0.150 OA
BRANCH  16  19
ATOM     19  C   UNL     1      -1.479   3.444   0.161  0.00  0.00    +0.109 A 
ATOM     20  C   UNL     1      -0.298   4.160   0.224  0.00  0.00    +0.029 A 
ATOM     21  C   UNL     1       0.907   3.490   0.282  0.00  0.00    +0.006 A 
ATOM     22  C   UNL     1       0.944   2.102   0.280  0.00  0.00    -0.044 A 
ATOM     23  C   UNL     1      -0.232   1.389   0.221  0.00  0.00    -0.042 A 
ATOM     24  C   UNL     1      -1.444   2.065   0.166  0.00  0.00    +0.032 A 
ATOM     25  C   UNL     1      -0.268  -0.117   0.221  0.00  0.00    +0.035 C 
ATOM     26  C   UNL     1       1.101  -0.687  -0.142  0.00  0.00    +0.005 C 
ATOM     27  C   UNL     1       2.153  -0.026   0.757  0.00  0.00    +0.005 C 
ATOM     28  C   UNL     1       2.294   1.436   0.339  0.00  0.00    +0.035 C 
ENDBRANCH  16  19
ENDBRANCH   1  16
TORSDOF 6
