REMARK  Name = ZINC20803857
REMARK  7 active torsions:
REMARK  status: ('A' for Active; 'I' for Inactive)
REMARK    1  A    between atoms: C_1  and  C_2
REMARK    2  A    between atoms: C_7  and  N_8
REMARK    3  A    between atoms: C_9  and  C_11
REMARK    4  A    between atoms: C_13  and  C_33
REMARK    5  A    between atoms: C_21  and  C_23
REMARK    6  A    between atoms: C_26  and  O_29
REMARK    7  A    between atoms: O_29  and  C_30
REMARK                            x       y       z     vdW  Elec       q    Type
REMARK                         _______ _______ _______ _____ _____    ______ ____
ROOT
ATOM      1  C   UNL     1       1.147   7.220   0.035  0.00  0.00    +0.124 C 
ATOM      2  C   UNL     1       0.258   8.024  -0.920  0.00  0.00    +0.084 C 
ATOM      3  N   UNL     1       0.217   9.425  -0.458  0.00  0.00    -0.310 N 
ATOM      4  C   UNL     1       1.429   9.976  -0.062  0.00  0.00    +0.214 A 
ATOM      5  N   UNL     1       1.741  11.223   0.171  0.00  0.00    -0.202 NA
ATOM      6  C   UNL     1       3.027  11.301   0.528  0.00  0.00    +0.247 A 
ATOM      7  N   UNL     1       3.548  10.100   0.527  0.00  0.00    -0.156 NA
ATOM      8  N   UNL     1       2.533   9.220   0.149  0.00  0.00    -0.225 N 
ATOM      9  C   UNL     1       2.579   7.767  -0.007  0.00  0.00    +0.154 C 
ATOM     10  C   UNL     1      -1.156   7.439  -0.921  0.00  0.00    +0.028 C 
ATOM     11  H   UNL     1      -0.738   9.971  -0.441  0.00  0.00    +0.149 HD
ENDROOT
BRANCH   9  12
ATOM     12  C   UNL     1       3.383   7.165   1.116  0.00  0.00    -0.022 A 
ATOM     13  C   UNL     1       2.994   7.364   2.428  0.00  0.00    +0.009 A 
ATOM     14  C   UNL     1       3.727   6.808   3.459  0.00  0.00    +0.046 A 
ATOM     15  C   UNL     1       4.860   6.059   3.177  0.00  0.00    +0.127 A 
ATOM     16  C   UNL     1       5.252   5.866   1.861  0.00  0.00    +0.046 A 
ATOM     17  C   UNL     1       4.513   6.419   0.833  0.00  0.00    +0.009 A 
BRANCH  15  18
ATOM     18  O   UNL     1       5.585   5.516   4.190  0.00  0.00    -0.434 OA
BRANCH  18  19
ATOM     19  C   UNL     1       5.123   5.756   5.521  0.00  0.00    +0.541 C 
ATOM     20  F   UNL     1       5.107   7.133   5.767  0.00  0.00    -0.166 F 
ATOM     21  F   UNL     1       3.830   5.241   5.665  0.00  0.00    -0.166 F 
ENDBRANCH  18  19
ENDBRANCH  15  18
ENDBRANCH   9  12
BRANCH   1  23
ATOM     22  N   UNL     1       0.103   4.980  -0.084  0.00  0.00    -0.285 N 
ATOM     23  C   UNL     1       1.152   5.772  -0.384  0.00  0.00    +0.224 C 
ATOM     24  O   UNL     1       2.099   5.319  -0.991  0.00  0.00    -0.275 OA
ATOM     25  H   UNL     1      -0.788   5.407   0.399  0.00  0.00    +0.155 HD
BRANCH  22  32
ATOM     26  C   UNL     1      -1.401   3.193   1.541  0.00  0.00    +0.045 C 
ATOM     27  C   UNL     1      -0.571   2.708   0.380  0.00  0.00    -0.029 A 
ATOM     28  C   UNL     1      -0.529   1.361   0.076  0.00  0.00    +0.005 A 
ATOM     29  C   UNL     1       0.236   0.915  -0.986  0.00  0.00    +0.000 A 
ATOM     30  C   UNL     1       0.954   1.816  -1.752  0.00  0.00    +0.002 A 
ATOM     31  C   UNL     1       0.912   3.164  -1.455  0.00  0.00    +0.023 A 
ATOM     32  C   UNL     1       0.148   3.615  -0.387  0.00  0.00    +0.036 A 
ENDBRANCH  22  32
ENDBRANCH   1  23
TORSDOF 5
