REMARK  Name = ZINC02208497
REMARK  13 active torsions:
REMARK  status: ('A' for Active; 'I' for Inactive)
REMARK    1  A    between atoms: C_1  and  C_2
REMARK    2  A    between atoms: C_2  and  O_3
REMARK    3  A    between atoms: O_3  and  C_4
REMARK    4  A    between atoms: C_4  and  C_6
REMARK    5  A    between atoms: C_6  and  C_7
REMARK    6  A    between atoms: C_6  and  N_11
REMARK    7  A    between atoms: C_6  and  N_25
REMARK    8  A    between atoms: N_11  and  C_12
REMARK    9  A    between atoms: C_13  and  C_21
REMARK   10  A    between atoms: C_20  and  N_58
REMARK   11  A    between atoms: C_21  and  O_23
REMARK   12  A    between atoms: O_23  and  C_24
REMARK   13  A    between atoms: C_26  and  C_28
REMARK                            x       y       z     vdW  Elec       q    Type
REMARK                         _______ _______ _______ _____ _____    ______ ____
ROOT
ATOM      1  C   UNL     1      -1.260   1.753  -0.087  0.00  0.00    +0.296 C 
ENDROOT
BRANCH   1   2
ATOM      2  C   UNL     1      -1.212   2.462  -1.442  0.00  0.00    +0.438 C 
ATOM      3  F   UNL     1      -0.979   1.522  -2.452  0.00  0.00    -0.166 F 
ATOM      4  F   UNL     1      -2.432   3.105  -1.676  0.00  0.00    -0.166 F 
ATOM      5  F   UNL     1      -0.180   3.407  -1.438  0.00  0.00    -0.166 F 
ENDBRANCH   1   2
BRANCH   1   6
ATOM      6  N   UNL     1      -2.416   0.855  -0.047  0.00  0.00    -0.274 N 
ATOM      7  C   UNL     1      -2.387  -0.312  -0.720  0.00  0.00    +0.246 C 
ATOM      8  O   UNL     1      -1.367  -0.666  -1.279  0.00  0.00    -0.270 OA
ATOM      9  H   UNL     1      -3.203   1.101   0.465  0.00  0.00    +0.152 HD
BRANCH   7  10
ATOM     10  C   UNL     1      -3.595  -1.163  -0.777  0.00  0.00    +0.037 A 
ATOM     11  C   UNL     1      -4.766  -0.762  -0.131  0.00  0.00    +0.013 A 
ATOM     12  C   UNL     1      -5.891  -1.558  -0.193  0.00  0.00    +0.001 A 
ATOM     13  C   UNL     1      -5.857  -2.756  -0.885  0.00  0.00    +0.000 A 
ATOM     14  C   UNL     1      -4.699  -3.161  -1.523  0.00  0.00    +0.001 A 
ATOM     15  C   UNL     1      -3.568  -2.372  -1.473  0.00  0.00    +0.013 A 
ENDBRANCH   7  10
ENDBRANCH   1   6
BRANCH   1  16
ATOM     16  C   UNL     1      -1.380   2.778   1.012  0.00  0.00    +0.359 C 
ATOM     17  O   UNL     1      -0.422   3.042   1.699  0.00  0.00    -0.246 OA
BRANCH  16  18
ATOM     18  O   UNL     1      -2.552   3.397   1.226  0.00  0.00    -0.462 OA
BRANCH  18  20
ATOM     19  C   UNL     1      -4.001   4.968   2.393  0.00  0.00    +0.048 C 
ATOM     20  C   UNL     1      -2.595   4.372   2.301  0.00  0.00    +0.229 C 
ENDBRANCH  18  20
ENDBRANCH  16  18
ENDBRANCH   1  16
BRANCH   1  21
ATOM     21  N   UNL     1      -0.032   0.977   0.102  0.00  0.00    -0.301 N 
ATOM     22  H   UNL     1       0.630   0.937  -0.606  0.00  0.00    +0.149 HD
BRANCH  21  23
ATOM     23  C   UNL     1       0.186   0.307   1.290  0.00  0.00    +0.082 A 
ATOM     24  C   UNL     1       1.244  -0.531   1.629  0.00  0.00    +0.090 A 
ATOM     25  C   UNL     1       1.233  -1.115   2.958  0.00  0.00    -0.025 A 
ATOM     26  C   UNL     1       0.178  -0.774   3.731  0.00  0.00    -0.021 A 
ATOM     27  S   UNL     1      -0.789   0.312   2.723  0.00  0.00    -0.080 S 
ATOM     28  C   UNL     1      -0.082  -1.230   5.132  0.00  0.00    -0.036 C 
ATOM     29  C   UNL     1       2.182  -2.088   5.026  0.00  0.00    -0.074 C 
ATOM     30  C   UNL     1       2.307  -2.050   3.500  0.00  0.00    +0.018 C 
ATOM     31  C   UNL     1       0.713  -2.777   6.824  0.00  0.00    -0.096 C 
ATOM     32  N   UNL     1       0.786  -2.404   5.395  0.00  0.00    +0.381 N 
ATOM     33  H   UNL     1       0.461  -3.195   4.827  0.00  0.00    -0.082 HD
BRANCH  24  34
ATOM     34  C   UNL     1       2.324  -0.812   0.683  0.00  0.00    +0.342 C 
ATOM     35  O   UNL     1       3.311  -0.101   0.658  0.00  0.00    -0.245 OA
BRANCH  34  36
ATOM     36  O   UNL     1       2.226  -1.860  -0.161  0.00  0.00    -0.464 OA
ATOM     37  C   UNL     1       3.318  -2.075  -1.057  0.00  0.00    +0.280 C 
ENDBRANCH  34  36
ENDBRANCH  24  34
ENDBRANCH  21  23
ENDBRANCH   1  21
TORSDOF 10
