REMARK  Name = ZINC59045454
REMARK  7 active torsions:
REMARK  status: ('A' for Active; 'I' for Inactive)
REMARK    1  A    between atoms: C_4  and  C_7
REMARK    2  A    between atoms: C_7  and  C_9
REMARK    3  A    between atoms: C_9  and  S_10
REMARK    4  A    between atoms: S_10  and  C_11
REMARK    5  A    between atoms: C_14  and  C_17
REMARK    6  A    between atoms: N_15  and  N_16
REMARK    7  A    between atoms: C_22  and  O_23
REMARK                            x       y       z     vdW  Elec       q    Type
REMARK                         _______ _______ _______ _____ _____    ______ ____
ROOT
ATOM      1  C   UNL     1       5.290  -4.520  -0.150  0.00  0.00    +0.209 A 
ATOM      2  N   UNL     1       4.185  -5.213   0.006  0.00  0.00    -0.121 NA
ATOM      3  N   UNL     1       4.453  -6.470   0.043  0.00  0.00    -0.127 NA
ATOM      4  C   UNL     1       5.746  -6.656  -0.086  0.00  0.00    +0.185 A 
ATOM      5  N   UNL     1       6.322  -5.414  -0.219  0.00  0.00    -0.224 N 
ENDROOT
BRANCH   4   6
ATOM      6  C   UNL     1       6.449  -7.956  -0.092  0.00  0.00    +0.062 A 
ATOM      7  C   UNL     1       7.596  -8.136   0.682  0.00  0.00    +0.015 A 
ATOM      8  C   UNL     1       8.249  -9.351   0.672  0.00  0.00    +0.001 A 
ATOM      9  C   UNL     1       7.770 -10.394  -0.103  0.00  0.00    +0.004 A 
ATOM     10  C   UNL     1       6.635 -10.227  -0.874  0.00  0.00    +0.046 A 
ATOM     11  C   UNL     1       5.965  -9.015  -0.870  0.00  0.00    +0.128 A 
BRANCH  11  12
ATOM     12  O   UNL     1       4.846  -8.852  -1.622  0.00  0.00    -0.506 OA
ATOM     13  H   UNL     1       5.018  -8.533  -2.519  0.00  0.00    +0.292 HD
ENDBRANCH  11  12
ENDBRANCH   4   6
BRANCH   5  14
ATOM     14  N   UNL     1       7.648  -5.132  -0.383  0.00  0.00    -0.295 N 
ATOM     15  H   UNL     1       8.122  -5.093   0.507  0.00  0.00    +0.163 HD
ATOM     16  H   UNL     1       8.087  -5.803  -0.997  0.00  0.00    +0.163 HD
ENDBRANCH   5  14
BRANCH   1  17
ATOM     17  S   UNL     1       5.418  -2.766  -0.257  0.00  0.00    -0.077 S 
BRANCH  17  18
ATOM     18  C   UNL     1       3.706  -2.191  -0.094  0.00  0.00    +0.157 C 
BRANCH  18  19
ATOM     19  C   UNL     1       3.672  -0.686  -0.170  0.00  0.00    +0.173 C 
ATOM     20  O   UNL     1       4.702  -0.063  -0.319  0.00  0.00    -0.291 OA
BRANCH  19  24
ATOM     21  C   UNL     1      -0.025   1.371   0.137  0.00  0.00    +0.000 A 
ATOM     22  C   UNL     1       1.149   2.086  -0.033  0.00  0.00    +0.001 A 
ATOM     23  C   UNL     1       2.354   1.424  -0.133  0.00  0.00    +0.011 A 
ATOM     24  C   UNL     1       2.390   0.028  -0.063  0.00  0.00    +0.018 A 
ATOM     25  C   UNL     1       1.200  -0.687   0.108  0.00  0.00    +0.011 A 
ATOM     26  C   UNL     1       0.002  -0.011   0.207  0.00  0.00    +0.001 A 
ENDBRANCH  19  24
ENDBRANCH  18  19
ENDBRANCH  17  18
ENDBRANCH   1  17
TORSDOF 7
