REMARK  Name = ZINC15162624
REMARK  8 active torsions:
REMARK  status: ('A' for Active; 'I' for Inactive)
REMARK    1  A    between atoms: C_1  and  C_2
REMARK    2  A    between atoms: C_2  and  O_3
REMARK    3  A    between atoms: O_3  and  C_4
REMARK    4  A    between atoms: C_4  and  C_6
REMARK    5  A    between atoms: C_7  and  N_33
REMARK    6  A    between atoms: N_8  and  C_24
REMARK    7  A    between atoms: C_11  and  C_13
REMARK    8  A    between atoms: C_27  and  N_30
REMARK                            x       y       z     vdW  Elec       q    Type
REMARK                         _______ _______ _______ _____ _____    ______ ____
ROOT
ATOM      1  C   UNL     1      -1.442   1.497   3.622  0.00  0.00    +0.084 C 
ATOM      2  C   UNL     1      -0.772   0.942   4.669  0.00  0.00    +0.103 C 
ATOM      3  N   UNL     1      -0.752   1.577   5.888  0.00  0.00    -0.261 N 
ATOM      4  C   UNL     1      -1.035   2.915   5.981  0.00  0.00    +0.024 C 
ATOM      5  C   UNL     1      -1.710   3.545   4.997  0.00  0.00    +0.025 C 
ATOM      6  C   UNL     1      -2.171   2.800   3.772  0.00  0.00    +0.094 C 
ATOM      7  C   UNL     1      -2.005   4.918   5.084  0.00  0.00    +0.162 C 
ATOM      8  O   UNL     1      -2.598   5.459   4.172  0.00  0.00    -0.292 OA
ATOM      9  C   UNL     1      -1.598   5.728   6.284  0.00  0.00    +0.080 C 
ATOM     10  C   UNL     1      -1.538   4.809   7.508  0.00  0.00    +0.014 C 
ATOM     11  C   UNL     1      -0.569   3.663   7.206  0.00  0.00    +0.052 C 
ENDROOT
BRANCH   6  12
ATOM     12  C   UNL     1      -3.648   2.529   3.890  0.00  0.00    -0.035 A 
ATOM     13  C   UNL     1      -4.127   1.747   4.925  0.00  0.00    +0.004 A 
ATOM     14  C   UNL     1      -5.483   1.502   5.036  0.00  0.00    +0.000 A 
ATOM     15  C   UNL     1      -6.359   2.031   4.108  0.00  0.00    +0.000 A 
ATOM     16  C   UNL     1      -5.880   2.809   3.070  0.00  0.00    +0.000 A 
ATOM     17  C   UNL     1      -4.525   3.058   2.961  0.00  0.00    +0.004 A 
ENDBRANCH   6  12
BRANCH   3  18
ATOM     18  C   UNL     1      -0.439   0.852   7.044  0.00  0.00    +0.040 A 
ATOM     19  C   UNL     1      -1.446   0.230   7.770  0.00  0.00    +0.026 A 
ATOM     20  C   UNL     1      -1.133  -0.490   8.906  0.00  0.00    +0.034 A 
ATOM     21  C   UNL     1       0.180  -0.582   9.328  0.00  0.00    +0.126 A 
ATOM     22  C   UNL     1       1.185   0.041   8.611  0.00  0.00    +0.034 A 
ATOM     23  C   UNL     1       0.880   0.757   7.470  0.00  0.00    +0.026 A 
BRANCH  21  24
ATOM     24  N   UNL     1       0.511  -1.349  10.550  0.00  0.00    +0.056 N 
ATOM     25  O   UNL     1       1.668  -1.431  10.923  0.00  0.00    -0.126 OA
ATOM     26  O   UNL     1      -0.373  -1.898  11.182  0.00  0.00    -0.126 OA
ENDBRANCH  21  24
ENDBRANCH   3  18
BRANCH   2  27
ATOM     27  N   UNL     1      -0.116  -0.251   4.508  0.00  0.00    -0.346 N 
ATOM     28  H   UNL     1       0.381  -0.424   3.693  0.00  0.00    +0.143 HD
ATOM     29  H   UNL     1      -0.149  -0.921   5.208  0.00  0.00    +0.143 HD
ENDBRANCH   2  27
BRANCH   1  30
ATOM     30  C   UNL     1      -1.447   0.842   2.382  0.00  0.00    +0.339 C 
ATOM     31  O   UNL     1      -0.936  -0.258   2.272  0.00  0.00    -0.245 OA
BRANCH  30  32
ATOM     32  O   UNL     1      -2.020   1.431   1.310  0.00  0.00    -0.462 OA
BRANCH  32  34
ATOM     33  C   UNL     1      -2.679   1.528  -1.013  0.00  0.00    +0.048 C 
ATOM     34  C   UNL     1      -1.988   0.708   0.078  0.00  0.00    +0.229 C 
ENDBRANCH  32  34
ENDBRANCH  30  32
ENDBRANCH   1  30
TORSDOF 7
