REMARK  Name = ZINC36911071
REMARK  4 active torsions:
REMARK  status: ('A' for Active; 'I' for Inactive)
REMARK    1  A    between atoms: C_1  and  C_2
REMARK    2  A    between atoms: C_5  and  N_8
REMARK    3  A    between atoms: C_16  and  C_17
REMARK    4  A    between atoms: C_17  and  C_19
REMARK                            x       y       z     vdW  Elec       q    Type
REMARK                         _______ _______ _______ _____ _____    ______ ____
ROOT
ATOM      1  N   UNL     1       0.058  -4.172  -0.021  0.00  0.00    -0.295 N 
ATOM      2  C   UNL     1      -0.940  -5.003  -0.496  0.00  0.00    +0.074 A 
ATOM      3  C   UNL     1      -2.183  -4.785  -1.074  0.00  0.00    +0.029 A 
ATOM      4  C   UNL     1      -2.962  -5.858  -1.450  0.00  0.00    +0.017 A 
ATOM      5  C   UNL     1      -2.512  -7.157  -1.254  0.00  0.00    +0.020 A 
ATOM      6  C   UNL     1      -1.282  -7.392  -0.683  0.00  0.00    +0.045 A 
ATOM      7  C   UNL     1      -0.479  -6.315  -0.297  0.00  0.00    +0.091 A 
ATOM      8  N   UNL     1       0.748  -6.221   0.277  0.00  0.00    -0.230 NA
ATOM      9  C   UNL     1       1.065  -4.969   0.433  0.00  0.00    +0.133 A 
ATOM     10 BR   UNL     1      -3.598  -8.615  -1.776  0.00  0.00    -0.050 Br
ENDROOT
BRANCH   1  15
ATOM     11  C   UNL     1      -0.018   1.503   0.010  0.00  0.00    +0.044 C 
ATOM     12  C   UNL     1       0.002  -0.004   0.002  0.00  0.00    -0.050 A 
ATOM     13  C   UNL     1       0.006  -0.688  -1.200  0.00  0.00    +0.005 A 
ATOM     14  C   UNL     1       0.024  -2.068  -1.211  0.00  0.00    +0.026 A 
ATOM     15  C   UNL     1       0.040  -2.771  -0.013  0.00  0.00    +0.048 A 
ATOM     16  C   UNL     1       0.036  -2.082   1.192  0.00  0.00    +0.026 A 
ATOM     17  C   UNL     1       0.023  -0.700   1.196  0.00  0.00    +0.005 A 
ENDBRANCH   1  15
BRANCH   9  18
ATOM     18  C   UNL     1       2.356  -4.473   1.033  0.00  0.00    +0.144 C 
ATOM     19  C   UNL     1       3.488  -4.643   0.018  0.00  0.00    +0.033 C 
ATOM     20 CL   UNL     1       2.732  -5.423   2.519  0.00  0.00    -0.114 Cl
ENDBRANCH   9  18
TORSDOF 2
