REMARK  Name = ZINC63625891
REMARK  6 active torsions:
REMARK  status: ('A' for Active; 'I' for Inactive)
REMARK    1  A    between atoms: C_1  and  C_2
REMARK    2  A    between atoms: C_8  and  C_10
REMARK    3  A    between atoms: C_10  and  S_11
REMARK    4  A    between atoms: S_11  and  C_12
REMARK    5  A    between atoms: C_18  and  O_22
REMARK    6  A    between atoms: O_22  and  C_23
REMARK                            x       y       z     vdW  Elec       q    Type
REMARK                         _______ _______ _______ _____ _____    ______ ____
ROOT
ATOM      1  C   UNL     1       2.064  -8.482  -0.051  0.00  0.00    +0.236 C 
ATOM      2  N   UNL     1       2.942  -8.361  -1.220  0.00  0.00    -0.355 N 
ATOM      3  C   UNL     1       4.160  -8.217  -0.784  0.00  0.00    +0.061 A 
ATOM      4  C   UNL     1       5.447  -8.052  -1.477  0.00  0.00    +0.031 A 
ATOM      5  C   UNL     1       6.580  -7.923  -0.762  0.00  0.00    +0.048 A 
ATOM      6  C   UNL     1       6.577  -7.941   0.695  0.00  0.00    +0.122 A 
ATOM      7  C   UNL     1       5.433  -8.090   1.406  0.00  0.00    +0.073 A 
ATOM      8  C   UNL     1       4.156  -8.236   0.704  0.00  0.00    +0.064 A 
ATOM      9  N   UNL     1       2.931  -8.392   1.131  0.00  0.00    -0.355 N 
ATOM     10  H   UNL     1       2.666  -8.383  -2.150  0.00  0.00    +0.162 HD
ATOM     11  H   UNL     1       2.646  -8.438   2.057  0.00  0.00    +0.162 HD
ENDROOT
BRANCH   6  12
ATOM     12  O   UNL     1       7.753  -7.807   1.358  0.00  0.00    -0.495 OA
ATOM     13  C   UNL     1       8.931  -7.654   0.565  0.00  0.00    +0.277 C 
ENDBRANCH   6  12
BRANCH   1  14
ATOM     14  S   UNL     1       0.852  -7.133  -0.039  0.00  0.00    -0.106 S 
BRANCH  14  15
ATOM     15  C   UNL     1       1.869  -5.630  -0.035  0.00  0.00    +0.169 C 
BRANCH  15  23
ATOM     16  C   UNL     1      -0.018   1.503   0.010  0.00  0.00    +0.088 C 
ATOM     17  C   UNL     1       0.002  -0.004   0.002  0.00  0.00    +0.124 A 
ATOM     18  C   UNL     1      -1.067  -0.814   0.003  0.00  0.00    +0.157 A 
ATOM     19  N   UNL     1      -0.621  -2.084  -0.006  0.00  0.00    -0.203 NA
ATOM     20  C   UNL     1       0.689  -2.067  -0.012  0.00  0.00    +0.294 A 
ATOM     21  O   UNL     1       1.100  -0.790  -0.013  0.00  0.00    -0.430 OA
ATOM     22  N   UNL     1       1.512  -3.183  -0.021  0.00  0.00    -0.239 N 
ATOM     23  C   UNL     1       0.974  -4.418  -0.025  0.00  0.00    +0.230 C 
ATOM     24  O   UNL     1      -0.232  -4.554  -0.021  0.00  0.00    -0.274 OA
ATOM     25  H   UNL     1       2.476  -3.074  -0.025  0.00  0.00    +0.159 HD
ENDBRANCH  15  23
ENDBRANCH  14  15
ENDBRANCH   1  14
TORSDOF 4
