REMARK  Name = ZINC23489069
REMARK  9 active torsions:
REMARK  status: ('A' for Active; 'I' for Inactive)
REMARK    1  A    between atoms: C_1  and  C_2
REMARK    2  A    between atoms: C_2  and  C_4
REMARK    3  A    between atoms: C_2  and  N_11
REMARK    4  A    between atoms: C_12  and  C_14
REMARK    5  A    between atoms: C_14  and  C_16
REMARK    6  A    between atoms: C_14  and  N_20
REMARK    7  A    between atoms: C_16  and  C_17
REMARK    8  A    between atoms: C_17  and  C_18
REMARK    9  A    between atoms: C_17  and  C_19
REMARK                            x       y       z     vdW  Elec       q    Type
REMARK                         _______ _______ _______ _____ _____    ______ ____
ROOT
ATOM      1  C   UNL     1      -2.820  -0.732  -1.058  0.00  0.00    +0.170 C 
ENDROOT
BRANCH   1   2
ATOM      2  N   UNL     1      -3.044  -0.757  -2.506  0.00  0.00    -0.230 N 
ATOM      3  C   UNL     1      -3.222  -1.896  -3.203  0.00  0.00    +0.227 C 
ATOM      4  O   UNL     1      -3.424  -2.998  -2.740  0.00  0.00    -0.275 OA
ATOM      5  C   UNL     1      -3.123  -1.537  -4.695  0.00  0.00    +0.091 C 
ATOM      6  C   UNL     1      -1.633  -1.652  -5.026  0.00  0.00    +0.040 C 
ATOM      7  C   UNL     1      -1.173  -0.654  -6.032  0.00  0.00    -0.030 C 
ATOM      8  C   UNL     1      -1.813   0.422  -6.351  0.00  0.00    -0.030 C 
ATOM      9  C   UNL     1      -3.146   0.785  -5.777  0.00  0.00    +0.040 C 
ATOM     10  C   UNL     1      -3.574  -0.069  -4.620  0.00  0.00    +0.091 C 
ATOM     11  C   UNL     1      -3.097   0.362  -3.264  0.00  0.00    +0.227 C 
ATOM     12  O   UNL     1      -2.812   1.488  -2.918  0.00  0.00    -0.275 OA
ENDBRANCH   1   2
BRANCH   1  14
ATOM     13  N   UNL     1      -0.999  -0.118   0.499  0.00  0.00    -0.307 N 
ATOM     14  C   UNL     1      -1.429  -0.227  -0.774  0.00  0.00    +0.234 C 
ATOM     15  O   UNL     1      -0.697   0.082  -1.690  0.00  0.00    -0.274 OA
ATOM     16  H   UNL     1      -1.585  -0.365   1.232  0.00  0.00    +0.149 HD
BRANCH  13  18
ATOM     17  C   UNL     1       0.345   1.902   0.803  0.00  0.00    +0.033 C 
ATOM     18  C   UNL     1       0.354   0.372   0.775  0.00  0.00    +0.100 C 
BRANCH  18  19
ATOM     19  C   UNL     1       0.815  -0.151   2.111  0.00  0.00    -0.027 A 
ATOM     20  C   UNL     1      -0.071  -0.214   3.171  0.00  0.00    +0.008 A 
ATOM     21  C   UNL     1       0.351  -0.695   4.397  0.00  0.00    +0.038 A 
ATOM     22  C   UNL     1       1.660  -1.113   4.562  0.00  0.00    +0.123 A 
ATOM     23  C   UNL     1       2.546  -1.050   3.500  0.00  0.00    +0.038 A 
ATOM     24  C   UNL     1       2.121  -0.574   2.274  0.00  0.00    +0.008 A 
ATOM     25  F   UNL     1       2.073  -1.583   5.760  0.00  0.00    -0.205 F 
ENDBRANCH  18  19
ENDBRANCH  13  18
ENDBRANCH   1  14
BRANCH   1  26
ATOM     26  C   UNL     1      -3.844   0.195  -0.400  0.00  0.00    +0.035 C 
BRANCH  26  27
ATOM     27  C   UNL     1      -5.242  -0.413  -0.531  0.00  0.00    -0.015 C 
ATOM     28  C   UNL     1      -6.228   0.386   0.324  0.00  0.00    +0.007 C 
ATOM     29  C   UNL     1      -5.682  -0.368  -1.995  0.00  0.00    +0.007 C 
ENDBRANCH  26  27
ENDBRANCH   1  26
TORSDOF 6
