REMARK  Name = ZINC09403694
REMARK  10 active torsions:
REMARK  status: ('A' for Active; 'I' for Inactive)
REMARK    1  A    between atoms: C_1  and  C_2
REMARK    2  A    between atoms: C_5  and  C_7
REMARK    3  A    between atoms: C_10  and  C_11
REMARK    4  A    between atoms: C_10  and  O_22
REMARK    5  A    between atoms: C_18  and  C_21
REMARK    6  A    between atoms: N_27  and  C_28
REMARK    7  A    between atoms: C_28  and  C_29
REMARK    8  A    between atoms: C_29  and  N_56
REMARK    9  A    between atoms: C_30  and  N_56
REMARK   10  A    between atoms: C_31  and  N_56
REMARK                            x       y       z     vdW  Elec       q    Type
REMARK                         _______ _______ _______ _____ _____    ______ ____
ROOT
ATOM      1  C   UNL     1       5.006   3.864   0.212  0.00  0.00    +0.180 C 
ATOM      2  C   UNL     1       3.629   3.251   0.096  0.00  0.00    +0.074 C 
ATOM      3  C   UNL     1       2.427   3.925   0.003  0.00  0.00    +0.133 C 
ATOM      4  C   UNL     1       3.818   1.861   0.109  0.00  0.00    +0.249 C 
ATOM      5  O   UNL     1       2.940   1.020   0.039  0.00  0.00    -0.282 OA
ATOM      6  C   UNL     1       5.277   1.592   0.221  0.00  0.00    +0.288 C 
ATOM      7  O   UNL     1       5.780   0.487   0.256  0.00  0.00    -0.266 OA
ATOM      8  N   UNL     1       5.956   2.749   0.282  0.00  0.00    -0.282 N 
ENDROOT
BRANCH   3   9
ATOM      9  C   UNL     1       1.185   3.180  -0.258  0.00  0.00    +0.017 A 
ATOM     10  C   UNL     1       1.119   2.269  -1.319  0.00  0.00    +0.015 A 
ATOM     11  C   UNL     1      -0.041   1.572  -1.560  0.00  0.00    +0.046 A 
ATOM     12  C   UNL     1      -1.165   1.769  -0.754  0.00  0.00    +0.124 A 
ATOM     13  C   UNL     1      -1.094   2.678   0.298  0.00  0.00    -0.002 A 
ATOM     14  C   UNL     1       0.059   3.377   0.551  0.00  0.00    +0.019 A 
ATOM     15  C   UNL     1      -2.455   2.686   0.970  0.00  0.00    +0.083 C 
ATOM     16  C   UNL     1      -3.338   1.988  -0.095  0.00  0.00    +0.175 C 
ATOM     17  O   UNL     1      -2.389   1.180  -0.812  0.00  0.00    -0.488 OA
ATOM     18  C   UNL     1      -3.996   3.007  -1.028  0.00  0.00    +0.052 C 
ENDBRANCH   3   9
BRANCH   1  23
ATOM     19  C   UNL     1       6.259   5.204  -4.487  0.00  0.00    +0.086 C 
ATOM     20  C   UNL     1       5.841   5.296  -3.042  0.00  0.00    +0.102 A 
ATOM     21  C   UNL     1       5.574   6.431  -2.371  0.00  0.00    +0.045 A 
ATOM     22  C   UNL     1       5.218   6.055  -1.056  0.00  0.00    +0.047 A 
ATOM     23  C   UNL     1       5.296   4.713  -0.999  0.00  0.00    +0.130 A 
ATOM     24  O   UNL     1       5.671   4.258  -2.206  0.00  0.00    -0.463 OA
ENDBRANCH   1  23
BRANCH   3  25
ATOM     25  O   UNL     1       2.391   5.266   0.153  0.00  0.00    -0.506 OA
ATOM     26  H   UNL     1       1.449   5.587   0.056  0.00  0.00    +0.292 HD
ENDBRANCH   3  25
BRANCH   8  27
ATOM     27  C   UNL     1       7.411   2.878   0.401  0.00  0.00    +0.091 C 
BRANCH  27  28
ATOM     28  C   UNL     1       7.801   2.914   1.880  0.00  0.00    -0.060 C 
BRANCH  28  31
ATOM     29  C   UNL     1       9.652   3.319   3.387  0.00  0.00    -0.097 C 
ATOM     30  C   UNL     1       9.937   1.843   1.488  0.00  0.00    -0.097 C 
ATOM     31  N   UNL     1       9.268   3.065   1.982  0.00  0.00    +0.377 N 
ATOM     32  H   UNL     1       9.562   3.863   1.407  0.00  0.00    -0.083 HD
ENDBRANCH  28  31
ENDBRANCH  27  28
ENDBRANCH   8  27
TORSDOF 6
