REMARK  Name = ZINC39357443
REMARK  6 active torsions:
REMARK  status: ('A' for Active; 'I' for Inactive)
REMARK    1  A    between atoms: C_1  and  C_2
REMARK    2  A    between atoms: C_7  and  C_12
REMARK    3  A    between atoms: C_15  and  O_20
REMARK    4  A    between atoms: C_17  and  O_18
REMARK    5  A    between atoms: O_18  and  C_19
REMARK    6  A    between atoms: O_20  and  C_21
REMARK                            x       y       z     vdW  Elec       q    Type
REMARK                         _______ _______ _______ _____ _____    ______ ____
ROOT
ATOM      1  C   UNL     1      -0.018   1.503   0.010  0.00  0.00    +0.062 C 
ATOM      2  C   UNL     1       0.002  -0.004   0.002  0.00  0.00    +0.027 C 
ATOM      3  C   UNL     1      -1.086  -0.772   0.003  0.00  0.00    +0.035 C 
ATOM      4  C   UNL     1      -0.631  -2.221  -0.144  0.00  0.00    +0.132 C 
ATOM      5  C   UNL     1      -1.278  -3.019   0.982  0.00  0.00    +0.038 C 
ATOM      6  C   UNL     1      -2.763  -2.726   1.125  0.00  0.00    +0.032 C 
ATOM      7  C   UNL     1      -3.313  -1.758   0.085  0.00  0.00    +0.087 C 
ATOM      8  C   UNL     1      -2.464  -0.491   0.105  0.00  0.00    +0.163 C 
ATOM      9  O   UNL     1      -2.924   0.631   0.176  0.00  0.00    -0.292 OA
ATOM     10  N   UNL     1       0.827  -2.127   0.003  0.00  0.00    -0.215 N 
ATOM     11  N   UNL     1       1.134  -0.758  -0.013  0.00  0.00    -0.265 N 
ATOM     12  C   UNL     1       1.716  -3.174   0.127  0.00  0.00    +0.214 A 
ATOM     13  N   UNL     1       1.388  -4.442   0.133  0.00  0.00    -0.213 NA
ATOM     14  C   UNL     1       2.506  -5.202   0.272  0.00  0.00    +0.091 A 
ATOM     15  C   UNL     1       2.729  -6.579   0.337  0.00  0.00    +0.030 A 
ATOM     16  C   UNL     1       4.012  -7.059   0.484  0.00  0.00    +0.002 A 
ATOM     17  C   UNL     1       5.085  -6.184   0.569  0.00  0.00    +0.002 A 
ATOM     18  C   UNL     1       4.881  -4.820   0.506  0.00  0.00    +0.028 A 
ATOM     19  C   UNL     1       3.597  -4.321   0.357  0.00  0.00    +0.067 A 
ATOM     20  N   UNL     1       3.068  -3.044   0.257  0.00  0.00    -0.325 N 
ATOM     21  H   UNL     1       2.034  -0.397  -0.031  0.00  0.00    +0.170 HD
ATOM     22  H   UNL     1       3.567  -2.212   0.278  0.00  0.00    +0.169 HD
ENDROOT
BRANCH   6  23
ATOM     23  C   UNL     1      -3.007  -2.144   2.494  0.00  0.00    -0.002 A 
ATOM     24  C   UNL     1      -2.387  -0.965   2.862  0.00  0.00    +0.011 A 
ATOM     25  C   UNL     1      -2.608  -0.428   4.116  0.00  0.00    +0.046 A 
ATOM     26  C   UNL     1      -3.453  -1.073   5.009  0.00  0.00    +0.124 A 
ATOM     27  C   UNL     1      -4.076  -2.256   4.641  0.00  0.00    +0.091 A 
ATOM     28  C   UNL     1      -3.857  -2.789   3.380  0.00  0.00    +0.127 A 
BRANCH  28  29
ATOM     29  O   UNL     1      -4.470  -3.945   3.015  0.00  0.00    -0.495 OA
ATOM     30  C   UNL     1      -5.332  -4.555   3.978  0.00  0.00    +0.277 C 
ENDBRANCH  28  29
BRANCH  26  31
ATOM     31  O   UNL     1      -3.670  -0.545   6.242  0.00  0.00    -0.495 OA
ATOM     32  C   UNL     1      -2.996   0.676   6.553  0.00  0.00    +0.277 C 
ENDBRANCH  26  31
ENDBRANCH   6  23
TORSDOF 3
