REMARK  Name = ZINC01580597
REMARK  5 active torsions:
REMARK  status: ('A' for Active; 'I' for Inactive)
REMARK    1  A    between atoms: C_1  and  N_42
REMARK    2  A    between atoms: C_2  and  C_20
REMARK    3  A    between atoms: C_4  and  C_17
REMARK    4  A    between atoms: N_7  and  C_16
REMARK    5  A    between atoms: C_8  and  C_10
REMARK                            x       y       z     vdW  Elec       q    Type
REMARK                         _______ _______ _______ _____ _____    ______ ____
ROOT
ATOM      1  C   UNL     1      -1.403  -0.215  -0.351  0.00  0.00    -0.092 C 
ATOM      2  C   UNL     1       0.189   1.564   0.069  0.00  0.00    +0.010 C 
ATOM      3  C   UNL     1       1.693   1.853   0.079  0.00  0.00    +0.198 C 
ATOM      4  C   UNL     1       2.371   0.945   1.068  0.00  0.00    +0.248 C 
ATOM      5  O   UNL     1       3.491   1.220   1.442  0.00  0.00    -0.273 OA
ATOM      6  N   UNL     1       1.783  -0.155   1.550  0.00  0.00    -0.312 N 
ATOM      7  C   UNL     1       0.427  -0.558   1.195  0.00  0.00    +0.053 C 
ATOM      8  C   UNL     1       2.539  -0.998   2.479  0.00  0.00    +0.130 C 
ATOM      9 CL   UNL     1       1.972   3.571   0.551  0.00  0.00    -0.093 Cl
ATOM     10  N   UNL     1       0.012   0.101  -0.057  0.00  0.00    +0.400 N 
ATOM     11  H   UNL     1       0.598  -0.243  -0.826  0.00  0.00    -0.078 HD
ENDROOT
BRANCH   7  12
ATOM     12  C   UNL     1       0.389  -2.051   0.992  0.00  0.00    -0.044 A 
ATOM     13  C   UNL     1       1.203  -2.641   0.043  0.00  0.00    +0.003 A 
ATOM     14  C   UNL     1       1.172  -4.010  -0.140  0.00  0.00    +0.000 A 
ATOM     15  C   UNL     1       0.319  -4.790   0.620  0.00  0.00    +0.000 A 
ATOM     16  C   UNL     1      -0.498  -4.200   1.566  0.00  0.00    +0.000 A 
ATOM     17  C   UNL     1      -0.463  -2.831   1.752  0.00  0.00    +0.003 A 
ENDBRANCH   7  12
BRANCH   2  18
ATOM     18  C   UNL     1      -0.450   2.248  -1.112  0.00  0.00    -0.058 A 
ATOM     19  C   UNL     1      -0.346   1.692  -2.373  0.00  0.00    +0.002 A 
ATOM     20  C   UNL     1      -0.936   2.318  -3.455  0.00  0.00    +0.000 A 
ATOM     21  C   UNL     1      -1.623   3.505  -3.277  0.00  0.00    +0.000 A 
ATOM     22  C   UNL     1      -1.723   4.063  -2.017  0.00  0.00    +0.000 A 
ATOM     23  C   UNL     1      -1.137   3.435  -0.934  0.00  0.00    +0.002 A 
ENDBRANCH   2  18
BRANCH   3  24
ATOM     24  C   UNL     1       2.247   1.617  -1.264  0.00  0.00    +0.093 C 
ATOM     25  N   UNL     1       2.675   1.434  -2.301  0.00  0.00    -0.194 NA
ENDBRANCH   3  24
TORSDOF 3
