REMARK  Name = ZINC20744831
REMARK  5 active torsions:
REMARK  status: ('A' for Active; 'I' for Inactive)
REMARK    1  A    between atoms: C_1  and  C_2
REMARK    2  A    between atoms: C_4  and  C_22
REMARK    3  A    between atoms: C_6  and  S_8
REMARK    4  A    between atoms: S_8  and  C_9
REMARK    5  A    between atoms: C_20  and  O_21
REMARK                            x       y       z     vdW  Elec       q    Type
REMARK                         _______ _______ _______ _____ _____    ______ ____
ROOT
ATOM      1  C   UNL     1       0.041  -1.542   3.919  0.00  0.00    +0.140 C 
ATOM      2  C   UNL     1      -0.100  -2.158   5.290  0.00  0.00    +0.029 C 
ATOM      3  C   UNL     1      -0.467  -1.164   6.348  0.00  0.00    +0.039 C 
ATOM      4  C   UNL     1       0.644  -0.274   6.807  0.00  0.00    -0.022 A 
ATOM      5  C   UNL     1       0.623   0.077   8.155  0.00  0.00    +0.006 A 
ATOM      6  C   UNL     1       1.584   0.899   8.700  0.00  0.00    +0.000 A 
ATOM      7  C   UNL     1       2.596   1.392   7.895  0.00  0.00    +0.002 A 
ATOM      8  C   UNL     1       2.635   1.053   6.566  0.00  0.00    +0.028 A 
ATOM      9  C   UNL     1       1.659   0.207   5.995  0.00  0.00    +0.071 A 
ATOM     10  N   UNL     1       1.834  -0.058   4.687  0.00  0.00    -0.216 NA
ATOM     11  C   UNL     1       1.291  -0.747   3.791  0.00  0.00    +0.201 C 
ENDROOT
BRANCH  11  12
ATOM     12  O   UNL     1       1.901  -0.767   2.588  0.00  0.00    -0.495 OA
ATOM     13  H   UNL     1       2.709  -0.237   2.549  0.00  0.00    +0.293 HD
ENDBRANCH  11  12
BRANCH   1  14
ATOM     14  S   UNL     1       0.053  -2.864   2.678  0.00  0.00    -0.073 S 
BRANCH  14  20
ATOM     15  C   UNL     1      -0.018   1.503   0.010  0.00  0.00    +0.066 C 
ATOM     16  C   UNL     1       0.002  -0.004   0.002  0.00  0.00    +0.043 A 
ATOM     17  C   UNL     1       0.006  -0.699  -1.198  0.00  0.00    +0.046 A 
ATOM     18  C   UNL     1       0.025  -2.084  -1.161  0.00  0.00    +0.043 A 
ATOM     19  N   UNL     1       0.039  -2.699   0.010  0.00  0.00    -0.227 NA
ATOM     20  C   UNL     1       0.035  -2.005   1.140  0.00  0.00    +0.189 A 
ATOM     21  N   UNL     1       0.022  -0.679   1.139  0.00  0.00    -0.227 NA
ATOM     22  C   UNL     1       0.029  -2.881  -2.440  0.00  0.00    +0.066 C 
ENDBRANCH  14  20
ENDBRANCH   1  14
TORSDOF 3
