REMARK  Name = ZINC31299751
REMARK  10 active torsions:
REMARK  status: ('A' for Active; 'I' for Inactive)
REMARK    1  A    between atoms: C_1  and  C_2
REMARK    2  A    between atoms: C_6  and  N_9
REMARK    3  A    between atoms: C_7  and  C_8
REMARK    4  A    between atoms: C_10  and  C_12
REMARK    5  A    between atoms: C_12  and  N_13
REMARK    6  A    between atoms: N_13  and  C_14
REMARK    7  A    between atoms: N_13  and  C_15
REMARK    8  A    between atoms: C_15  and  C_17
REMARK    9  A    between atoms: C_15  and  C_18
REMARK   10  A    between atoms: N_23  and  C_24
REMARK                            x       y       z     vdW  Elec       q    Type
REMARK                         _______ _______ _______ _____ _____    ______ ____
ROOT
ATOM      1  N   UNL     1      -0.586  -5.857   3.908  0.00  0.00    +0.391 N 
ATOM      2  C   UNL     1      -1.799  -6.056   3.103  0.00  0.00    -0.094 C 
ATOM      3  H   UNL     1       0.192  -5.654   3.299  0.00  0.00    -0.080 HD
ENDROOT
BRANCH   1   4
ATOM      4  C   UNL     1      -0.302  -7.076   4.677  0.00  0.00    +0.017 C 
ATOM      5  C   UNL     1      -0.142  -8.257   3.718  0.00  0.00    -0.004 C 
BRANCH   4   6
ATOM      6  C   UNL     1       0.970  -6.890   5.463  0.00  0.00    +0.207 C 
ATOM      7  O   UNL     1       1.830  -6.139   5.055  0.00  0.00    -0.277 OA
ATOM      8  N   UNL     1       1.152  -7.558   6.619  0.00  0.00    -0.242 N 
ATOM      9  C   UNL     1       2.290  -7.391   7.321  0.00  0.00    +0.306 C 
ATOM     10  O   UNL     1       3.152  -6.639   6.912  0.00  0.00    -0.252 OA
ATOM     11  N   UNL     1       2.472  -8.060   8.477  0.00  0.00    -0.296 N 
ATOM     12  H   UNL     1       0.464  -8.159   6.945  0.00  0.00    +0.159 HD
ATOM     13  H   UNL     1       1.784  -8.661   8.804  0.00  0.00    +0.151 HD
BRANCH  11  14
ATOM     14  C   UNL     1       3.709  -7.879   9.241  0.00  0.00    +0.074 C 
ATOM     15  C   UNL     1       3.576  -6.650  10.143  0.00  0.00    +0.022 C 
ATOM     16  C   UNL     1       4.868  -6.461  10.941  0.00  0.00    +0.002 C 
ATOM     17  C   UNL     1       5.122  -7.700  11.801  0.00  0.00    +0.000 C 
ATOM     18  C   UNL     1       5.255  -8.929  10.900  0.00  0.00    +0.002 C 
ATOM     19  C   UNL     1       3.963  -9.118  10.102  0.00  0.00    +0.022 C 
ENDBRANCH  11  14
ENDBRANCH   4   6
ENDBRANCH   1   4
BRANCH   1  20
ATOM     20  C   UNL     1      -0.791  -4.732   4.831  0.00  0.00    +0.020 C 
BRANCH  20  22
ATOM     21  N   UNL     1      -1.102  -2.283   4.686  0.00  0.00    -0.287 N 
ATOM     22  C   UNL     1      -0.909  -3.452   4.045  0.00  0.00    +0.201 C 
ATOM     23  O   UNL     1      -0.831  -3.474   2.835  0.00  0.00    -0.278 OA
ATOM     24  H   UNL     1      -1.077  -2.251   5.655  0.00  0.00    +0.155 HD
BRANCH  21  30
ATOM     25  C   UNL     1      -1.143   2.628   4.451  0.00  0.00    +0.044 C 
ATOM     26  C   UNL     1      -1.367   1.280   3.816  0.00  0.00    -0.046 A 
ATOM     27  C   UNL     1      -1.808   1.197   2.507  0.00  0.00    +0.004 A 
ATOM     28  C   UNL     1      -2.014  -0.038   1.921  0.00  0.00    +0.002 A 
ATOM     29  C   UNL     1      -1.781  -1.193   2.641  0.00  0.00    +0.023 A 
ATOM     30  C   UNL     1      -1.339  -1.114   3.954  0.00  0.00    +0.036 A 
ATOM     31  C   UNL     1      -1.127   0.128   4.539  0.00  0.00    -0.026 A 
ATOM     32  C   UNL     1      -0.642   0.219   5.963  0.00  0.00    +0.046 C 
ENDBRANCH  21  30
ENDBRANCH  20  22
ENDBRANCH   1  20
TORSDOF 6
