REMARK  Name = ZINC55651687
REMARK  7 active torsions:
REMARK  status: ('A' for Active; 'I' for Inactive)
REMARK    1  A    between atoms: C_1  and  C_2
REMARK    2  A    between atoms: C_3  and  N_23
REMARK    3  A    between atoms: C_7  and  S_8
REMARK    4  A    between atoms: S_8  and  N_11
REMARK    5  A    between atoms: N_11  and  C_12
REMARK    6  A    between atoms: C_17  and  C_18
REMARK    7  A    between atoms: N_20  and  C_21
REMARK                            x       y       z     vdW  Elec       q    Type
REMARK                         _______ _______ _______ _____ _____    ______ ____
ROOT
ATOM      1  S   UNL     1       0.141   0.171   2.723  0.00  0.00    +0.092 S 
ATOM      2  O   UNL     1      -0.939   1.095   2.712  0.00  0.00    -0.148 OA
ATOM      3  O   UNL     1       0.296  -0.807   3.743  0.00  0.00    -0.148 OA
ENDROOT
BRANCH   1  10
ATOM      4  C   UNL     1      -0.130   1.499   0.019  0.00  0.00    +0.048 C 
ATOM      5  C   UNL     1      -0.051  -0.006   0.006  0.00  0.00    +0.006 A 
ATOM      6  C   UNL     1      -0.099  -0.690  -1.194  0.00  0.00    +0.131 A 
ATOM      7  C   UNL     1      -0.026  -2.070  -1.206  0.00  0.00    +0.033 A 
ATOM      8  C   UNL     1       0.093  -2.767  -0.018  0.00  0.00    +0.004 A 
ATOM      9  C   UNL     1       0.142  -2.083   1.182  0.00  0.00    +0.029 A 
ATOM     10  C   UNL     1       0.074  -0.702   1.194  0.00  0.00    +0.115 A 
BRANCH   6  11
ATOM     11  N   UNL     1      -0.227   0.055  -2.466  0.00  0.00    +0.057 N 
ATOM     12  O   UNL     1      -0.907  -0.390  -3.362  0.00  0.00    -0.126 OA
ATOM     13  O   UNL     1       0.348   1.109  -2.610  0.00  0.00    -0.126 OA
ENDBRANCH   6  11
ENDBRANCH   1  10
BRANCH   1  14
ATOM     14  N   UNL     1       1.532   1.069   2.714  0.00  0.00    -0.097 NA
BRANCH  14  15
ATOM     15  C   UNL     1       1.851   1.867   3.805  0.00  0.00    +0.088 A 
ATOM     16  C   UNL     1       1.008   1.910   4.908  0.00  0.00    +0.047 A 
ATOM     17  C   UNL     1       1.328   2.705   5.991  0.00  0.00    +0.043 A 
ATOM     18  C   UNL     1       2.490   3.464   5.987  0.00  0.00    +0.021 A 
ATOM     19  C   UNL     1       3.337   3.433   4.902  0.00  0.00    +0.016 A 
ATOM     20  C   UNL     1       3.030   2.629   3.800  0.00  0.00    +0.061 A 
ATOM     21 CL   UNL     1       0.270   2.755   7.367  0.00  0.00    -0.083 Cl
BRANCH  20  22
ATOM     22  C   UNL     1       3.936   2.587   2.639  0.00  0.00    +0.246 C 
ATOM     23  O   UNL     1       3.663   1.891   1.680  0.00  0.00    -0.270 OA
ATOM     24  N   UNL     1       5.066   3.321   2.639  0.00  0.00    -0.314 N 
ATOM     25  C   UNL     1       5.967   3.279   1.484  0.00  0.00    +0.128 C 
ATOM     26  H   UNL     1       5.284   3.877   3.404  0.00  0.00    +0.149 HD
ENDBRANCH  20  22
ENDBRANCH  14  15
ENDBRANCH   1  14
TORSDOF 5
