REMARK  Name = ZINC22323815
REMARK  11 active torsions:
REMARK  status: ('A' for Active; 'I' for Inactive)
REMARK    1  A    between atoms: C_1  and  C_2
REMARK    2  A    between atoms: C_5  and  S_8
REMARK    3  A    between atoms: S_8  and  N_11
REMARK    4  A    between atoms: N_11  and  C_12
REMARK    5  A    between atoms: N_11  and  C_31
REMARK    6  A    between atoms: C_12  and  C_13
REMARK    7  A    between atoms: N_15  and  C_16
REMARK    8  A    between atoms: C_19  and  C_29
REMARK    9  A    between atoms: C_19  and  C_30
REMARK   10  A    between atoms: C_25  and  O_27
REMARK   11  A    between atoms: O_27  and  C_28
REMARK                            x       y       z     vdW  Elec       q    Type
REMARK                         _______ _______ _______ _____ _____    ______ ____
ROOT
ATOM      1  C   UNL     1       0.245   0.850   7.377  0.00  0.00    +0.227 C 
ENDROOT
BRANCH   1   2
ATOM      2  C   UNL     1      -0.586   1.073   6.140  0.00  0.00    +0.233 C 
ATOM      3  O   UNL     1      -1.797   1.075   6.216  0.00  0.00    -0.274 OA
ATOM      4  N   UNL     1       0.015   1.272   4.951  0.00  0.00    -0.307 N 
ATOM      5  H   UNL     1       1.113   1.270   4.882  0.00  0.00    +0.149 HD
BRANCH   4   6
ATOM      6  C   UNL     1      -0.793   1.489   3.748  0.00  0.00    +0.110 C 
ATOM      7  C   UNL     1       0.009   1.074   2.513  0.00  0.00    +0.074 C 
ATOM      8  C   UNL     1      -0.729   1.579   1.267  0.00  0.00    +0.107 C 
ATOM      9  O   UNL     1      -0.729   3.007   1.292  0.00  0.00    -0.486 OA
ATOM     10  C   UNL     1      -1.115   3.622   2.440  0.00  0.00    +0.130 A 
ATOM     11  C   UNL     1      -1.161   2.948   3.649  0.00  0.00    +0.015 A 
ATOM     12  C   UNL     1      -1.551   3.616   4.798  0.00  0.00    +0.012 A 
ATOM     13  C   UNL     1      -1.897   4.951   4.746  0.00  0.00    +0.046 A 
ATOM     14  C   UNL     1      -1.856   5.631   3.537  0.00  0.00    +0.124 A 
ATOM     15  C   UNL     1      -1.465   4.966   2.386  0.00  0.00    +0.091 A 
ATOM     16  C   UNL     1      -0.013   1.086   0.008  0.00  0.00    +0.055 C 
ATOM     17  C   UNL     1      -2.169   1.063   1.276  0.00  0.00    +0.055 C 
BRANCH  14  18
ATOM     18  O   UNL     1      -2.197   6.945   3.482  0.00  0.00    -0.495 OA
ATOM     19  C   UNL     1      -2.590   7.565   4.708  0.00  0.00    +0.277 C 
ENDBRANCH  14  18
ENDBRANCH   4   6
ENDBRANCH   1   2
BRANCH   1  20
ATOM     20  N   UNL     1      -0.637   0.661   8.531  0.00  0.00    -0.191 N 
BRANCH  20  21
ATOM     21  C   UNL     1      -1.128   1.771   9.225  0.00  0.00    +0.087 A 
ATOM     22  C   UNL     1      -2.270   2.421   8.778  0.00  0.00    +0.027 A 
ATOM     23  C   UNL     1      -2.756   3.515   9.469  0.00  0.00    +0.002 A 
ATOM     24  C   UNL     1      -2.100   3.969  10.598  0.00  0.00    +0.003 A 
ATOM     25  C   UNL     1      -0.959   3.329  11.044  0.00  0.00    +0.040 A 
ATOM     26  C   UNL     1      -0.470   2.230  10.361  0.00  0.00    +0.146 A 
ATOM     27  F   UNL     1       0.645   1.604  10.797  0.00  0.00    -0.203 F 
ENDBRANCH  20  21
BRANCH  20  28
ATOM     28  S   UNL     1      -1.052  -0.868   9.014  0.00  0.00    +0.075 S 
ATOM     29  O   UNL     1      -2.278  -0.750   9.723  0.00  0.00    -0.150 OA
ATOM     30  O   UNL     1      -0.907  -1.707   7.877  0.00  0.00    -0.150 OA
BRANCH  28  35
ATOM     31  C   UNL     1       3.089  -2.663  13.019  0.00  0.00    +0.044 C 
ATOM     32  C   UNL     1       2.054  -2.214  12.019  0.00  0.00    -0.050 A 
ATOM     33  C   UNL     1       0.921  -1.549  12.447  0.00  0.00    +0.005 A 
ATOM     34  C   UNL     1      -0.027  -1.137  11.530  0.00  0.00    +0.029 A 
ATOM     35  C   UNL     1       0.157  -1.392  10.184  0.00  0.00    +0.109 A 
ATOM     36  C   UNL     1       1.288  -2.062   9.756  0.00  0.00    +0.029 A 
ATOM     37  C   UNL     1       2.239  -2.468  10.672  0.00  0.00    +0.005 A 
ENDBRANCH  28  35
ENDBRANCH  20  28
ENDBRANCH   1  20
TORSDOF 7
