REMARK  Name = ZINC28055333
REMARK  8 active torsions:
REMARK  status: ('A' for Active; 'I' for Inactive)
REMARK    1  A    between atoms: C_1  and  O_2
REMARK    2  A    between atoms: O_2  and  C_3
REMARK    3  A    between atoms: C_6  and  C_13
REMARK    4  A    between atoms: C_7  and  O_11
REMARK    5  A    between atoms: C_8  and  O_9
REMARK    6  A    between atoms: O_9  and  C_10
REMARK    7  A    between atoms: O_11  and  C_12
REMARK    8  A    between atoms: C_30  and  C_32
REMARK                            x       y       z     vdW  Elec       q    Type
REMARK                         _______ _______ _______ _____ _____    ______ ____
ROOT
ATOM      1  C   UNL     1      -0.177   6.110   2.401  0.00  0.00    +0.238 C 
ATOM      2  C   UNL     1      -0.614   6.229   0.958  0.00  0.00    +0.026 C 
ATOM      3  C   UNL     1      -1.751   6.867   0.675  0.00  0.00    +0.050 C 
ATOM      4  C   UNL     1      -2.562   7.397   1.797  0.00  0.00    +0.038 A 
ATOM      5  C   UNL     1      -3.564   8.336   1.589  0.00  0.00    +0.013 A 
ATOM      6  C   UNL     1      -4.296   8.802   2.664  0.00  0.00    +0.001 A 
ATOM      7  C   UNL     1      -4.034   8.336   3.941  0.00  0.00    +0.004 A 
ATOM      8  C   UNL     1      -3.038   7.401   4.157  0.00  0.00    +0.046 A 
ATOM      9  C   UNL     1      -2.298   6.927   3.090  0.00  0.00    +0.131 A 
ATOM     10  O   UNL     1      -1.311   6.012   3.262  0.00  0.00    -0.479 OA
ATOM     11  N   UNL     1      -2.203   7.042  -0.639  0.00  0.00    -0.282 N 
ATOM     12  C   UNL     1      -1.308   6.770  -1.660  0.00  0.00    +0.240 A 
ATOM     13  N   UNL     1      -1.347   7.045  -2.932  0.00  0.00    -0.092 NA
ATOM     14  N   UNL     1      -0.282   6.610  -3.516  0.00  0.00    -0.021 NA
ATOM     15  N   UNL     1       0.497   6.033  -2.659  0.00  0.00    -0.042 NA
ATOM     16  N   UNL     1      -0.143   6.112  -1.423  0.00  0.00    -0.201 N 
ATOM     17  C   UNL     1       0.263   5.628  -0.112  0.00  0.00    +0.174 C 
ATOM     18  H   UNL     1      -3.232   7.382  -0.826  0.00  0.00    +0.155 HD
ENDROOT
BRANCH  17  19
ATOM     19  C   UNL     1       0.139   4.126  -0.074  0.00  0.00    -0.019 A 
ATOM     20  C   UNL     1       1.254   3.347   0.174  0.00  0.00    +0.009 A 
ATOM     21  C   UNL     1       1.141   1.970   0.209  0.00  0.00    +0.039 A 
ATOM     22  C   UNL     1      -0.089   1.371  -0.004  0.00  0.00    +0.123 A 
ATOM     23  C   UNL     1      -1.203   2.152  -0.258  0.00  0.00    +0.039 A 
ATOM     24  C   UNL     1      -1.089   3.529  -0.287  0.00  0.00    +0.009 A 
ATOM     25  F   UNL     1      -0.200   0.025   0.029  0.00  0.00    -0.205 F 
ENDBRANCH  17  19
BRANCH   1  29
ATOM     26  C   UNL     1       2.108   9.566   3.473  0.00  0.00    +0.165 A 
ATOM     27  C   UNL     1       0.751   9.512   3.751  0.00  0.00    +0.050 A 
ATOM     28  C   UNL     1       0.015   8.397   3.398  0.00  0.00    +0.015 A 
ATOM     29  C   UNL     1       0.630   7.326   2.778  0.00  0.00    +0.042 A 
ATOM     30  C   UNL     1       1.987   7.371   2.496  0.00  0.00    +0.172 A 
ATOM     31  C   UNL     1       2.730   8.493   2.844  0.00  0.00    +0.204 A 
BRANCH  26  33
ATOM     32  C   UNL     1       2.127  11.730   4.458  0.00  0.00    +0.277 C 
ATOM     33  O   UNL     1       2.831  10.666   3.815  0.00  0.00    -0.491 OA
ENDBRANCH  26  33
BRANCH  31  34
ATOM     34  O   UNL     1       4.062   8.542   2.569  0.00  0.00    -0.488 OA
ATOM     35  C   UNL     1       4.444   9.091   1.306  0.00  0.00    +0.277 C 
ENDBRANCH  31  34
BRANCH  30  36
ATOM     36  O   UNL     1       2.590   6.319   1.880  0.00  0.00    -0.491 OA
ATOM     37  C   UNL     1       3.231   5.357   2.720  0.00  0.00    +0.277 C 
ENDBRANCH  30  36
ENDBRANCH   1  29
TORSDOF 5
