REMARK  Name = ZINC04026509
REMARK  5 active torsions:
REMARK  status: ('A' for Active; 'I' for Inactive)
REMARK    1  A    between atoms: C_1  and  C_2
REMARK    2  A    between atoms: C_2  and  C_20
REMARK    3  A    between atoms: C_20  and  C_21
REMARK    4  A    between atoms: C_21  and  O_23
REMARK    5  A    between atoms: O_23  and  C_24
REMARK                            x       y       z     vdW  Elec       q    Type
REMARK                         _______ _______ _______ _____ _____    ______ ____
ROOT
ATOM      1  C   UNL     1       2.336   0.153  -1.294  0.00  0.00    +0.042 C 
ATOM      2  C   UNL     1       2.462   0.992  -0.016  0.00  0.00    +0.080 C 
ATOM      3  C   UNL     1       3.759   1.789  -0.024  0.00  0.00    +0.029 C 
ATOM      4  C   UNL     1       4.935   1.009  -0.588  0.00  0.00    +0.011 C 
ATOM      5  C   UNL     1       6.159   1.922  -0.725  0.00  0.00    +0.027 C 
ATOM      6  C   UNL     1       6.375   2.721   0.521  0.00  0.00    -0.031 C 
ATOM      7  C   UNL     1       5.466   2.925   1.414  0.00  0.00    -0.027 C 
ATOM      8  C   UNL     1       4.067   2.384   1.341  0.00  0.00    +0.023 C 
ATOM      9  C   UNL     1       3.862   1.395   2.488  0.00  0.00    +0.025 C 
ATOM     10  C   UNL     1       4.951   0.324   2.485  0.00  0.00    +0.006 C 
ATOM     11  C   UNL     1       4.736  -0.607   3.685  0.00  0.00    +0.000 C 
ATOM     12  C   UNL     1       3.388  -1.311   3.506  0.00  0.00    +0.003 C 
ATOM     13  C   UNL     1       2.272  -0.268   3.500  0.00  0.00    +0.032 C 
ATOM     14  C   UNL     1       2.483   0.748   2.378  0.00  0.00    +0.123 C 
ATOM     15  O   UNL     1       2.371   0.120   1.106  0.00  0.00    -0.369 OA
ENDROOT
BRANCH   2  16
ATOM     16  C   UNL     1       1.280   1.975   0.000  0.00  0.00    +0.155 C 
BRANCH  16  17
ATOM     17  C   UNL     1      -0.014   1.204   0.009  0.00  0.00    +0.310 C 
ATOM     18  O   UNL     1       0.002  -0.004   0.002  0.00  0.00    -0.251 OA
BRANCH  17  19
ATOM     19  O   UNL     1      -1.186   1.859   0.018  0.00  0.00    -0.468 OA
ATOM     20  C   UNL     1      -2.393   1.052   0.019  0.00  0.00    +0.280 C 
ENDBRANCH  17  19
ENDBRANCH  16  17
ENDBRANCH   2  16
TORSDOF 3
