REMARK  Name = ZINC02740371
REMARK  2 active torsions:
REMARK  status: ('A' for Active; 'I' for Inactive)
REMARK    1  A    between atoms: C_3  and  C_11
REMARK    2  A    between atoms: C_6  and  N_7
REMARK                            x       y       z     vdW  Elec       q    Type
REMARK                         _______ _______ _______ _____ _____    ______ ____
ROOT
ATOM      1  C   UNL     1       3.655   2.162  -0.022  0.00  0.00    +0.251 C 
ATOM      2  O   UNL     1       4.715   1.567  -0.035  0.00  0.00    -0.270 OA
ATOM      3  N   UNL     1       3.640   3.510  -0.015  0.00  0.00    -0.261 N 
ATOM      4  C   UNL     1       4.830   4.216  -0.023  0.00  0.00    +0.166 A 
ATOM      5  N   UNL     1       6.060   3.757  -0.043  0.00  0.00    -0.225 NA
ATOM      6  C   UNL     1       7.139   4.570  -0.049  0.00  0.00    +0.080 A 
ATOM      7  C   UNL     1       8.505   4.207  -0.070  0.00  0.00    +0.030 A 
ATOM      8  C   UNL     1       9.485   5.165  -0.072  0.00  0.00    +0.017 A 
ATOM      9  C   UNL     1       9.175   6.518  -0.055  0.00  0.00    +0.019 A 
ATOM     10  C   UNL     1       7.848   6.909  -0.035  0.00  0.00    +0.032 A 
ATOM     11  C   UNL     1       6.861   5.955  -0.033  0.00  0.00    +0.042 A 
ATOM     12  S   UNL     1       5.085   5.985  -0.016  0.00  0.00    -0.052 S 
ATOM     13 BR   UNL     1      10.553   7.814  -0.059  0.00  0.00    -0.050 Br
ATOM     14  H   UNL     1       2.794   3.985  -0.004  0.00  0.00    +0.157 HD
ENDROOT
BRANCH   1  17
ATOM     15  C   UNL     1      -0.017   1.380   0.010  0.00  0.00    +0.033 A 
ATOM     16  C   UNL     1       1.166   2.089   0.002  0.00  0.00    +0.017 A 
ATOM     17  C   UNL     1       2.385   1.409  -0.013  0.00  0.00    +0.055 A 
ATOM     18  C   UNL     1       2.397   0.011  -0.021  0.00  0.00    +0.055 A 
ATOM     19  C   UNL     1       1.205  -0.686  -0.013  0.00  0.00    +0.053 A 
ATOM     20  C   UNL     1       0.002  -0.004   0.002  0.00  0.00    +0.128 A 
ATOM     21 CL   UNL     1       3.907  -0.846  -0.040  0.00  0.00    -0.083 Cl
BRANCH  20  22
ATOM     22  N   UNL     1      -1.272  -0.758   0.010  0.00  0.00    +0.056 N 
ATOM     23  O   UNL     1      -2.325  -0.165   0.023  0.00  0.00    -0.126 OA
ATOM     24  O   UNL     1      -1.259  -1.967   0.004  0.00  0.00    -0.126 OA
ENDBRANCH  20  22
ENDBRANCH   1  17
TORSDOF 2
