REMARK  Name = ZINC46710564
REMARK  8 active torsions:
REMARK  status: ('A' for Active; 'I' for Inactive)
REMARK    1  A    between atoms: C_1  and  C_2
REMARK    2  A    between atoms: C_2  and  C_4
REMARK    3  A    between atoms: C_2  and  N_13
REMARK    4  A    between atoms: C_7  and  O_11
REMARK    5  A    between atoms: O_11  and  C_12
REMARK    6  A    between atoms: C_14  and  C_16
REMARK    7  A    between atoms: C_19  and  N_25
REMARK    8  A    between atoms: C_20  and  N_22
REMARK                            x       y       z     vdW  Elec       q    Type
REMARK                         _______ _______ _______ _____ _____    ______ ____
ROOT
ATOM      1  N   UNL     1       0.333  -0.706  -1.226  0.00  0.00    -0.305 N 
ATOM      2  C   UNL     1      -0.244  -0.838  -2.437  0.00  0.00    +0.245 C 
ATOM      3  O   UNL     1      -1.441  -0.664  -2.562  0.00  0.00    -0.270 OA
ATOM      4  H   UNL     1       1.288  -0.845  -1.127  0.00  0.00    +0.150 HD
ENDROOT
BRANCH   2   5
ATOM      5  C   UNL     1       0.576  -1.195  -3.611  0.00  0.00    +0.039 A 
ATOM      6  C   UNL     1       1.951  -1.402  -3.468  0.00  0.00    +0.015 A 
ATOM      7  C   UNL     1       2.713  -1.736  -4.566  0.00  0.00    +0.031 A 
ATOM      8  C   UNL     1       2.116  -1.867  -5.815  0.00  0.00    +0.097 A 
ATOM      9  C   UNL     1       0.749  -1.662  -5.961  0.00  0.00    +0.152 A 
ATOM     10  C   UNL     1      -0.020  -1.333  -4.867  0.00  0.00    +0.048 A 
BRANCH   8  11
ATOM     11  N   UNL     1       2.894  -2.205  -6.927  0.00  0.00    -0.218 N 
ATOM     12  C   UNL     1       4.237  -2.316  -6.972  0.00  0.00    +0.225 A 
ATOM     13  N   UNL     1       4.575  -2.650  -8.191  0.00  0.00    -0.222 NA
ATOM     14  C   UNL     1       3.485  -2.761  -8.949  0.00  0.00    +0.245 A 
ATOM     15  N   UNL     1       2.431  -2.503  -8.219  0.00  0.00    -0.153 NA
ENDBRANCH   8  11
BRANCH   9  16
ATOM     16  N   UNL     1       0.118  -1.803  -7.293  0.00  0.00    +0.059 N 
ATOM     17  O   UNL     1       0.594  -1.237  -8.249  0.00  0.00    -0.126 OA
ATOM     18  O   UNL     1      -0.872  -2.484  -7.424  0.00  0.00    -0.126 OA
ENDBRANCH   9  16
ENDBRANCH   2   5
BRANCH   1  20
ATOM     19  C   UNL     1      -0.636   1.169   0.009  0.00  0.00    +0.033 C 
ATOM     20  C   UNL     1      -0.481  -0.351  -0.061  0.00  0.00    +0.100 C 
BRANCH  20  21
ATOM     21  C   UNL     1       0.194  -0.845   1.192  0.00  0.00    -0.026 A 
ATOM     22  C   UNL     1       1.566  -0.740   1.325  0.00  0.00    +0.009 A 
ATOM     23  C   UNL     1       2.187  -1.193   2.473  0.00  0.00    +0.047 A 
ATOM     24  C   UNL     1       1.433  -1.753   3.493  0.00  0.00    +0.134 A 
ATOM     25  C   UNL     1       0.056  -1.858   3.359  0.00  0.00    +0.060 A 
ATOM     26  C   UNL     1      -0.561  -1.398   2.210  0.00  0.00    +0.024 A 
ATOM     27 BR   UNL     1      -0.976  -2.621   4.747  0.00  0.00    -0.047 Br
BRANCH  24  28
ATOM     28  O   UNL     1       2.043  -2.200   4.623  0.00  0.00    -0.494 OA
ATOM     29  C   UNL     1       3.463  -2.061   4.693  0.00  0.00    +0.277 C 
ENDBRANCH  24  28
ENDBRANCH  20  21
ENDBRANCH   1  20
TORSDOF 6
