REMARK  Name = ZINC39324238
REMARK  7 active torsions:
REMARK  status: ('A' for Active; 'I' for Inactive)
REMARK    1  A    between atoms: C_1  and  C_2
REMARK    2  A    between atoms: C_2  and  C_3
REMARK    3  A    between atoms: C_3  and  C_4
REMARK    4  A    between atoms: C_6  and  C_18
REMARK    5  A    between atoms: C_8  and  C_16
REMARK    6  A    between atoms: C_9  and  N_15
REMARK    7  A    between atoms: C_21  and  N_24
REMARK                            x       y       z     vdW  Elec       q    Type
REMARK                         _______ _______ _______ _____ _____    ______ ____
ROOT
ATOM      1  C   UNL     1       0.867  -1.779  -1.808  0.00  0.00    +0.069 C 
ATOM      2  C   UNL     1      -0.088  -2.542  -2.281  0.00  0.00    +0.030 C 
ATOM      3  C   UNL     1      -1.463  -2.264  -2.826  0.00  0.00    +0.098 C 
ATOM      4  C   UNL     1      -2.360  -3.333  -2.232  0.00  0.00    +0.097 C 
ATOM      5  C   UNL     1      -1.857  -4.379  -1.543  0.00  0.00    +0.195 C 
ATOM      6  O   UNL     1      -0.561  -4.610  -1.266  0.00  0.00    -0.448 OA
ATOM      7  C   UNL     1       0.415  -3.973  -2.095  0.00  0.00    +0.343 C 
ATOM      8  N   UNL     1       1.685  -3.760  -1.392  0.00  0.00    -0.138 NA
ATOM      9  N   UNL     1       1.871  -2.540  -1.302  0.00  0.00    -0.155 NA
ENDROOT
BRANCH   3  10
ATOM     10  C   UNL     1      -1.926  -0.895  -2.399  0.00  0.00    -0.035 A 
ATOM     11  C   UNL     1      -2.187  -0.640  -1.065  0.00  0.00    +0.006 A 
ATOM     12  C   UNL     1      -2.611   0.613  -0.670  0.00  0.00    +0.023 A 
ATOM     13  C   UNL     1      -2.776   1.619  -1.614  0.00  0.00    +0.030 A 
ATOM     14  C   UNL     1      -2.512   1.359  -2.953  0.00  0.00    +0.023 A 
ATOM     15  C   UNL     1      -2.083   0.105  -3.340  0.00  0.00    +0.006 A 
BRANCH  13  16
ATOM     16  N   UNL     1      -3.205   2.887  -1.218  0.00  0.00    -0.330 N 
ATOM     17  C   UNL     1      -3.512   3.297   0.161  0.00  0.00    +0.105 C 
ATOM     18  C   UNL     1      -3.970   4.770   0.110  0.00  0.00    +0.020 C 
ATOM     19  C   UNL     1      -4.436   4.938  -1.360  0.00  0.00    +0.020 C 
ATOM     20  C   UNL     1      -3.420   4.040  -2.112  0.00  0.00    +0.105 C 
ENDBRANCH  13  16
ENDBRANCH   3  10
BRANCH   5  21
ATOM     21  N   UNL     1      -2.760  -5.301  -1.077  0.00  0.00    -0.329 N 
ATOM     22  H   UNL     1      -3.707  -5.182  -1.248  0.00  0.00    +0.145 HD
ATOM     23  H   UNL     1      -2.451  -6.072  -0.576  0.00  0.00    +0.145 HD
ENDBRANCH   5  21
BRANCH   4  24
ATOM     24  C   UNL     1      -3.778  -3.230  -2.405  0.00  0.00    +0.101 C 
ATOM     25  N   UNL     1      -4.902  -3.148  -2.543  0.00  0.00    -0.191 NA
ENDBRANCH   4  24
BRANCH   1  26
ATOM     26  C   UNL     1       0.856  -0.272  -1.830  0.00  0.00    +0.057 C 
BRANCH  26  28
ATOM     27  C   UNL     1       1.397   1.749  -3.195  0.00  0.00    +0.004 C 
ATOM     28  C   UNL     1       1.500   0.224  -3.126  0.00  0.00    +0.003 C 
ENDBRANCH  26  28
ENDBRANCH   1  26
TORSDOF 6
