REMARK  Name = ZINC32116615
REMARK  6 active torsions:
REMARK  status: ('A' for Active; 'I' for Inactive)
REMARK    1  A    between atoms: C_6  and  O_7
REMARK    2  A    between atoms: O_7  and  C_8
REMARK    3  A    between atoms: C_8  and  C_9
REMARK    4  A    between atoms: N_11  and  C_12
REMARK    5  A    between atoms: C_19  and  C_21
REMARK    6  A    between atoms: C_24  and  O_28
REMARK                            x       y       z     vdW  Elec       q    Type
REMARK                         _______ _______ _______ _____ _____    ______ ____
ROOT
ATOM      1  C   UNL     1      -3.872  -4.664   0.106  0.00  0.00    +0.036 A 
ATOM      2  C   UNL     1      -5.020  -3.875   0.110  0.00  0.00    +0.027 A 
ATOM      3  C   UNL     1      -6.266  -4.457   0.207  0.00  0.00    +0.050 A 
ATOM      4  C   UNL     1      -6.382  -5.835   0.302  0.00  0.00    +0.156 A 
ATOM      5  C   UNL     1      -5.230  -6.637   0.299  0.00  0.00    +0.112 A 
ATOM      6  C   UNL     1      -3.971  -6.040   0.195  0.00  0.00    +0.055 A 
ATOM      7  N   UNL     1      -5.650  -7.925   0.404  0.00  0.00    -0.209 NA
ATOM      8  C   UNL     1      -6.958  -7.937   0.467  0.00  0.00    +0.228 A 
ATOM      9  O   UNL     1      -7.434  -6.679   0.408  0.00  0.00    -0.435 OA
ENDROOT
BRANCH   8  10
ATOM     10  C   UNL     1      -7.788  -9.152   0.586  0.00  0.00    +0.038 A 
ATOM     11  C   UNL     1      -7.184 -10.410   0.645  0.00  0.00    +0.017 A 
ATOM     12  C   UNL     1      -7.962 -11.542   0.756  0.00  0.00    +0.047 A 
ATOM     13  C   UNL     1      -9.346 -11.434   0.809  0.00  0.00    +0.131 A 
ATOM     14  C   UNL     1      -9.951 -10.184   0.750  0.00  0.00    +0.060 A 
ATOM     15  C   UNL     1      -9.180  -9.046   0.646  0.00  0.00    +0.032 A 
ATOM     16 BR   UNL     1     -11.836 -10.043   0.821  0.00  0.00    -0.047 Br
BRANCH  13  17
ATOM     17  O   UNL     1     -10.109 -12.552   0.918  0.00  0.00    -0.506 OA
ATOM     18  H   UNL     1     -10.292 -12.816   1.830  0.00  0.00    +0.292 HD
ENDBRANCH  13  17
ENDBRANCH   8  10
BRANCH   1  21
ATOM     19  C   UNL     1      -2.386  -2.870   0.596  0.00  0.00    +0.255 C 
ATOM     20  O   UNL     1      -3.295  -2.281   1.141  0.00  0.00    -0.272 OA
ATOM     21  N   UNL     1      -2.611  -4.061   0.006  0.00  0.00    -0.283 N 
ATOM     22  H   UNL     1      -1.901  -4.500  -0.487  0.00  0.00    +0.155 HD
BRANCH  19  23
ATOM     23  C   UNL     1      -1.004  -2.270   0.578  0.00  0.00    +0.324 C 
BRANCH  23  24
ATOM     24  O   UNL     1      -1.020  -1.016   1.262  0.00  0.00    -0.483 OA
BRANCH  24  30
ATOM     25  C   UNL     1       0.213   0.886   1.986  0.00  0.00    +0.047 A 
ATOM     26  C   UNL     1       1.409   1.572   2.062  0.00  0.00    +0.023 A 
ATOM     27  C   UNL     1       2.551   1.040   1.489  0.00  0.00    +0.041 A 
ATOM     28  C   UNL     1       2.497  -0.181   0.841  0.00  0.00    +0.023 A 
ATOM     29  C   UNL     1       1.302  -0.871   0.763  0.00  0.00    +0.047 A 
ATOM     30  C   UNL     1       0.157  -0.338   1.337  0.00  0.00    +0.121 A 
ATOM     31 CL   UNL     1       4.053   1.905   1.585  0.00  0.00    -0.084 Cl
ENDBRANCH  24  30
ENDBRANCH  23  24
ENDBRANCH  19  23
ENDBRANCH   1  21
TORSDOF 6
