REMARK  Name = ZINC16937202
REMARK  8 active torsions:
REMARK  status: ('A' for Active; 'I' for Inactive)
REMARK    1  A    between atoms: C_1  and  C_2
REMARK    2  A    between atoms: C_2  and  C_4
REMARK    3  A    between atoms: C_2  and  O_7
REMARK    4  A    between atoms: O_7  and  C_8
REMARK    5  A    between atoms: C_13  and  C_14
REMARK    6  A    between atoms: N_18  and  C_29
REMARK    7  A    between atoms: N_20  and  C_21
REMARK    8  A    between atoms: C_25  and  O_27
REMARK                            x       y       z     vdW  Elec       q    Type
REMARK                         _______ _______ _______ _____ _____    ______ ____
ROOT
ATOM      1  C   UNL     1       1.909  -1.594  -3.567  0.00  0.00    +0.032 C 
ATOM      2  C   UNL     1       2.474  -2.038  -4.719  0.00  0.00    +0.078 C 
ATOM      3  C   UNL     1       3.896  -2.269  -5.035  0.00  0.00    +0.259 C 
ATOM      4  O   UNL     1       4.772  -2.063  -4.215  0.00  0.00    -0.269 OA
ATOM      5  N   UNL     1       4.176  -2.711  -6.249  0.00  0.00    -0.249 N 
ATOM      6  C   UNL     1       3.171  -2.939  -7.163  0.00  0.00    +0.168 C 
ATOM      7  N   UNL     1       3.273  -3.374  -8.399  0.00  0.00    -0.225 NA
ATOM      8  S   UNL     1       1.694  -2.509  -6.256  0.00  0.00    -0.049 S 
ATOM      9  C   UNL     1       5.570  -2.960  -6.627  0.00  0.00    +0.140 C 
ENDROOT
BRANCH   1  15
ATOM     10  C   UNL     1      -0.197  -1.218  -2.292  0.00  0.00    +0.129 A 
ATOM     11  C   UNL     1      -1.551  -0.924  -2.264  0.00  0.00    +0.046 A 
ATOM     12  C   UNL     1      -2.238  -0.708  -3.443  0.00  0.00    +0.004 A 
ATOM     13  C   UNL     1      -1.583  -0.783  -4.661  0.00  0.00    +0.001 A 
ATOM     14  C   UNL     1      -0.237  -1.073  -4.711  0.00  0.00    +0.011 A 
ATOM     15  C   UNL     1       0.473  -1.289  -3.524  0.00  0.00    +0.018 A 
BRANCH  10  16
ATOM     16  O   UNL     1       0.479  -1.429  -1.134  0.00  0.00    -0.477 OA
BRANCH  16  18
ATOM     17  C   UNL     1      -0.452   0.001   0.577  0.00  0.00    +0.064 C 
ATOM     18  C   UNL     1      -0.286  -1.434   0.072  0.00  0.00    +0.282 C 
BRANCH  18  19
ATOM     19  C   UNL     1       0.427  -2.255   1.116  0.00  0.00    +0.395 C 
ATOM     20  O   UNL     1      -0.103  -2.463   2.195  0.00  0.00    -0.242 OA
ATOM     21  O   UNL     1       1.533  -2.710   0.883  0.00  0.00    -0.242 OA
ENDBRANCH  18  19
ENDBRANCH  16  18
ENDBRANCH  10  16
ENDBRANCH   1  15
BRANCH   7  22
ATOM     22  C   UNL     1       2.149  -3.539  -9.162  0.00  0.00    +0.070 A 
ATOM     23  C   UNL     1       1.019  -4.158  -8.620  0.00  0.00    +0.028 A 
ATOM     24  C   UNL     1      -0.112  -4.323  -9.391  0.00  0.00    +0.006 A 
ATOM     25  C   UNL     1      -0.133  -3.877 -10.701  0.00  0.00    +0.045 A 
ATOM     26  C   UNL     1       0.985  -3.261 -11.248  0.00  0.00    +0.119 A 
ATOM     27  C   UNL     1       2.124  -3.086 -10.482  0.00  0.00    +0.073 A 
BRANCH  26  28
ATOM     28  O   UNL     1       0.958  -2.826 -12.535  0.00  0.00    -0.507 OA
ATOM     29  H   UNL     1       0.651  -1.915 -12.636  0.00  0.00    +0.292 HD
ENDBRANCH  26  28
ENDBRANCH   7  22
TORSDOF 6
