REMARK  Name = ZINC66670613
REMARK  6 active torsions:
REMARK  status: ('A' for Active; 'I' for Inactive)
REMARK    1  A    between atoms: C_1  and  C_2
REMARK    2  A    between atoms: C_10  and  C_11
REMARK    3  A    between atoms: C_11  and  C_13
REMARK    4  A    between atoms: C_11  and  N_14
REMARK    5  A    between atoms: N_17  and  C_18
REMARK    6  A    between atoms: C_23  and  N_24
REMARK                            x       y       z     vdW  Elec       q    Type
REMARK                         _______ _______ _______ _____ _____    ______ ____
ROOT
ATOM      1  N   UNL     1      -0.914  -1.153   3.287  0.00  0.00    -0.290 N 
ATOM      2  C   UNL     1      -1.469  -0.639   4.402  0.00  0.00    +0.305 C 
ATOM      3  O   UNL     1      -1.169   0.481   4.770  0.00  0.00    -0.252 OA
ATOM      4  N   UNL     1      -2.355  -1.366   5.111  0.00  0.00    -0.266 N 
ATOM      5  H   UNL     1      -1.154  -2.046   2.994  0.00  0.00    +0.151 HD
ATOM      6  H   UNL     1      -2.656  -2.225   4.776  0.00  0.00    +0.156 HD
ENDROOT
BRANCH   4   7
ATOM      7  C   UNL     1      -2.842  -0.881   6.331  0.00  0.00    +0.079 A 
ATOM      8  C   UNL     1      -2.102   0.033   7.073  0.00  0.00    +0.028 A 
ATOM      9  C   UNL     1      -2.625   0.485   8.275  0.00  0.00    +0.022 A 
ATOM     10  C   UNL     1      -3.856   0.018   8.696  0.00  0.00    +0.113 A 
ATOM     11  N   UNL     1      -4.537  -0.849   7.973  0.00  0.00    -0.235 NA
ATOM     12  C   UNL     1      -4.079  -1.303   6.818  0.00  0.00    +0.177 A 
BRANCH  12  13
ATOM     13  N   UNL     1      -4.839  -2.218   6.082  0.00  0.00    -0.200 N 
ATOM     14  C   UNL     1      -5.774  -3.063   6.561  0.00  0.00    +0.226 A 
ATOM     15  N   UNL     1      -6.253  -3.748   5.555  0.00  0.00    -0.222 NA
ATOM     16  C   UNL     1      -5.655  -3.373   4.425  0.00  0.00    +0.245 A 
ATOM     17  N   UNL     1      -4.785  -2.435   4.695  0.00  0.00    -0.152 NA
ENDBRANCH  12  13
ENDBRANCH   4   7
BRANCH   1  18
ATOM     18  C   UNL     1       0.049  -0.363   2.516  0.00  0.00    +0.138 C 
ATOM     19  C   UNL     1       1.446  -0.538   3.115  0.00  0.00    +0.036 C 
BRANCH  18  29
ATOM     20  C   UNL     1       0.018   1.478   0.013  0.00  0.00    +0.048 C 
ATOM     21  C   UNL     1       0.040  -0.028   0.013  0.00  0.00    +0.000 A 
ATOM     22  C   UNL     1       0.057  -0.909  -1.161  0.00  0.00    +0.026 A 
ATOM     23  C   UNL     1       0.058  -0.696  -2.539  0.00  0.00    +0.050 A 
ATOM     24  C   UNL     1       0.077  -1.777  -3.395  0.00  0.00    +0.124 A 
ATOM     25  C   UNL     1       0.094  -3.071  -2.888  0.00  0.00    +0.042 A 
ATOM     26  C   UNL     1       0.092  -3.293  -1.528  0.00  0.00    +0.049 A 
ATOM     27  C   UNL     1       0.074  -2.217  -0.648  0.00  0.00    +0.136 A 
ATOM     28  O   UNL     1       0.068  -2.120   0.697  0.00  0.00    -0.458 OA
ATOM     29  C   UNL     1       0.054  -0.833   1.085  0.00  0.00    +0.129 A 
ATOM     30  F   UNL     1       0.078  -1.578  -4.731  0.00  0.00    -0.205 F 
ENDBRANCH  18  29
ENDBRANCH   1  18
TORSDOF 4
