REMARK  Name = ZINC04468651
REMARK  7 active torsions:
REMARK  status: ('A' for Active; 'I' for Inactive)
REMARK    1  A    between atoms: C_1  and  C_2
REMARK    2  A    between atoms: C_2  and  C_4
REMARK    3  A    between atoms: C_2  and  N_7
REMARK    4  A    between atoms: C_4  and  C_5
REMARK    5  A    between atoms: C_4  and  C_6
REMARK    6  A    between atoms: C_8  and  C_10
REMARK    7  A    between atoms: C_10  and  N_11
REMARK                            x       y       z     vdW  Elec       q    Type
REMARK                         _______ _______ _______ _____ _____    ______ ____
ROOT
ATOM      1  N   UNL     1      -0.240  -1.150  -4.711  0.00  0.00    -0.215 N 
ATOM      2  C   UNL     1      -0.988  -2.230  -5.015  0.00  0.00    +0.251 C 
ATOM      3  O   UNL     1      -1.002  -3.298  -4.441  0.00  0.00    -0.272 OA
ATOM      4  C   UNL     1      -1.808  -1.829  -6.221  0.00  0.00    +0.138 C 
ATOM      5  C   UNL     1      -3.295  -1.884  -5.891  0.00  0.00    +0.040 C 
ATOM      6  C   UNL     1      -3.713  -3.357  -5.792  0.00  0.00    +0.008 C 
ATOM      7  C   UNL     1      -3.653  -3.972  -7.188  0.00  0.00    +0.035 C 
ATOM      8  C   UNL     1      -2.321  -3.700  -7.835  0.00  0.00    -0.042 A 
ATOM      9  C   UNL     1      -1.472  -2.708  -7.392  0.00  0.00    -0.012 A 
ATOM     10  C   UNL     1      -0.261  -2.502  -8.038  0.00  0.00    +0.006 A 
ATOM     11  C   UNL     1       0.102  -3.284  -9.115  0.00  0.00    +0.000 A 
ATOM     12  C   UNL     1      -0.746  -4.282  -9.556  0.00  0.00    +0.000 A 
ATOM     13  C   UNL     1      -1.952  -4.488  -8.917  0.00  0.00    +0.004 A 
ATOM     14  N   UNL     1      -1.393  -0.445  -6.487  0.00  0.00    -0.281 N 
ATOM     15  C   UNL     1      -0.478  -0.134  -5.549  0.00  0.00    +0.310 C 
ATOM     16  O   UNL     1       0.073   0.947  -5.474  0.00  0.00    -0.252 OA
ATOM     17  H   UNL     1      -1.717   0.133  -7.196  0.00  0.00    +0.152 HD
ENDROOT
BRANCH   1  18
ATOM     18  C   UNL     1       0.712  -1.094  -3.598  0.00  0.00    +0.213 C 
BRANCH  18  20
ATOM     19  N   UNL     1       0.688  -0.476  -1.203  0.00  0.00    -0.311 N 
ATOM     20  C   UNL     1       0.006  -0.608  -2.358  0.00  0.00    +0.231 C 
ATOM     21  O   UNL     1      -1.175  -0.336  -2.400  0.00  0.00    -0.274 OA
ATOM     22  H   UNL     1       1.632  -0.695  -1.170  0.00  0.00    +0.149 HD
BRANCH  19  24
ATOM     23  C   UNL     1      -0.019   1.526   0.010  0.00  0.00    +0.028 C 
ATOM     24  C   UNL     1       0.002  -0.004   0.002  0.00  0.00    +0.072 C 
BRANCH  24  25
ATOM     25  C   UNL     1       0.742  -0.511   1.242  0.00  0.00    +0.003 C 
ATOM     26  C   UNL     1       0.026  -0.018   2.500  0.00  0.00    +0.009 C 
ATOM     27  C   UNL     1       0.763  -2.041   1.233  0.00  0.00    +0.009 C 
ENDBRANCH  24  25
ENDBRANCH  19  24
ENDBRANCH  18  20
ENDBRANCH   1  18
TORSDOF 4
