REMARK  Name = ZINC05157597
REMARK  13 active torsions:
REMARK  status: ('A' for Active; 'I' for Inactive)
REMARK    1  A    between atoms: C_1  and  C_2
REMARK    2  A    between atoms: C_2  and  C_3
REMARK    3  A    between atoms: C_3  and  C_25
REMARK    4  A    between atoms: C_10  and  N_18
REMARK    5  A    between atoms: C_12  and  S_14
REMARK    6  A    between atoms: S_14  and  C_15
REMARK    7  A    between atoms: C_15  and  C_16
REMARK    8  A    between atoms: C_15  and  C_17
REMARK    9  A    between atoms: N_18  and  C_19
REMARK   10  A    between atoms: C_19  and  C_20
REMARK   11  A    between atoms: C_20  and  N_56
REMARK   12  A    between atoms: C_21  and  N_56
REMARK   13  A    between atoms: C_22  and  N_56
REMARK                            x       y       z     vdW  Elec       q    Type
REMARK                         _______ _______ _______ _____ _____    ______ ____
ROOT
ATOM      1  C   UNL     1      -0.790   1.568  -1.228  0.00  0.00    +0.071 C 
ATOM      2  C   UNL     1      -0.145   0.970  -2.481  0.00  0.00    +0.071 C 
ATOM      3  C   UNL     1      -0.741   1.666  -3.702  0.00  0.00    -0.020 A 
ATOM      4  C   UNL     1      -1.384   2.847  -3.545  0.00  0.00    +0.021 A 
ATOM      5  S   UNL     1      -1.918   3.308  -5.171  0.00  0.00    -0.071 S 
ATOM      6  C   UNL     1      -1.283   1.922  -6.060  0.00  0.00    +0.115 A 
ATOM      7  C   UNL     1      -0.667   1.136  -5.052  0.00  0.00    +0.051 A 
ATOM      8  C   UNL     1      -0.049  -0.078  -5.468  0.00  0.00    +0.132 A 
ATOM      9  N   UNL     1      -0.114  -0.350  -6.769  0.00  0.00    -0.206 NA
ATOM     10  C   UNL     1      -0.708   0.432  -7.659  0.00  0.00    +0.191 A 
ATOM     11  N   UNL     1      -1.304   1.582  -7.333  0.00  0.00    -0.215 NA
ATOM     12  C   UNL     1      -1.583   3.582  -2.257  0.00  0.00    +0.203 C 
ATOM     13  O   UNL     1      -0.717   2.996  -1.272  0.00  0.00    -0.368 OA
ATOM     14  C   UNL     1      -2.256   1.137  -1.161  0.00  0.00    +0.042 C 
ENDROOT
BRANCH   1  16
ATOM     15  C   UNL     1      -0.781   1.543   1.270  0.00  0.00    +0.007 C 
ATOM     16  C   UNL     1      -0.054   1.060   0.013  0.00  0.00    +0.032 C 
ENDBRANCH   1  16
BRANCH   8  17
ATOM     17  N   UNL     1       0.583  -0.924  -4.574  0.00  0.00    -0.330 N 
ATOM     18  H   UNL     1       0.685  -0.660  -3.647  0.00  0.00    +0.147 HD
BRANCH  17  19
ATOM     19  C   UNL     1       1.097  -2.218  -5.028  0.00  0.00    +0.084 C 
BRANCH  19  20
ATOM     20  C   UNL     1       1.744  -2.951  -3.851  0.00  0.00    -0.061 C 
BRANCH  20  23
ATOM     21  C   UNL     1       3.365  -4.072  -5.258  0.00  0.00    -0.097 C 
ATOM     22  C   UNL     1       2.674  -5.080  -3.168  0.00  0.00    -0.097 C 
ATOM     23  N   UNL     1       2.239  -4.262  -4.320  0.00  0.00    +0.377 N 
ATOM     24  H   UNL     1       1.478  -4.751  -4.808  0.00  0.00    -0.083 HD
ENDBRANCH  20  23
ENDBRANCH  19  20
ENDBRANCH  17  19
ENDBRANCH   8  17
BRANCH  10  25
ATOM     25  S   UNL     1      -0.710  -0.067  -9.348  0.00  0.00    -0.083 S 
BRANCH  25  26
ATOM     26  C   UNL     1      -1.618   1.316 -10.083  0.00  0.00    +0.048 C 
ATOM     27  C   UNL     1      -1.640   1.160 -11.605  0.00  0.00    +0.019 C 
ATOM     28  C   UNL     1      -3.052   1.325  -9.550  0.00  0.00    +0.019 C 
ENDBRANCH  25  26
ENDBRANCH  10  25
TORSDOF 7
