REMARK  Name = ZINC41024565
REMARK  9 active torsions:
REMARK  status: ('A' for Active; 'I' for Inactive)
REMARK    1  A    between atoms: C_1  and  C_2
REMARK    2  A    between atoms: C_3  and  C_30
REMARK    3  A    between atoms: C_8  and  C_10
REMARK    4  A    between atoms: C_11  and  C_29
REMARK    5  A    between atoms: N_17  and  C_20
REMARK    6  A    between atoms: C_20  and  C_21
REMARK    7  A    between atoms: C_24  and  O_27
REMARK    8  A    between atoms: O_27  and  C_28
REMARK    9  A    between atoms: C_30  and  C_32
REMARK                            x       y       z     vdW  Elec       q    Type
REMARK                         _______ _______ _______ _____ _____    ______ ____
ROOT
ATOM      1  C   UNL     1       0.072  -3.322   4.573  0.00  0.00    +0.092 A 
ATOM      2  C   UNL     1       1.166  -3.819   5.213  0.00  0.00    +0.117 A 
ATOM      3  O   UNL     1       0.777  -4.626   6.209  0.00  0.00    -0.441 OA
ATOM      4  C   UNL     1      -0.562  -4.706   6.280  0.00  0.00    +0.235 A 
ATOM      5  C   UNL     1      -1.089  -3.896   5.273  0.00  0.00    +0.117 A 
ATOM      6  C   UNL     1      -2.490  -3.796   5.132  0.00  0.00    +0.266 A 
ATOM      7  O   UNL     1      -2.985  -3.102   4.261  0.00  0.00    -0.267 OA
ATOM      8  N   UNL     1      -3.267  -4.495   5.991  0.00  0.00    -0.294 N 
ATOM      9  C   UNL     1      -2.697  -5.263   6.952  0.00  0.00    +0.206 A 
ATOM     10  N   UNL     1      -1.405  -5.369   7.087  0.00  0.00    -0.202 NA
ATOM     11  C   UNL     1       2.597  -3.508   4.856  0.00  0.00    +0.087 C 
ENDROOT
BRANCH   1  19
ATOM     12  C   UNL     1      -0.018   1.503   0.010  0.00  0.00    +0.067 C 
ATOM     13  C   UNL     1       0.002  -0.004   0.002  0.00  0.00    +0.058 A 
ATOM     14  C   UNL     1       0.006  -0.734  -1.186  0.00  0.00    +0.078 A 
ATOM     15  S   UNL     1       0.033  -2.401  -0.546  0.00  0.00    -0.049 S 
ATOM     16  C   UNL     1       0.036  -2.022   1.093  0.00  0.00    +0.165 A 
ATOM     17  N   UNL     1       0.022  -0.700   1.108  0.00  0.00    -0.229 NA
ATOM     18  N   UNL     1       0.053  -2.887   2.170  0.00  0.00    -0.261 N 
ATOM     19  C   UNL     1       0.053  -2.400   3.426  0.00  0.00    +0.254 C 
ATOM     20  O   UNL     1       0.037  -1.198   3.613  0.00  0.00    -0.270 OA
ATOM     21  H   UNL     1       0.066  -3.846   2.021  0.00  0.00    +0.157 HD
BRANCH  14  22
ATOM     22  C   UNL     1      -0.008  -0.281  -2.520  0.00  0.00    +0.168 C 
ATOM     23  O   UNL     1      -0.026   0.910  -2.757  0.00  0.00    -0.292 OA
ATOM     24  C   UNL     1       0.001  -1.275  -3.652  0.00  0.00    +0.092 C 
ENDBRANCH  14  22
ENDBRANCH   1  19
BRANCH   8  25
ATOM     25  C   UNL     1      -4.726  -4.422   5.882  0.00  0.00    +0.161 C 
BRANCH  25  26
ATOM     26  C   UNL     1      -5.216  -5.504   4.954  0.00  0.00    -0.027 A 
ATOM     27  C   UNL     1      -5.328  -5.253   3.599  0.00  0.00    +0.009 A 
ATOM     28  C   UNL     1      -5.777  -6.243   2.747  0.00  0.00    +0.046 A 
ATOM     29  C   UNL     1      -6.115  -7.490   3.251  0.00  0.00    +0.120 A 
ATOM     30  C   UNL     1      -6.001  -7.740   4.611  0.00  0.00    +0.046 A 
ATOM     31  C   UNL     1      -5.547  -6.748   5.459  0.00  0.00    +0.009 A 
BRANCH  29  32
ATOM     32  O   UNL     1      -6.557  -8.466   2.415  0.00  0.00    -0.495 OA
ATOM     33  C   UNL     1      -6.887  -9.725   3.004  0.00  0.00    +0.277 C 
ENDBRANCH  29  32
ENDBRANCH  25  26
ENDBRANCH   8  25
TORSDOF 5
