REMARK  Name = ZINC40801554
REMARK  7 active torsions:
REMARK  status: ('A' for Active; 'I' for Inactive)
REMARK    1  A    between atoms: C_1  and  C_2
REMARK    2  A    between atoms: C_11  and  C_14
REMARK    3  A    between atoms: C_14  and  C_15
REMARK    4  A    between atoms: N_17  and  C_18
REMARK    5  A    between atoms: C_19  and  C_27
REMARK    6  A    between atoms: C_27  and  O_29
REMARK    7  A    between atoms: O_29  and  C_30
REMARK                            x       y       z     vdW  Elec       q    Type
REMARK                         _______ _______ _______ _____ _____    ______ ____
ROOT
ATOM      1  C   UNL     1       2.598  -5.445  -0.414  0.00  0.00    +0.222 C 
ATOM      2  O   UNL     1       1.746  -6.015  -1.061  0.00  0.00    -0.275 OA
ATOM      3  N   UNL     1       3.887  -5.493  -0.806  0.00  0.00    -0.279 N 
ATOM      4  H   UNL     1       4.569  -5.037  -0.288  0.00  0.00    +0.155 HD
ENDROOT
BRANCH   3   5
ATOM      5  C   UNL     1       4.238  -6.194  -1.949  0.00  0.00    +0.086 A 
ATOM      6  C   UNL     1       5.502  -6.355  -2.496  0.00  0.00    +0.091 A 
ATOM      7  C   UNL     1       5.603  -7.144  -3.712  0.00  0.00    -0.021 A 
ATOM      8  C   UNL     1       4.423  -7.626  -4.158  0.00  0.00    -0.004 A 
ATOM      9  S   UNL     1       3.231  -7.048  -2.986  0.00  0.00    -0.077 S 
ATOM     10  C   UNL     1       4.197  -8.466  -5.376  0.00  0.00    +0.043 C 
ATOM     11  C   UNL     1       5.454  -8.388  -6.256  0.00  0.00    +0.005 C 
ATOM     12  C   UNL     1       6.688  -8.624  -5.380  0.00  0.00    +0.005 C 
ATOM     13  C   UNL     1       6.903  -7.428  -4.450  0.00  0.00    +0.037 C 
BRANCH   6  14
ATOM     14  C   UNL     1       6.685  -5.756  -1.875  0.00  0.00    +0.342 C 
ATOM     15  O   UNL     1       7.314  -6.378  -1.040  0.00  0.00    -0.245 OA
BRANCH  14  16
ATOM     16  O   UNL     1       7.076  -4.514  -2.227  0.00  0.00    -0.464 OA
ATOM     17  C   UNL     1       8.238  -3.992  -1.581  0.00  0.00    +0.280 C 
ENDBRANCH  14  16
ENDBRANCH   6  14
ENDBRANCH   3   5
BRANCH   1  18
ATOM     18  C   UNL     1       2.217  -4.683   0.829  0.00  0.00    +0.150 C 
BRANCH  18  29
ATOM     19  C   UNL     1      -0.018   1.503   0.010  0.00  0.00    +0.044 C 
ATOM     20  C   UNL     1       0.002  -0.004   0.002  0.00  0.00    -0.048 A 
ATOM     21  C   UNL     1       0.006  -0.687  -1.200  0.00  0.00    +0.007 A 
ATOM     22  C   UNL     1       0.019  -2.070  -1.216  0.00  0.00    +0.048 A 
ATOM     23  C   UNL     1       0.031  -2.773  -0.024  0.00  0.00    +0.143 A 
ATOM     24  C   UNL     1       0.038  -2.085   1.188  0.00  0.00    +0.076 A 
ATOM     25  C   UNL     1       0.023  -0.700   1.197  0.00  0.00    +0.030 A 
ATOM     26  N   UNL     1       0.086  -2.805   2.389  0.00  0.00    -0.280 N 
ATOM     27  C   UNL     1       0.342  -4.129   2.355  0.00  0.00    +0.259 C 
ATOM     28  O   UNL     1       0.279  -4.788   3.371  0.00  0.00    -0.271 OA
ATOM     29  C   UNL     1       0.706  -4.787   1.048  0.00  0.00    +0.268 C 
ATOM     30  O   UNL     1       0.025  -4.133  -0.026  0.00  0.00    -0.477 OA
ATOM     31  H   UNL     1      -0.063  -2.356   3.236  0.00  0.00    +0.155 HD
ENDBRANCH  18  29
ENDBRANCH   1  18
TORSDOF 5
