REMARK  Name = ZINC04500532
REMARK  10 active torsions:
REMARK  status: ('A' for Active; 'I' for Inactive)
REMARK    1  A    between atoms: C_1  and  C_2
REMARK    2  A    between atoms: C_6  and  N_8
REMARK    3  A    between atoms: C_9  and  C_25
REMARK    4  A    between atoms: C_12  and  S_13
REMARK    5  A    between atoms: S_13  and  C_14
REMARK    6  A    between atoms: C_14  and  C_15
REMARK    7  A    between atoms: N_20  and  C_21
REMARK    8  A    between atoms: C_21  and  C_22
REMARK    9  A    between atoms: C_21  and  C_23
REMARK   10  A    between atoms: C_21  and  C_24
REMARK                            x       y       z     vdW  Elec       q    Type
REMARK                         _______ _______ _______ _____ _____    ______ ____
ROOT
ATOM      1  S   UNL     1       1.078   5.606  -2.499  0.00  0.00    -0.076 S 
ENDROOT
BRANCH   1   6
ATOM      2  N   UNL     1      -0.069   5.245   0.030  0.00  0.00    -0.274 N 
ATOM      3  C   UNL     1      -0.537   6.061   1.026  0.00  0.00    +0.135 A 
ATOM      4  N   UNL     1      -0.365   7.291   0.631  0.00  0.00    -0.133 NA
ATOM      5  N   UNL     1       0.167   7.310  -0.538  0.00  0.00    -0.122 NA
ATOM      6  C   UNL     1       0.371   6.083  -0.958  0.00  0.00    +0.197 A 
ATOM      7  C   UNL     1      -1.137   5.618   2.335  0.00  0.00    +0.088 C 
BRANCH   2  13
ATOM      8  C   UNL     1       2.490   1.044  -0.016  0.00  0.00    +0.044 C 
ATOM      9  C   UNL     1       1.176   1.782   0.000  0.00  0.00    -0.048 A 
ATOM     10  C   UNL     1      -0.013   1.076   0.008  0.00  0.00    +0.003 A 
ATOM     11  C   UNL     1      -1.220   1.749   0.017  0.00  0.00    +0.002 A 
ATOM     12  C   UNL     1      -1.242   3.131   0.030  0.00  0.00    +0.026 A 
ATOM     13  C   UNL     1      -0.050   3.842   0.022  0.00  0.00    +0.050 A 
ATOM     14  C   UNL     1       1.161   3.163   0.007  0.00  0.00    +0.029 A 
ENDBRANCH   2  13
ENDBRANCH   1   6
BRANCH   1  15
ATOM     15  C   UNL     1       1.388   7.236  -3.221  0.00  0.00    +0.173 C 
BRANCH  15  16
ATOM     16  C   UNL     1       2.010   7.072  -4.584  0.00  0.00    +0.231 C 
ATOM     17  O   UNL     1       2.223   5.963  -5.024  0.00  0.00    -0.274 OA
ATOM     18  N   UNL     1       2.329   8.159  -5.314  0.00  0.00    -0.239 N 
ATOM     19  C   UNL     1       2.886   8.013  -6.533  0.00  0.00    +0.306 C 
ATOM     20  O   UNL     1       3.099   6.901  -6.974  0.00  0.00    -0.252 OA
ATOM     21  N   UNL     1       3.205   9.100  -7.263  0.00  0.00    -0.294 N 
ATOM     22  H   UNL     1       2.159   9.047  -4.962  0.00  0.00    +0.159 HD
ATOM     23  H   UNL     1       3.035   9.988  -6.911  0.00  0.00    +0.151 HD
BRANCH  21  24
ATOM     24  C   UNL     1       3.810   8.941  -8.587  0.00  0.00    +0.028 C 
ATOM     25  C   UNL     1       2.858   8.155  -9.492  0.00  0.00    +0.031 C 
ATOM     26  C   UNL     1       4.072  10.319  -9.197  0.00  0.00    +0.031 C 
ATOM     27  C   UNL     1       5.132   8.181  -8.457  0.00  0.00    +0.031 C 
ENDBRANCH  21  24
ENDBRANCH  15  16
ENDBRANCH   1  15
TORSDOF 5
