REMARK  Name = ZINC48733285
REMARK  6 active torsions:
REMARK  status: ('A' for Active; 'I' for Inactive)
REMARK    1  A    between atoms: C_1  and  C_2
REMARK    2  A    between atoms: C_4  and  C_10
REMARK    3  A    between atoms: C_5  and  O_9
REMARK    4  A    between atoms: C_16  and  C_18
REMARK    5  A    between atoms: C_18  and  C_19
REMARK    6  A    between atoms: C_18  and  C_20
REMARK                            x       y       z     vdW  Elec       q    Type
REMARK                         _______ _______ _______ _____ _____    ______ ____
ROOT
ATOM      1  C   UNL     1       0.029  -2.813  -2.487  0.00  0.00    +0.253 C 
ATOM      2  O   UNL     1       0.045  -4.029  -2.491  0.00  0.00    -0.270 OA
ATOM      3  N   UNL     1       0.013  -2.135  -3.651  0.00  0.00    -0.259 N 
ATOM      4  C   UNL     1       0.016  -2.826  -4.857  0.00  0.00    +0.188 A 
ATOM      5  N   UNL     1       0.027  -4.131  -5.093  0.00  0.00    -0.126 NA
ATOM      6  N   UNL     1       0.029  -4.595  -6.266  0.00  0.00    -0.144 NA
ATOM      7  C   UNL     1       0.019  -3.815  -7.329  0.00  0.00    +0.106 A 
ATOM      8  S   UNL     1      -0.001  -2.209  -6.538  0.00  0.00    -0.035 S 
ATOM      9  H   UNL     1      -0.000  -1.165  -3.648  0.00  0.00    +0.157 HD
ENDROOT
BRANCH   1  13
ATOM     10  C   UNL     1      -0.018   1.503   0.010  0.00  0.00    +0.044 C 
ATOM     11  C   UNL     1       0.002  -0.004   0.002  0.00  0.00    -0.048 A 
ATOM     12  C   UNL     1       0.006  -0.683  -1.197  0.00  0.00    +0.020 A 
ATOM     13  C   UNL     1       0.025  -2.080  -1.207  0.00  0.00    +0.080 A 
ATOM     14  C   UNL     1       0.041  -2.781   0.007  0.00  0.00    +0.143 A 
ATOM     15  C   UNL     1       0.037  -2.081   1.205  0.00  0.00    +0.060 A 
ATOM     16  C   UNL     1       0.023  -0.700   1.200  0.00  0.00    +0.022 A 
ATOM     17 BR   UNL     1       0.057  -3.019   2.847  0.00  0.00    -0.046 Br
BRANCH  14  18
ATOM     18  O   UNL     1       0.059  -4.138   0.010  0.00  0.00    -0.505 OA
ATOM     19  H   UNL     1       0.948  -4.519   0.007  0.00  0.00    +0.292 HD
ENDBRANCH  14  18
ENDBRANCH   1  13
BRANCH   7  20
ATOM     20  C   UNL     1       0.019  -4.174  -8.793  0.00  0.00    +0.040 C 
ATOM     21  C   UNL     1       1.275  -4.985  -9.120  0.00  0.00    +0.014 C 
ATOM     22  C   UNL     1      -1.224  -5.006  -9.114  0.00  0.00    +0.014 C 
ENDBRANCH   7  20
TORSDOF 3
