REMARK  Name = ZINC13230601
REMARK  7 active torsions:
REMARK  status: ('A' for Active; 'I' for Inactive)
REMARK    1  A    between atoms: C_1  and  C_2
REMARK    2  A    between atoms: C_3  and  C_31
REMARK    3  A    between atoms: N_9  and  N_12
REMARK    4  A    between atoms: C_13  and  C_15
REMARK    5  A    between atoms: C_15  and  S_16
REMARK    6  A    between atoms: S_16  and  C_17
REMARK    7  A    between atoms: C_28  and  C_30
REMARK                            x       y       z     vdW  Elec       q    Type
REMARK                         _______ _______ _______ _____ _____    ______ ____
ROOT
ATOM      1  N   UNL     1       7.498   0.583  -0.066  0.00  0.00    -0.218 N 
ATOM      2  C   UNL     1       6.455   1.438  -0.052  0.00  0.00    +0.241 C 
ATOM      3  O   UNL     1       6.652   2.634  -0.048  0.00  0.00    -0.273 OA
ATOM      4  H   UNL     1       7.340  -0.374  -0.069  0.00  0.00    +0.176 HD
ENDROOT
BRANCH   1  13
ATOM      5  C   UNL     1      11.527   1.048   3.470  0.00  0.00    +0.045 C 
ATOM      6  C   UNL     1      11.863   1.579   2.100  0.00  0.00    -0.026 A 
ATOM      7  C   UNL     1      13.074   2.106   1.854  0.00  0.00    -0.008 A 
ATOM      8  S   UNL     1      12.978   2.577   0.138  0.00  0.00    -0.073 S 
ATOM      9  C   UNL     1      11.316   2.054  -0.199  0.00  0.00    +0.116 A 
ATOM     10  C   UNL     1      10.883   1.528   1.032  0.00  0.00    +0.077 A 
ATOM     11  C   UNL     1       9.543   1.020   1.051  0.00  0.00    +0.280 A 
ATOM     12  O   UNL     1       9.076   0.543   2.071  0.00  0.00    -0.265 OA
ATOM     13  N   UNL     1       8.809   1.078  -0.076  0.00  0.00    -0.212 N 
ATOM     14  C   UNL     1       9.314   1.600  -1.223  0.00  0.00    +0.223 A 
ATOM     15  N   UNL     1      10.529   2.076  -1.270  0.00  0.00    -0.228 NA
ATOM     16  C   UNL     1      14.236   2.260   2.802  0.00  0.00    +0.052 C 
ENDBRANCH   1  13
BRANCH   2  17
ATOM     17  C   UNL     1       5.045   0.906  -0.041  0.00  0.00    +0.174 C 
BRANCH  17  18
ATOM     18  S   UNL     1       3.879   2.290  -0.024  0.00  0.00    -0.077 S 
BRANCH  18  19
ATOM     19  C   UNL     1       2.355   1.405  -0.014  0.00  0.00    +0.192 A 
ATOM     20  N   UNL     1       2.389   0.097  -0.021  0.00  0.00    -0.222 NA
ATOM     21  C   UNL     1       1.260  -0.650  -0.013  0.00  0.00    +0.077 A 
ATOM     22  C   UNL     1       1.310  -2.047  -0.022  0.00  0.00    +0.028 A 
ATOM     23  C   UNL     1       0.151  -2.769  -0.015  0.00  0.00    +0.002 A 
ATOM     24  C   UNL     1      -1.085  -2.136   0.000  0.00  0.00    +0.001 A 
ATOM     25  C   UNL     1      -1.168  -0.761   0.009  0.00  0.00    +0.014 A 
ATOM     26  C   UNL     1       0.002  -0.004   0.002  0.00  0.00    +0.045 A 
ATOM     27  C   UNL     1      -0.018   1.463   0.010  0.00  0.00    +0.168 A 
ATOM     28  N   UNL     1       1.185   2.115   0.002  0.00  0.00    -0.188 N 
ATOM     29  N   UNL     1       0.881   3.483   0.012  0.00  0.00    -0.148 NA
ATOM     30  C   UNL     1      -0.425   3.588   0.025  0.00  0.00    +0.149 A 
ATOM     31  N   UNL     1      -0.968   2.373   0.019  0.00  0.00    -0.211 NA
ATOM     32  C   UNL     1      -1.193   4.884   0.039  0.00  0.00    +0.090 C 
ENDBRANCH  18  19
ENDBRANCH  17  18
ENDBRANCH   2  17
TORSDOF 4
