REMARK  Name = ZINC49501995
REMARK  4 active torsions:
REMARK  status: ('A' for Active; 'I' for Inactive)
REMARK    1  A    between atoms: C_1  and  N_2
REMARK    2  A    between atoms: C_5  and  S_8
REMARK    3  A    between atoms: S_8  and  N_11
REMARK    4  A    between atoms: C_12  and  C_14
REMARK                            x       y       z     vdW  Elec       q    Type
REMARK                         _______ _______ _______ _____ _____    ______ ____
ROOT
ATOM      1  S   UNL     1       0.058  -3.549   1.628  0.00  0.00    +0.120 S 
ATOM      2  O   UNL     1      -0.966  -3.397   2.601  0.00  0.00    -0.145 OA
ATOM      3  O   UNL     1       0.096  -4.647   0.728  0.00  0.00    -0.145 OA
ENDROOT
BRANCH   1   8
ATOM      4  C   UNL     1      -0.018   1.461   0.010  0.00  0.00    +0.151 C 
ATOM      5  N   UNL     1       0.002  -0.004   0.002  0.00  0.00    -0.324 N 
ATOM      6  C   UNL     1       0.009  -0.800  -1.090  0.00  0.00    +0.176 A 
ATOM      7  N   UNL     1       0.027  -2.045  -0.701  0.00  0.00    -0.329 N 
ATOM      8  C   UNL     1       0.034  -2.090   0.640  0.00  0.00    +0.216 A 
ATOM      9  C   UNL     1       0.024  -0.822   1.099  0.00  0.00    +0.154 A 
ATOM     10 CL   UNL     1       0.032  -0.324   2.762  0.00  0.00    -0.060 Cl
ATOM     11  H   UNL     1       0.036  -2.817  -1.288  0.00  0.00    +0.168 HD
ENDBRANCH   1   8
BRANCH   1  12
ATOM     12  N   UNL     1       1.495  -3.559   2.450  0.00  0.00    -0.084 NA
ATOM     13  C   UNL     1       1.773  -4.537   3.261  0.00  0.00    +0.297 C 
ATOM     14  O   UNL     1       0.888  -5.546   3.432  0.00  0.00    -0.264 OA
BRANCH  13  15
ATOM     15  C   UNL     1       3.057  -4.547   3.996  0.00  0.00    +0.061 A 
ATOM     16  C   UNL     1       3.360  -5.598   4.862  0.00  0.00    +0.015 A 
ATOM     17  C   UNL     1       4.559  -5.602   5.544  0.00  0.00    +0.001 A 
ATOM     18  C   UNL     1       5.461  -4.566   5.371  0.00  0.00    +0.001 A 
ATOM     19  C   UNL     1       5.167  -3.521   4.515  0.00  0.00    +0.021 A 
ATOM     20  C   UNL     1       3.972  -3.508   3.821  0.00  0.00    +0.053 A 
ATOM     21 CL   UNL     1       3.607  -2.199   2.741  0.00  0.00    -0.083 Cl
ENDBRANCH  13  15
ENDBRANCH   1  12
TORSDOF 3
