REMARK  Name = ZINC59122216
REMARK  11 active torsions:
REMARK  status: ('A' for Active; 'I' for Inactive)
REMARK    1  A    between atoms: C_1  and  O_2
REMARK    2  A    between atoms: O_2  and  C_3
REMARK    3  A    between atoms: C_3  and  C_5
REMARK    4  A    between atoms: C_5  and  S_15
REMARK    5  A    between atoms: N_6  and  N_7
REMARK    6  A    between atoms: N_7  and  C_8
REMARK    7  A    between atoms: S_15  and  C_16
REMARK    8  A    between atoms: C_19  and  C_27
REMARK    9  A    between atoms: N_20  and  C_21
REMARK   10  A    between atoms: C_27  and  C_29
REMARK   11  A    between atoms: C_27  and  O_35
REMARK                            x       y       z     vdW  Elec       q    Type
REMARK                         _______ _______ _______ _____ _____    ______ ____
ROOT
ATOM      1  C   UNL     1      -2.452  -4.462  -0.679  0.00  0.00    +0.203 A 
ATOM      2  N   UNL     1      -1.260  -4.950  -0.933  0.00  0.00    -0.122 NA
ATOM      3  N   UNL     1      -1.367  -6.136  -1.416  0.00  0.00    -0.130 NA
ATOM      4  C   UNL     1      -2.622  -6.476  -1.499  0.00  0.00    +0.172 A 
ATOM      5  N   UNL     1      -3.361  -5.423  -1.028  0.00  0.00    -0.272 N 
ENDROOT
BRANCH   5   6
ATOM      6  C   UNL     1      -4.757  -5.346  -0.926  0.00  0.00    +0.050 A 
ATOM      7  C   UNL     1      -5.439  -6.185  -0.056  0.00  0.00    +0.026 A 
ATOM      8  C   UNL     1      -6.814  -6.107   0.042  0.00  0.00    +0.002 A 
ATOM      9  C   UNL     1      -7.512  -5.194  -0.727  0.00  0.00    +0.000 A 
ATOM     10  C   UNL     1      -6.836  -4.357  -1.595  0.00  0.00    +0.002 A 
ATOM     11  C   UNL     1      -5.460  -4.426  -1.692  0.00  0.00    +0.026 A 
ENDBRANCH   5   6
BRANCH   1  12
ATOM     12  S   UNL     1      -2.812  -2.873  -0.008  0.00  0.00    -0.021 S 
BRANCH  12  13
ATOM     13  C   UNL     1      -1.228  -2.135   0.215  0.00  0.00    +0.206 C 
ATOM     14  N   UNL     1      -0.148  -2.795  -0.110  0.00  0.00    -0.168 NA
BRANCH  13  15
ATOM     15  C   UNL     1      -1.121  -0.779   0.766  0.00  0.00    +0.366 C 
ATOM     16  O   UNL     1      -2.124  -0.115   0.945  0.00  0.00    -0.243 OA
BRANCH  15  18
ATOM     17  C   UNL     1       0.119   1.056   1.607  0.00  0.00    +0.280 C 
ATOM     18  O   UNL     1       0.089  -0.270   1.075  0.00  0.00    -0.463 OA
ENDBRANCH  15  18
ENDBRANCH  13  15
BRANCH  14  19
ATOM     19  N   UNL     1       1.094  -2.146  -0.119  0.00  0.00    -0.237 N 
ATOM     20  H   UNL     1       1.142  -1.189   0.032  0.00  0.00    +0.174 HD
BRANCH  19  21
ATOM     21  C   UNL     1       2.261  -2.877  -0.344  0.00  0.00    +0.048 A 
ATOM     22  C   UNL     1       2.194  -4.247  -0.565  0.00  0.00    +0.026 A 
ATOM     23  C   UNL     1       3.351  -4.967  -0.788  0.00  0.00    +0.022 A 
ATOM     24  C   UNL     1       4.577  -4.325  -0.790  0.00  0.00    +0.041 A 
ATOM     25  C   UNL     1       4.648  -2.961  -0.570  0.00  0.00    +0.022 A 
ATOM     26  C   UNL     1       3.494  -2.234  -0.352  0.00  0.00    +0.026 A 
ATOM     27 CL   UNL     1       6.029  -5.234  -1.070  0.00  0.00    -0.084 Cl
ENDBRANCH  19  21
ENDBRANCH  14  19
ENDBRANCH  12  13
ENDBRANCH   1  12
BRANCH   4  28
ATOM     28  C   UNL     1      -3.161  -7.785  -2.014  0.00  0.00    +0.212 C 
BRANCH  28  29
ATOM     29  C   UNL     1      -3.054  -7.817  -3.517  0.00  0.00    -0.012 A 
ATOM     30  C   UNL     1      -1.877  -8.223  -4.118  0.00  0.00    +0.006 A 
ATOM     31  C   UNL     1      -1.779  -8.251  -5.496  0.00  0.00    +0.000 A 
ATOM     32  C   UNL     1      -2.858  -7.874  -6.274  0.00  0.00    +0.000 A 
ATOM     33  C   UNL     1      -4.035  -7.469  -5.673  0.00  0.00    +0.000 A 
ATOM     34  C   UNL     1      -4.135  -7.444  -4.295  0.00  0.00    +0.006 A 
ENDBRANCH  28  29
BRANCH  28  35
ATOM     35  O   UNL     1      -2.403  -8.863  -1.460  0.00  0.00    -0.379 OA
ATOM     36  H   UNL     1      -1.462  -8.836  -1.680  0.00  0.00    +0.211 HD
ENDBRANCH  28  35
ENDBRANCH   4  28
TORSDOF 10
