REMARK  Name = ZINC40746056
REMARK  7 active torsions:
REMARK  status: ('A' for Active; 'I' for Inactive)
REMARK    1  A    between atoms: C_1  and  C_2
REMARK    2  A    between atoms: C_3  and  N_8
REMARK    3  A    between atoms: C_4  and  C_7
REMARK    4  A    between atoms: C_9  and  C_11
REMARK    5  A    between atoms: C_13  and  N_17
REMARK    6  A    between atoms: N_14  and  C_16
REMARK    7  A    between atoms: C_18  and  C_20
REMARK                            x       y       z     vdW  Elec       q    Type
REMARK                         _______ _______ _______ _____ _____    ______ ____
ROOT
ATOM      1  C   UNL     1       0.570   0.289  -4.739  0.00  0.00    +0.149 A 
ATOM      2  C   UNL     1       0.993  -0.198  -5.992  0.00  0.00    +0.078 A 
ATOM      3  C   UNL     1       0.958   0.835  -6.873  0.00  0.00    +0.124 A 
ATOM      4  N   UNL     1       0.529   1.937  -6.202  0.00  0.00    -0.253 N 
ATOM      5  N   UNL     1       0.288   1.571  -4.872  0.00  0.00    -0.165 NA
ATOM      6  C   UNL     1       0.346   3.274  -6.773  0.00  0.00    +0.174 C 
ENDROOT
BRANCH   1   8
ATOM      7  N   UNL     1       0.032   0.091  -2.360  0.00  0.00    -0.278 N 
ATOM      8  C   UNL     1       0.457  -0.499  -3.495  0.00  0.00    +0.268 C 
ATOM      9  O   UNL     1       0.747  -1.680  -3.495  0.00  0.00    -0.268 OA
ATOM     10  H   UNL     1      -0.273   1.012  -2.376  0.00  0.00    +0.155 HD
BRANCH   7  13
ATOM     11  C   UNL     1       1.938   0.749  -0.244  0.00  0.00    +0.068 C 
ATOM     12  C   UNL     1       0.914  -0.351  -0.123  0.00  0.00    +0.069 A 
ATOM     13  C   UNL     1       0.030  -0.629  -1.151  0.00  0.00    +0.066 A 
ATOM     14  C   UNL     1      -0.842  -1.648  -0.911  0.00  0.00    +0.028 A 
ATOM     15  S   UNL     1      -0.425  -2.147   0.635  0.00  0.00    +0.009 S 
ATOM     16  N   UNL     1       0.828  -1.087   0.957  0.00  0.00    -0.213 NA
ATOM     17  C   UNL     1      -1.918  -2.193  -1.815  0.00  0.00    +0.055 C 
ENDBRANCH   7  13
ENDBRANCH   1   8
BRANCH   3  18
ATOM     18  N   UNL     1       1.301   0.776  -8.223  0.00  0.00    -0.266 N 
ATOM     19  C   UNL     1       1.713  -0.388  -8.763  0.00  0.00    +0.256 C 
ATOM     20  O   UNL     1       1.785  -1.387  -8.073  0.00  0.00    -0.269 OA
ATOM     21  H   UNL     1       1.243   1.573  -8.773  0.00  0.00    +0.157 HD
BRANCH  19  22
ATOM     22  C   UNL     1       2.073  -0.450 -10.182  0.00  0.00    +0.074 A 
ATOM     23  C   UNL     1       2.510  -1.535 -10.927  0.00  0.00    +0.021 A 
ATOM     24  C   UNL     1       2.773  -1.283 -12.252  0.00  0.00    +0.008 A 
ATOM     25  C   UNL     1       2.594  -0.028 -12.732  0.00  0.00    +0.046 A 
ATOM     26  S   UNL     1       2.057   0.849 -11.403  0.00  0.00    -0.092 S 
ENDBRANCH  19  22
ENDBRANCH   3  18
TORSDOF 4
