REMARK  Name = ZINC15677100
REMARK  13 active torsions:
REMARK  status: ('A' for Active; 'I' for Inactive)
REMARK    1  A    between atoms: C_1  and  C_2
REMARK    2  A    between atoms: C_2  and  C_30
REMARK    3  A    between atoms: N_15  and  C_16
REMARK    4  A    between atoms: C_16  and  C_17
REMARK    5  A    between atoms: C_17  and  C_18
REMARK    6  A    between atoms: C_20  and  O_28
REMARK    7  A    between atoms: C_21  and  O_26
REMARK    8  A    between atoms: C_22  and  O_24
REMARK    9  A    between atoms: O_24  and  C_25
REMARK   10  A    between atoms: O_26  and  C_27
REMARK   11  A    between atoms: O_28  and  C_29
REMARK   12  A    between atoms: N_32  and  C_33
REMARK   13  A    between atoms: C_33  and  C_34
REMARK                            x       y       z     vdW  Elec       q    Type
REMARK                         _______ _______ _______ _____ _____    ______ ____
ROOT
ATOM      1  C   UNL     1       0.087   1.807   4.813  0.00  0.00    +0.043 C 
ATOM      2  C   UNL     1      -0.927   1.718   3.671  0.00  0.00    +0.128 C 
ATOM      3  C   UNL     1      -2.009   0.709   4.051  0.00  0.00    +0.157 C 
ATOM      4  N   UNL     1      -3.127   0.818   3.107  0.00  0.00    -0.334 N 
ATOM      5  C   UNL     1      -4.013  -0.117   2.689  0.00  0.00    +0.050 A 
ATOM      6  C   UNL     1      -4.148  -1.476   2.978  0.00  0.00    +0.026 A 
ATOM      7  C   UNL     1      -5.191  -2.148   2.368  0.00  0.00    +0.002 A 
ATOM      8  C   UNL     1      -6.073  -1.518   1.503  0.00  0.00    +0.001 A 
ATOM      9  C   UNL     1      -5.967  -0.186   1.196  0.00  0.00    +0.010 A 
ATOM     10  C   UNL     1      -4.917   0.523   1.798  0.00  0.00    +0.001 A 
ATOM     11  C   UNL     1      -4.522   1.870   1.699  0.00  0.00    +0.041 A 
ATOM     12  C   UNL     1      -3.438   2.030   2.486  0.00  0.00    +0.106 A 
ATOM     13  C   UNL     1      -2.622   3.233   2.735  0.00  0.00    +0.264 C 
ATOM     14  O   UNL     1      -2.968   4.333   2.348  0.00  0.00    -0.268 OA
ATOM     15  N   UNL     1      -1.467   3.049   3.416  0.00  0.00    -0.280 N 
ENDROOT
BRANCH   2  16
ATOM     16  C   UNL     1      -0.222   1.232   2.431  0.00  0.00    +0.238 C 
ATOM     17  O   UNL     1       0.774   0.548   2.529  0.00  0.00    -0.273 OA
ATOM     18  N   UNL     1      -0.698   1.558   1.213  0.00  0.00    -0.309 N 
ATOM     19  H   UNL     1      -1.495   2.106   1.135  0.00  0.00    +0.149 HD
BRANCH  18  20
ATOM     20  C   UNL     1      -0.013   1.086   0.008  0.00  0.00    +0.139 C 
BRANCH  20  21
ATOM     21  C   UNL     1      -0.742   1.585  -1.213  0.00  0.00    -0.030 A 
ATOM     22  C   UNL     1      -1.750   0.825  -1.775  0.00  0.00    +0.005 A 
ATOM     23  C   UNL     1      -2.421   1.285  -2.892  0.00  0.00    +0.000 A 
ATOM     24  C   UNL     1      -2.078   2.501  -3.453  0.00  0.00    +0.000 A 
ATOM     25  C   UNL     1      -1.067   3.259  -2.894  0.00  0.00    +0.000 A 
ATOM     26  C   UNL     1      -0.398   2.801  -1.774  0.00  0.00    +0.005 A 
ENDBRANCH  20  21
ENDBRANCH  18  20
ENDBRANCH   2  16
BRANCH  15  27
ATOM     27  C   UNL     1      -0.737   4.220   3.909  0.00  0.00    +0.114 C 
BRANCH  27  28
ATOM     28  C   UNL     1       0.255   4.689   2.844  0.00  0.00    +0.054 C 
BRANCH  28  29
ATOM     29  C   UNL     1       1.005   5.893   3.352  0.00  0.00    -0.039 A 
ATOM     30  C   UNL     1       0.513   7.163   3.115  0.00  0.00    +0.053 A 
ATOM     31  C   UNL     1       1.197   8.273   3.585  0.00  0.00    +0.165 A 
ATOM     32  C   UNL     1       2.386   8.109   4.286  0.00  0.00    +0.204 A 
ATOM     33  C   UNL     1       2.881   6.831   4.518  0.00  0.00    +0.165 A 
ATOM     34  C   UNL     1       2.187   5.725   4.049  0.00  0.00    +0.053 A 
BRANCH  33  35
ATOM     35  O   UNL     1       4.043   6.665   5.204  0.00  0.00    -0.491 OA
ATOM     36  C   UNL     1       4.492   5.323   5.405  0.00  0.00    +0.277 C 
ENDBRANCH  33  35
BRANCH  32  37
ATOM     37  O   UNL     1       3.064   9.196   4.744  0.00  0.00    -0.488 OA
ATOM     38  C   UNL     1       4.038   9.769   3.870  0.00  0.00    +0.277 C 
ENDBRANCH  32  37
BRANCH  31  39
ATOM     39  O   UNL     1       0.709   9.521   3.356  0.00  0.00    -0.491 OA
ATOM     40  C   UNL     1      -0.518   9.615   2.629  0.00  0.00    +0.277 C 
ENDBRANCH  31  39
ENDBRANCH  28  29
ENDBRANCH  27  28
ENDBRANCH  15  27
TORSDOF 9
