REMARK  Name = ZINC14997462
REMARK  9 active torsions:
REMARK  status: ('A' for Active; 'I' for Inactive)
REMARK    1  A    between atoms: C_1  and  C_2
REMARK    2  A    between atoms: C_2  and  C_3
REMARK    3  A    between atoms: C_2  and  N_4
REMARK    4  A    between atoms: C_7  and  N_10
REMARK    5  A    between atoms: C_17  and  C_21
REMARK    6  A    between atoms: C_21  and  C_23
REMARK    7  A    between atoms: C_21  and  O_36
REMARK    8  A    between atoms: C_23  and  C_24
REMARK    9  A    between atoms: C_23  and  C_30
REMARK                            x       y       z     vdW  Elec       q    Type
REMARK                         _______ _______ _______ _____ _____    ______ ____
ROOT
ATOM      1  N   UNL     1      -5.939  -3.647  -1.818  0.00  0.00    -0.292 NA
ATOM      2  C   UNL     1      -6.903  -2.954  -2.667  0.00  0.00    +0.126 C 
ATOM      3  C   UNL     1      -8.263  -2.782  -2.026  0.00  0.00    +0.244 C 
ATOM      4  O   UNL     1      -8.890  -4.054  -1.816  0.00  0.00    -0.490 OA
ATOM      5  C   UNL     1      -8.554  -4.685  -0.658  0.00  0.00    +0.125 A 
ATOM      6  C   UNL     1      -9.493  -4.836   0.352  0.00  0.00    +0.046 A 
ATOM      7  C   UNL     1      -9.134  -5.458   1.533  0.00  0.00    +0.010 A 
ATOM      8  C   UNL     1      -7.845  -5.928   1.708  0.00  0.00    -0.018 A 
ATOM      9  C   UNL     1      -6.911  -5.786   0.696  0.00  0.00    +0.014 A 
ATOM     10  C   UNL     1      -7.273  -5.174  -0.486  0.00  0.00    +0.009 A 
ATOM     11  C   UNL     1      -6.275  -5.062  -1.622  0.00  0.00    +0.123 C 
ENDROOT
BRANCH   1  15
ATOM     12  N   UNL     1      -2.042  -4.734  -3.012  0.00  0.00    +0.381 N 
ATOM     13  C   UNL     1      -2.151  -3.846  -1.849  0.00  0.00    -0.077 C 
ATOM     14  C   UNL     1      -3.566  -3.928  -1.271  0.00  0.00    +0.000 C 
ATOM     15  C   UNL     1      -4.574  -3.498  -2.341  0.00  0.00    +0.054 C 
ATOM     16  C   UNL     1      -4.400  -4.383  -3.578  0.00  0.00    +0.000 C 
ATOM     17  C   UNL     1      -2.954  -4.284  -4.070  0.00  0.00    -0.077 C 
ATOM     18  H   UNL     1      -2.283  -5.675  -2.739  0.00  0.00    -0.081 HD
BRANCH  12  20
ATOM     19  C   UNL     1       0.291  -5.179  -2.414  0.00  0.00    -0.014 C 
ATOM     20  C   UNL     1      -0.662  -4.711  -3.516  0.00  0.00    -0.075 C 
ATOM     21  C   UNL     1      -0.544  -5.643  -4.723  0.00  0.00    -0.014 C 
ENDBRANCH  12  20
ENDBRANCH   1  15
BRANCH   8  22
ATOM     22  C   UNL     1      -7.457  -6.595   3.002  0.00  0.00    +0.156 C 
BRANCH  22  23
ATOM     23  O   UNL     1      -8.526  -7.433   3.445  0.00  0.00    -0.386 OA
ATOM     24  H   UNL     1      -9.355  -6.961   3.605  0.00  0.00    +0.210 HD
ENDBRANCH  22  23
BRANCH  22  25
ATOM     25  C   UNL     1      -7.172  -5.528   4.061  0.00  0.00    +0.082 C 
BRANCH  25  26
ATOM     26  C   UNL     1      -6.784  -6.196   5.355  0.00  0.00    -0.037 A 
ATOM     27  C   UNL     1      -7.459  -5.888   6.521  0.00  0.00    +0.004 A 
ATOM     28  C   UNL     1      -7.103  -6.501   7.708  0.00  0.00    +0.000 A 
ATOM     29  C   UNL     1      -6.072  -7.421   7.729  0.00  0.00    +0.000 A 
ATOM     30  C   UNL     1      -5.397  -7.729   6.562  0.00  0.00    +0.000 A 
ATOM     31  C   UNL     1      -5.756  -7.120   5.375  0.00  0.00    +0.004 A 
ENDBRANCH  25  26
BRANCH  25  32
ATOM     32  C   UNL     1      -6.044  -4.645   3.593  0.00  0.00    -0.037 A 
ATOM     33  C   UNL     1      -4.849  -5.208   3.186  0.00  0.00    +0.004 A 
ATOM     34  C   UNL     1      -3.814  -4.398   2.757  0.00  0.00    +0.000 A 
ATOM     35  C   UNL     1      -3.975  -3.025   2.735  0.00  0.00    +0.000 A 
ATOM     36  C   UNL     1      -5.170  -2.462   3.141  0.00  0.00    +0.000 A 
ATOM     37  C   UNL     1      -6.206  -3.273   3.566  0.00  0.00    +0.004 A 
ENDBRANCH  25  32
ENDBRANCH  22  25
ENDBRANCH   8  22
TORSDOF 7
