REMARK  Name = ZINC08798807
REMARK  9 active torsions:
REMARK  status: ('A' for Active; 'I' for Inactive)
REMARK    1  A    between atoms: C_1  and  N_2
REMARK    2  A    between atoms: C_10  and  C_12
REMARK    3  A    between atoms: C_12  and  C_14
REMARK    4  A    between atoms: C_12  and  N_53
REMARK    5  A    between atoms: C_14  and  N_15
REMARK    6  A    between atoms: N_15  and  S_16
REMARK    7  A    between atoms: S_16  and  C_19
REMARK    8  A    between atoms: C_27  and  N_53
REMARK    9  A    between atoms: C_28  and  N_53
REMARK                            x       y       z     vdW  Elec       q    Type
REMARK                         _______ _______ _______ _____ _____    ______ ____
ROOT
ATOM      1  C   UNL     1      -0.287  -1.113   0.651  0.00  0.00    -0.023 C 
ENDROOT
BRANCH   1  11
ATOM      2  C   UNL     1      -1.113   5.150   0.639  0.00  0.00    +0.129 C 
ATOM      3  N   UNL     1       0.121   4.524   0.145  0.00  0.00    -0.333 N 
ATOM      4  C   UNL     1       1.300   5.123   0.772  0.00  0.00    +0.105 C 
ATOM      5  C   UNL     1       2.552   4.415   0.240  0.00  0.00    +0.024 C 
ATOM      6  C   UNL     1       2.547   2.982   0.777  0.00  0.00    +0.038 C 
ATOM      7  C   UNL     1       1.184   2.370   0.575  0.00  0.00    -0.026 A 
ATOM      8  C   UNL     1       0.070   3.139   0.286  0.00  0.00    +0.033 A 
ATOM      9  C   UNL     1      -1.168   2.516   0.120  0.00  0.00    +0.023 A 
ATOM     10  C   UNL     1      -1.281   1.146   0.233  0.00  0.00    +0.004 A 
ATOM     11  C   UNL     1      -0.165   0.383   0.524  0.00  0.00    -0.059 A 
ATOM     12  C   UNL     1       1.062   0.994   0.692  0.00  0.00    +0.007 A 
ENDBRANCH   1  11
BRANCH   1  15
ATOM     13  C   UNL     1      -2.648  -1.649   0.631  0.00  0.00    -0.096 C 
ATOM     14  C   UNL     1      -1.202  -2.615   2.316  0.00  0.00    -0.096 C 
ATOM     15  N   UNL     1      -1.466  -1.419   1.488  0.00  0.00    +0.381 N 
ATOM     16  H   UNL     1      -1.653  -0.620   2.106  0.00  0.00    -0.082 HD
ENDBRANCH   1  15
BRANCH   1  17
ATOM     17  C   UNL     1      -0.447  -1.732  -0.739  0.00  0.00    +0.095 C 
BRANCH  17  18
ATOM     18  N   UNL     1      -0.524  -3.190  -0.619  0.00  0.00    -0.191 NA
ATOM     19  H   UNL     1      -0.229  -3.626   0.196  0.00  0.00    +0.148 HD
BRANCH  18  20
ATOM     20  S   UNL     1      -1.116  -4.094  -1.873  0.00  0.00    +0.060 S 
ATOM     21  O   UNL     1      -1.039  -5.454  -1.466  0.00  0.00    -0.153 OA
ATOM     22  O   UNL     1      -2.337  -3.487  -2.271  0.00  0.00    -0.153 OA
BRANCH  20  23
ATOM     23  C   UNL     1       0.002  -3.908  -3.222  0.00  0.00    +0.125 A 
ATOM     24  C   UNL     1       0.722  -4.996  -3.679  0.00  0.00    +0.050 A 
ATOM     25  C   UNL     1       1.596  -4.851  -4.741  0.00  0.00    +0.043 A 
ATOM     26  C   UNL     1       1.757  -3.614  -5.340  0.00  0.00    +0.021 A 
ATOM     27  C   UNL     1       1.042  -2.525  -4.880  0.00  0.00    +0.023 A 
ATOM     28  C   UNL     1       0.164  -2.672  -3.821  0.00  0.00    +0.067 A 
ATOM     29 CL   UNL     1      -0.736  -1.304  -3.244  0.00  0.00    -0.082 Cl
ATOM     30 CL   UNL     1       2.495  -6.219  -5.318  0.00  0.00    -0.083 Cl
ENDBRANCH  20  23
ENDBRANCH  18  20
ENDBRANCH  17  18
ENDBRANCH   1  17
TORSDOF 6
