REMARK  Name = ZINC39356208
REMARK  7 active torsions:
REMARK  status: ('A' for Active; 'I' for Inactive)
REMARK    1  A    between atoms: C_1  and  C_2
REMARK    2  A    between atoms: C_2  and  N_3
REMARK    3  A    between atoms: C_4  and  C_24
REMARK    4  A    between atoms: C_8  and  S_10
REMARK    5  A    between atoms: S_10  and  C_11
REMARK    6  A    between atoms: C_11  and  C_12
REMARK    7  A    between atoms: C_29  and  C_30
REMARK                            x       y       z     vdW  Elec       q    Type
REMARK                         _______ _______ _______ _____ _____    ______ ____
ROOT
ATOM      1  N   UNL     1       1.041  -0.672   1.588  0.00  0.00    +0.410 N 
ATOM      2  C   UNL     1       0.837  -2.144   1.654  0.00  0.00    +0.050 C 
ATOM      3  N   UNL     1       1.871  -2.576   2.631  0.00  0.00    -0.267 NA
ATOM      4  N   UNL     1       3.028  -1.724   2.341  0.00  0.00    -0.262 NA
ATOM      5  C   UNL     1       2.510  -0.509   1.682  0.00  0.00    +0.077 C 
ATOM      6  H   UNL     1       2.100  -3.551   2.506  0.00  0.00    +0.139 HD
ATOM      7  H   UNL     1       3.526  -1.492   3.188  0.00  0.00    +0.140 HD
ATOM      8  H   UNL     1       0.584  -0.215   2.363  0.00  0.00    -0.075 HD
ENDROOT
BRANCH   2   9
ATOM      9  C   UNL     1      -0.546  -2.469   2.157  0.00  0.00    -0.043 A 
ATOM     10  C   UNL     1      -1.220  -1.567   2.959  0.00  0.00    +0.003 A 
ATOM     11  C   UNL     1      -2.488  -1.866   3.420  0.00  0.00    +0.000 A 
ATOM     12  C   UNL     1      -3.083  -3.066   3.078  0.00  0.00    +0.000 A 
ATOM     13  C   UNL     1      -2.410  -3.967   2.275  0.00  0.00    +0.003 A 
ATOM     14  C   UNL     1      -1.143  -3.667   1.811  0.00  0.00    -0.048 A 
ATOM     15  C   UNL     1      -0.411  -4.647   0.931  0.00  0.00    +0.044 C 
ENDBRANCH   2   9
BRANCH   1  17
ATOM     16  C   UNL     1       0.756   1.374   0.273  0.00  0.00    -0.017 C 
ATOM     17  C   UNL     1       0.544  -0.141   0.312  0.00  0.00    -0.076 C 
ENDBRANCH   1  17
BRANCH   5  18
ATOM     18  S   UNL     1       2.910   0.956   2.675  0.00  0.00    -0.152 S 
BRANCH  18  19
ATOM     19  C   UNL     1       2.164   0.607   4.291  0.00  0.00    +0.143 C 
BRANCH  19  20
ATOM     20  C   UNL     1       2.426   1.761   5.224  0.00  0.00    +0.120 A 
ATOM     21  N   UNL     1       1.947   1.685   6.494  0.00  0.00    -0.310 N 
ATOM     22  H   UNL     1       1.452   0.899   6.774  0.00  0.00    +0.170 HD
ATOM     23  C   UNL     1       2.156   2.694   7.371  0.00  0.00    +0.259 A 
ATOM     24  O   UNL     1       1.734   2.639   8.511  0.00  0.00    -0.267 OA
ATOM     25  C   UNL     1       2.914   3.860   6.893  0.00  0.00    +0.065 A 
ATOM     26  C   UNL     1       3.183   4.952   7.715  0.00  0.00    +0.015 A 
ATOM     27  C   UNL     1       3.897   6.019   7.216  0.00  0.00    +0.001 A 
ATOM     28  C   UNL     1       4.348   6.013   5.902  0.00  0.00    +0.002 A 
ATOM     29  C   UNL     1       4.093   4.945   5.073  0.00  0.00    +0.028 A 
ATOM     30  C   UNL     1       3.371   3.851   5.557  0.00  0.00    +0.078 A 
ATOM     31  N   UNL     1       3.102   2.775   4.776  0.00  0.00    -0.233 NA
ENDBRANCH  19  20
ENDBRANCH  18  19
ENDBRANCH   5  18
TORSDOF 5
