REMARK  Name = ZINC49882454
REMARK  5 active torsions:
REMARK  status: ('A' for Active; 'I' for Inactive)
REMARK    1  A    between atoms: C_1  and  C_2
REMARK    2  A    between atoms: C_4  and  C_21
REMARK    3  A    between atoms: C_5  and  C_9
REMARK    4  A    between atoms: C_6  and  C_8
REMARK    5  A    between atoms: C_10  and  C_18
REMARK                            x       y       z     vdW  Elec       q    Type
REMARK                         _______ _______ _______ _____ _____    ______ ____
ROOT
ATOM      1  C   UNL     1       0.058  -4.254  -0.021  0.00  0.00    +0.079 A 
ATOM      2  C   UNL     1      -1.053  -5.094  -0.026  0.00  0.00    +0.156 A 
ATOM      3  N   UNL     1      -0.552  -6.378  -0.033  0.00  0.00    -0.323 N 
ATOM      4  C   UNL     1       0.793  -6.290  -0.033  0.00  0.00    +0.088 A 
ATOM      5  N   UNL     1       1.149  -5.035  -0.032  0.00  0.00    -0.343 N 
ATOM      6  C   UNL     1       1.715  -7.489  -0.038  0.00  0.00    +0.072 C 
ATOM      7  C   UNL     1       0.898  -8.726   0.358  0.00  0.00    +0.009 C 
ATOM      8  C   UNL     1      -0.386  -8.770  -0.476  0.00  0.00    +0.022 C 
ATOM      9  C   UNL     1      -1.314  -7.630  -0.041  0.00  0.00    +0.124 C 
ATOM     10  H   UNL     1       2.064  -4.714  -0.035  0.00  0.00    +0.167 HD
ENDROOT
BRANCH   1  15
ATOM     11  C   UNL     1      -0.018   1.503   0.010  0.00  0.00    +0.044 C 
ATOM     12  C   UNL     1       0.002  -0.004   0.002  0.00  0.00    -0.050 A 
ATOM     13  C   UNL     1       0.006  -0.686  -1.202  0.00  0.00    +0.007 A 
ATOM     14  C   UNL     1       0.024  -2.066  -1.216  0.00  0.00    -0.041 A 
ATOM     15  C   UNL     1       0.039  -2.773  -0.013  0.00  0.00    +0.006 A 
ATOM     16  C   UNL     1       0.036  -2.079   1.197  0.00  0.00    -0.041 A 
ATOM     17  C   UNL     1       0.023  -0.699   1.198  0.00  0.00    +0.007 A 
ATOM     18  C   UNL     1       0.052  -2.835   2.501  0.00  0.00    +0.044 C 
ATOM     19  C   UNL     1       0.027  -2.808  -2.527  0.00  0.00    +0.044 C 
ENDBRANCH   1  15
BRANCH   2  20
ATOM     20  C   UNL     1      -2.416  -4.708  -0.023  0.00  0.00    +0.405 C 
ATOM     21  O   UNL     1      -3.294  -5.563  -0.027  0.00  0.00    -0.239 OA
ATOM     22  O   UNL     1      -2.716  -3.521  -0.017  0.00  0.00    -0.239 OA
ENDBRANCH   2  20
TORSDOF 2
