REMARK  Name = ZINC48362580
REMARK  12 active torsions:
REMARK  status: ('A' for Active; 'I' for Inactive)
REMARK    1  A    between atoms: C_1  and  C_2
REMARK    2  A    between atoms: C_2  and  C_3
REMARK    3  A    between atoms: C_6  and  C_9
REMARK    4  A    between atoms: C_9  and  C_11
REMARK    5  A    between atoms: C_9  and  N_27
REMARK    6  A    between atoms: C_11  and  N_12
REMARK    7  A    between atoms: N_15  and  C_16
REMARK    8  A    between atoms: C_19  and  C_26
REMARK    9  A    between atoms: C_20  and  N_22
REMARK   10  A    between atoms: C_23  and  C_25
REMARK   11  A    between atoms: N_27  and  C_28
REMARK   12  A    between atoms: N_27  and  C_29
REMARK                            x       y       z     vdW  Elec       q    Type
REMARK                         _______ _______ _______ _____ _____    ______ ____
ROOT
ATOM      1  N   UNL     1      -6.932  -1.912   0.063  0.00  0.00    -0.300 N 
ATOM      2  C   UNL     1      -7.965  -1.147  -0.343  0.00  0.00    +0.304 C 
ATOM      3  O   UNL     1      -7.818   0.054  -0.471  0.00  0.00    -0.253 OA
ATOM      4  N   UNL     1      -9.159  -1.711  -0.608  0.00  0.00    -0.269 N 
ATOM      5  H   UNL     1      -7.049  -2.870   0.164  0.00  0.00    +0.150 HD
ATOM      6  H   UNL     1      -9.259  -2.675  -0.569  0.00  0.00    +0.156 HD
ENDROOT
BRANCH   4   7
ATOM      7  C   UNL     1     -10.255  -0.907  -0.940  0.00  0.00    +0.037 A 
ATOM      8  C   UNL     1     -10.069   0.246  -1.691  0.00  0.00    +0.024 A 
ATOM      9  C   UNL     1     -11.151   1.041  -2.019  0.00  0.00    +0.007 A 
ATOM     10  C   UNL     1     -12.421   0.692  -1.600  0.00  0.00    -0.029 A 
ATOM     11  C   UNL     1     -12.613  -0.460  -0.848  0.00  0.00    +0.038 A 
ATOM     12  C   UNL     1     -11.530  -1.264  -0.523  0.00  0.00    +0.047 A 
ATOM     13  C   UNL     1     -13.597   1.562  -1.959  0.00  0.00    +0.045 C 
BRANCH  11  14
ATOM     14  N   UNL     1     -13.899  -0.813  -0.424  0.00  0.00    -0.285 N 
ATOM     15  C   UNL     1     -14.071  -1.443   0.755  0.00  0.00    +0.214 C 
ATOM     16  O   UNL     1     -13.122  -1.625   1.488  0.00  0.00    -0.276 OA
ATOM     17  C   UNL     1     -15.441  -1.921   1.161  0.00  0.00    +0.109 C 
ATOM     18  H   UNL     1     -14.667  -0.604  -0.979  0.00  0.00    +0.155 HD
ENDBRANCH  11  14
ENDBRANCH   4   7
BRANCH   1  19
ATOM     19  C   UNL     1      -5.634  -1.298   0.350  0.00  0.00    +0.095 C 
BRANCH  19  20
ATOM     20  C   UNL     1      -4.612  -2.392   0.670  0.00  0.00    -0.021 C 
BRANCH  20  24
ATOM     21  C   UNL     1      -5.775  -4.433   4.237  0.00  0.00    -0.048 A 
ATOM     22  C   UNL     1      -6.043  -4.993   3.002  0.00  0.00    +0.004 A 
ATOM     23  C   UNL     1      -5.666  -4.332   1.848  0.00  0.00    +0.002 A 
ATOM     24  C   UNL     1      -5.023  -3.111   1.928  0.00  0.00    -0.059 A 
ATOM     25  C   UNL     1      -4.757  -2.551   3.163  0.00  0.00    +0.002 A 
ATOM     26  C   UNL     1      -5.137  -3.209   4.318  0.00  0.00    +0.004 A 
BRANCH  21  28
ATOM     27  C   UNL     1      -7.602  -4.728   5.889  0.00  0.00    +0.009 C 
ATOM     28  C   UNL     1      -6.185  -5.153   5.496  0.00  0.00    +0.032 C 
ENDBRANCH  21  28
ENDBRANCH  20  24
BRANCH  20  29
ATOM     29  N   UNL     1      -3.289  -1.784   0.863  0.00  0.00    +0.382 N 
ATOM     30  C   UNL     1      -2.291  -2.841   1.075  0.00  0.00    -0.096 C 
ATOM     31  C   UNL     1      -2.930  -1.004  -0.329  0.00  0.00    -0.096 C 
ATOM     32  H   UNL     1      -3.312  -1.177   1.668  0.00  0.00    -0.082 HD
ENDBRANCH  20  29
ENDBRANCH  19  20
ENDBRANCH   1  19
TORSDOF 7
