REMARK  Name = ZINC35887712
REMARK  14 active torsions:
REMARK  status: ('A' for Active; 'I' for Inactive)
REMARK    1  A    between atoms: C_1  and  C_2
REMARK    2  A    between atoms: C_5  and  C_8
REMARK    3  A    between atoms: N_10  and  C_11
REMARK    4  A    between atoms: N_10  and  C_35
REMARK    5  A    between atoms: C_11  and  C_12
REMARK    6  A    between atoms: N_15  and  C_27
REMARK    7  A    between atoms: C_17  and  C_19
REMARK    8  A    between atoms: C_23  and  O_25
REMARK    9  A    between atoms: O_25  and  C_26
REMARK   10  A    between atoms: C_27  and  C_28
REMARK   11  A    between atoms: C_33  and  O_34
REMARK   12  A    between atoms: C_35  and  C_36
REMARK   13  A    between atoms: C_36  and  C_37
REMARK   14  A    between atoms: C_36  and  C_38
REMARK                            x       y       z     vdW  Elec       q    Type
REMARK                         _______ _______ _______ _____ _____    ______ ____
ROOT
ATOM      1  C   UNL     1      -0.346  -7.850   0.994  0.00  0.00    -0.005 C 
ATOM      2  C   UNL     1       0.133  -8.738  -0.174  0.00  0.00    -0.073 C 
ATOM      3  N   UNL     1       0.184 -10.110   0.395  0.00  0.00    +0.383 N 
ATOM      4  C   UNL     1      -1.020 -10.190   1.262  0.00  0.00    -0.070 C 
ATOM      5  C   UNL     1      -1.103  -8.803   1.941  0.00  0.00    +0.005 C 
ATOM      6  H   UNL     1       1.022 -10.234   0.943  0.00  0.00    -0.081 HD
ENDROOT
BRANCH   5   7
ATOM      7  C   UNL     1      -2.541  -8.372   2.078  0.00  0.00    -0.042 A 
ATOM      8  C   UNL     1      -2.971  -7.760   3.240  0.00  0.00    +0.004 A 
ATOM      9  C   UNL     1      -4.290  -7.363   3.369  0.00  0.00    +0.004 A 
ATOM     10  C   UNL     1      -5.181  -7.578   2.335  0.00  0.00    +0.045 A 
ATOM     11  C   UNL     1      -4.751  -8.192   1.167  0.00  0.00    +0.120 A 
ATOM     12  C   UNL     1      -3.426  -8.584   1.039  0.00  0.00    +0.049 A 
BRANCH  11  13
ATOM     13  O   UNL     1      -5.626  -8.405   0.149  0.00  0.00    -0.495 OA
ATOM     14  C   UNL     1      -6.972  -7.970   0.348  0.00  0.00    +0.277 C 
ENDBRANCH  11  13
ENDBRANCH   5   7
BRANCH   1  15
ATOM     15  C   UNL     1      -1.283  -6.755   0.480  0.00  0.00    +0.110 C 
BRANCH  15  18
ATOM     16  C   UNL     1      -0.354  -5.952  -1.624  0.00  0.00    +0.247 C 
ATOM     17  O   UNL     1      -0.931  -6.857  -2.194  0.00  0.00    -0.270 OA
ATOM     18  N   UNL     1      -0.515  -5.780  -0.297  0.00  0.00    -0.297 N 
BRANCH  16  23
ATOM     19  C   UNL     1       3.064  -2.399  -4.593  0.00  0.00    +0.044 C 
ATOM     20  C   UNL     1       2.169  -3.329  -3.815  0.00  0.00    -0.050 A 
ATOM     21  C   UNL     1       2.325  -4.699  -3.939  0.00  0.00    +0.004 A 
ATOM     22  C   UNL     1       1.509  -5.556  -3.230  0.00  0.00    +0.013 A 
ATOM     23  C   UNL     1       0.524  -5.039  -2.387  0.00  0.00    +0.037 A 
ATOM     24  C   UNL     1       0.372  -3.657  -2.267  0.00  0.00    +0.013 A 
ATOM     25  C   UNL     1       1.198  -2.811  -2.977  0.00  0.00    +0.004 A 
ENDBRANCH  16  23
BRANCH  18  26
ATOM     26  C   UNL     1       0.078  -4.617   0.368  0.00  0.00    +0.111 C 
BRANCH  26  27
ATOM     27  C   UNL     1      -0.874  -4.109   1.452  0.00  0.00    +0.000 C 
ATOM     28  C   UNL     1      -0.206  -2.970   2.226  0.00  0.00    +0.009 C 
ATOM     29  C   UNL     1      -2.161  -3.596   0.801  0.00  0.00    +0.009 C 
ENDBRANCH  26  27
ENDBRANCH  18  26
ENDBRANCH  15  18
ENDBRANCH   1  15
BRANCH   3  30
ATOM     30  C   UNL     1       0.113 -11.113  -0.675  0.00  0.00    -0.039 C 
BRANCH  30  31
ATOM     31  C   UNL     1       0.289 -12.489  -0.087  0.00  0.00    -0.022 A 
ATOM     32  C   UNL     1       1.517 -13.118  -0.155  0.00  0.00    +0.005 A 
ATOM     33  C   UNL     1       1.679 -14.381   0.384  0.00  0.00    +0.000 A 
ATOM     34  C   UNL     1       0.614 -15.017   0.994  0.00  0.00    +0.004 A 
ATOM     35  C   UNL     1      -0.616 -14.392   1.066  0.00  0.00    +0.045 A 
ATOM     36  C   UNL     1      -0.780 -13.122   0.530  0.00  0.00    +0.118 A 
BRANCH  36  37
ATOM     37  O   UNL     1      -1.987 -12.503   0.605  0.00  0.00    -0.507 OA
ATOM     38  H   UNL     1      -2.569 -12.684  -0.146  0.00  0.00    +0.292 HD
ENDBRANCH  36  37
ENDBRANCH  30  31
ENDBRANCH   3  30
TORSDOF 10
