REMARK  Name = ZINC63786553
REMARK  6 active torsions:
REMARK  status: ('A' for Active; 'I' for Inactive)
REMARK    1  A    between atoms: C_6  and  C_11
REMARK    2  A    between atoms: C_11  and  C_12
REMARK    3  A    between atoms: C_12  and  N_13
REMARK    4  A    between atoms: C_14  and  C_16
REMARK    5  A    between atoms: C_19  and  C_22
REMARK    6  A    between atoms: C_22  and  N_23
REMARK                            x       y       z     vdW  Elec       q    Type
REMARK                         _______ _______ _______ _____ _____    ______ ____
ROOT
ATOM      1  N   UNL     1       5.000  -3.595  -1.503  0.00  0.00    -0.315 N 
ATOM      2  C   UNL     1       5.312  -4.189  -2.672  0.00  0.00    +0.216 C 
ATOM      3  O   UNL     1       5.184  -3.581  -3.714  0.00  0.00    -0.276 OA
ATOM      4  H   UNL     1       5.102  -4.081  -0.670  0.00  0.00    +0.149 HD
ENDROOT
BRANCH   2   5
ATOM      5  C   UNL     1       5.819  -5.608  -2.685  0.00  0.00    +0.075 C 
ATOM      6  C   UNL     1       4.765  -6.532  -2.070  0.00  0.00    +0.013 C 
ATOM      7  C   UNL     1       5.279  -7.972  -2.083  0.00  0.00    +0.006 C 
ATOM      8  C   UNL     1       5.556  -8.402  -3.525  0.00  0.00    +0.008 C 
ATOM      9  C   UNL     1       6.609  -7.479  -4.140  0.00  0.00    +0.006 C 
ATOM     10  C   UNL     1       6.095  -6.038  -4.127  0.00  0.00    +0.013 C 
BRANCH   8  11
ATOM     11  C   UNL     1       6.070  -9.843  -3.538  0.00  0.00    +0.133 C 
BRANCH  11  12
ATOM     12  N   UNL     1       6.221 -10.296  -4.923  0.00  0.00    -0.217 N 
ATOM     13  C   UNL     1       7.421 -10.174  -5.772  0.00  0.00    +0.251 C 
ATOM     14  N   UNL     1       6.992 -10.793  -7.040  0.00  0.00    -0.231 N 
ATOM     15  N   UNL     1       5.667 -11.198  -6.839  0.00  0.00    -0.064 NA
ATOM     16  N   UNL     1       5.258 -10.937  -5.711  0.00  0.00    -0.061 NA
ATOM     17  H   UNL     1       7.519 -10.899  -7.847  0.00  0.00    +0.172 HD
ENDBRANCH  11  12
ENDBRANCH   8  11
ENDBRANCH   2   5
BRANCH   1  18
ATOM     18  C   UNL     1       4.508  -2.215  -1.491  0.00  0.00    +0.108 C 
BRANCH  18  19
ATOM     19  C   UNL     1       4.231  -1.785  -0.049  0.00  0.00    +0.052 C 
BRANCH  19  25
ATOM     20  C   UNL     1      -0.017   1.399   0.010  0.00  0.00    +0.022 A 
ATOM     21  C   UNL     1       1.109   2.143   0.003  0.00  0.00    +0.027 A 
ATOM     22  C   UNL     1       2.385   1.516  -0.013  0.00  0.00    +0.043 A 
ATOM     23  N   UNL     1       3.600   2.009  -0.022  0.00  0.00    -0.380 N 
ATOM     24  C   UNL     1       4.557   0.897  -0.038  0.00  0.00    +0.144 C 
ATOM     25  C   UNL     1       3.724  -0.366  -0.036  0.00  0.00    -0.040 C 
ATOM     26  C   UNL     1       2.433   0.036  -0.021  0.00  0.00    +0.000 A 
ATOM     27  C   UNL     1       1.163  -0.699  -0.013  0.00  0.00    +0.030 A 
ATOM     28  C   UNL     1       0.002  -0.004   0.002  0.00  0.00    +0.042 A 
ATOM     29 CL   UNL     1      -1.502  -0.870   0.012  0.00  0.00    -0.084 Cl
ATOM     30  H   UNL     1       3.828   2.952  -0.020  0.00  0.00    +0.160 HD
ENDBRANCH  19  25
ENDBRANCH  18  19
ENDBRANCH   1  18
TORSDOF 6
