REMARK  Name = ZINC65520439
REMARK  7 active torsions:
REMARK  status: ('A' for Active; 'I' for Inactive)
REMARK    1  A    between atoms: C_1  and  C_2
REMARK    2  A    between atoms: C_2  and  C_3
REMARK    3  A    between atoms: C_2  and  N_4
REMARK    4  A    between atoms: C_7  and  C_9
REMARK    5  A    between atoms: C_9  and  N_10
REMARK    6  A    between atoms: N_13  and  N_14
REMARK    7  A    between atoms: C_15  and  C_17
REMARK                            x       y       z     vdW  Elec       q    Type
REMARK                         _______ _______ _______ _____ _____    ______ ____
ROOT
ATOM      1  N   UNL     1      -4.674  -3.701  -0.822  0.00  0.00    -0.298 N 
ATOM      2  C   UNL     1      -5.669  -4.430  -0.278  0.00  0.00    +0.316 C 
ATOM      3  O   UNL     1      -5.643  -4.705   0.906  0.00  0.00    -0.251 OA
ATOM      4  N   UNL     1      -6.691  -4.854  -1.046  0.00  0.00    -0.218 N 
ATOM      5  H   UNL     1      -4.695  -3.482  -1.767  0.00  0.00    +0.150 HD
ATOM      6  H   UNL     1      -7.407  -5.379  -0.655  0.00  0.00    +0.174 HD
ENDROOT
BRANCH   4   7
ATOM      7  N   UNL     1      -6.721  -4.538  -2.411  0.00  0.00    -0.229 N 
ATOM      8  C   UNL     1      -7.744  -4.962  -3.179  0.00  0.00    +0.267 C 
ATOM      9  O   UNL     1      -8.642  -5.620  -2.688  0.00  0.00    -0.268 OA
ATOM     10  H   UNL     1      -6.005  -4.013  -2.802  0.00  0.00    +0.173 HD
BRANCH   8  11
ATOM     11  C   UNL     1      -7.774  -4.631  -4.607  0.00  0.00    +0.076 A 
ATOM     12  C   UNL     1      -8.717  -4.956  -5.557  0.00  0.00    +0.024 A 
ATOM     13  C   UNL     1      -8.476  -4.526  -6.865  0.00  0.00    -0.036 A 
ATOM     14  C   UNL     1      -7.323  -3.867  -7.087  0.00  0.00    -0.006 A 
ATOM     15  S   UNL     1      -6.607  -3.695  -5.571  0.00  0.00    -0.088 S 
ATOM     16  C   UNL     1      -6.645  -3.397  -8.350  0.00  0.00    +0.043 C 
ATOM     17  C   UNL     1      -7.433  -3.770  -9.606  0.00  0.00    +0.005 C 
ATOM     18  C   UNL     1      -8.586  -2.805  -9.830  0.00  0.00    +0.000 C 
ATOM     19  C   UNL     1      -9.256  -2.378  -8.540  0.00  0.00    +0.000 C 
ATOM     20  C   UNL     1     -10.279  -3.463  -8.190  0.00  0.00    +0.005 C 
ATOM     21  C   UNL     1      -9.539  -4.774  -7.925  0.00  0.00    +0.036 C 
ENDBRANCH   8  11
ENDBRANCH   4   7
BRANCH   1  22
ATOM     22  C   UNL     1      -3.563  -3.240   0.013  0.00  0.00    +0.107 C 
BRANCH  22  26
ATOM     23  N   UNL     1      -1.376  -0.512   0.012  0.00  0.00    +0.381 N 
ATOM     24  C   UNL     1      -2.083  -0.102  -1.228  0.00  0.00    -0.078 C 
ATOM     25  C   UNL     1      -3.236  -1.131  -1.335  0.00  0.00    -0.015 C 
ATOM     26  C   UNL     1      -2.579  -2.440  -0.843  0.00  0.00    -0.012 C 
ATOM     27  C   UNL     1      -1.374  -1.992   0.004  0.00  0.00    -0.074 C 
ATOM     28  H   UNL     1      -1.868  -0.170   0.824  0.00  0.00    -0.081 HD
BRANCH  23  30
ATOM     29  C   UNL     1      -0.019   1.526   0.010  0.00  0.00    -0.014 C 
ATOM     30  C   UNL     1       0.002  -0.004   0.002  0.00  0.00    -0.075 C 
ATOM     31  C   UNL     1       0.742  -0.511   1.242  0.00  0.00    -0.014 C 
ENDBRANCH  23  30
ENDBRANCH  22  26
ENDBRANCH   1  22
TORSDOF 5
