REMARK  Name = ZINC08432410
REMARK  12 active torsions:
REMARK  status: ('A' for Active; 'I' for Inactive)
REMARK    1  A    between atoms: C_1  and  C_2
REMARK    2  A    between atoms: C_2  and  C_23
REMARK    3  A    between atoms: C_4  and  N_11
REMARK    4  A    between atoms: C_7  and  C_9
REMARK    5  A    between atoms: C_7  and  C_10
REMARK    6  A    between atoms: C_12  and  C_14
REMARK    7  A    between atoms: C_14  and  O_15
REMARK    8  A    between atoms: O_15  and  C_16
REMARK    9  A    between atoms: C_23  and  N_24
REMARK   10  A    between atoms: C_25  and  C_27
REMARK   11  A    between atoms: C_27  and  O_28
REMARK   12  A    between atoms: O_28  and  C_29
REMARK                            x       y       z     vdW  Elec       q    Type
REMARK                         _______ _______ _______ _____ _____    ______ ____
ROOT
ATOM      1  C   UNL     1      -0.019   1.527   0.010  0.00  0.00    +0.013 C 
ATOM      2  C   UNL     1       0.002  -0.004   0.002  0.00  0.00    -0.014 C 
ATOM      3  C   UNL     1      -1.418  -0.544  -0.123  0.00  0.00    +0.030 C 
ATOM      4  C   UNL     1      -2.191  -0.343   1.179  0.00  0.00    +0.074 C 
ATOM      5  C   UNL     1      -1.490  -1.119   2.293  0.00  0.00    +0.028 C 
ATOM      6  C   UNL     1      -0.073  -0.599   2.505  0.00  0.00    -0.033 C 
ATOM      7  C   UNL     1       0.729  -0.548   1.218  0.00  0.00    +0.014 C 
ATOM      8  C   UNL     1      -0.114   0.772   3.185  0.00  0.00    +0.011 C 
ATOM      9  C   UNL     1       0.641  -1.570   3.472  0.00  0.00    +0.011 C 
ENDROOT
BRANCH   4  10
ATOM     10  N   UNL     1      -3.554  -0.865   1.014  0.00  0.00    -0.310 N 
ATOM     11  C   UNL     1      -4.556  -0.385   1.776  0.00  0.00    +0.251 C 
ATOM     12  O   UNL     1      -4.333   0.478   2.599  0.00  0.00    -0.272 OA
ATOM     13  H   UNL     1      -3.733  -1.556   0.357  0.00  0.00    +0.149 HD
BRANCH  11  14
ATOM     14  C   UNL     1      -5.955  -0.920   1.607  0.00  0.00    +0.324 C 
BRANCH  14  15
ATOM     15  O   UNL     1      -6.832  -0.259   2.521  0.00  0.00    -0.483 OA
BRANCH  15  16
ATOM     16  C   UNL     1      -8.140  -0.627   2.498  0.00  0.00    +0.121 A 
ATOM     17  C   UNL     1      -8.569  -1.610   1.617  0.00  0.00    +0.047 A 
ATOM     18  C   UNL     1      -9.899  -1.983   1.595  0.00  0.00    +0.023 A 
ATOM     19  C   UNL     1     -10.803  -1.378   2.449  0.00  0.00    +0.041 A 
ATOM     20  C   UNL     1     -10.377  -0.397   3.328  0.00  0.00    +0.023 A 
ATOM     21  C   UNL     1      -9.047  -0.026   3.358  0.00  0.00    +0.047 A 
ATOM     22 CL   UNL     1     -12.473  -1.849   2.419  0.00  0.00    -0.084 Cl
ENDBRANCH  15  16
ENDBRANCH  14  15
ENDBRANCH  11  14
ENDBRANCH   4  10
BRANCH   2  23
ATOM     23  C   UNL     1       0.782  -0.446  -1.256  0.00  0.00    +0.111 C 
BRANCH  23  24
ATOM     24  N   UNL     1       0.110   0.066  -2.453  0.00  0.00    -0.312 N 
ATOM     25  C   UNL     1       0.615  -0.197  -3.674  0.00  0.00    +0.251 C 
ATOM     26  O   UNL     1       1.627  -0.857  -3.783  0.00  0.00    -0.272 OA
ATOM     27  H   UNL     1      -0.699   0.594  -2.366  0.00  0.00    +0.149 HD
BRANCH  25  28
ATOM     28  C   UNL     1      -0.077   0.330  -4.905  0.00  0.00    +0.324 C 
BRANCH  28  29
ATOM     29  O   UNL     1       0.645  -0.079  -6.069  0.00  0.00    -0.483 OA
BRANCH  29  30
ATOM     30  C   UNL     1       0.151   0.316  -7.272  0.00  0.00    +0.121 A 
ATOM     31  C   UNL     1      -1.002   1.085  -7.330  0.00  0.00    +0.047 A 
ATOM     32  C   UNL     1      -1.503   1.485  -8.554  0.00  0.00    +0.023 A 
ATOM     33  C   UNL     1      -0.856   1.119  -9.721  0.00  0.00    +0.041 A 
ATOM     34  C   UNL     1       0.294   0.351  -9.664  0.00  0.00    +0.023 A 
ATOM     35  C   UNL     1       0.802  -0.046  -8.442  0.00  0.00    +0.047 A 
ATOM     36 CL   UNL     1      -1.488   1.622 -11.257  0.00  0.00    -0.084 Cl
ENDBRANCH  29  30
ENDBRANCH  28  29
ENDBRANCH  25  28
ENDBRANCH  23  24
ENDBRANCH   2  23
TORSDOF 9
