REMARK  Name = ZINC10692822
REMARK  8 active torsions:
REMARK  status: ('A' for Active; 'I' for Inactive)
REMARK    1  A    between atoms: C_1  and  C_2
REMARK    2  A    between atoms: N_11  and  C_15
REMARK    3  A    between atoms: C_15  and  C_16
REMARK    4  A    between atoms: C_16  and  O_18
REMARK    5  A    between atoms: O_18  and  C_19
REMARK    6  A    between atoms: C_19  and  C_20
REMARK    7  A    between atoms: N_25  and  C_26
REMARK    8  A    between atoms: C_33  and  C_35
REMARK                            x       y       z     vdW  Elec       q    Type
REMARK                         _______ _______ _______ _____ _____    ______ ____
ROOT
ATOM      1  O   UNL     1      -5.809  -1.654   0.048  0.00  0.00    -0.457 OA
ENDROOT
BRANCH   1   2
ATOM      2  C   UNL     1      -7.115  -1.347   0.061  0.00  0.00    +0.326 C 
ATOM      3  O   UNL     1      -7.464  -0.191   0.071  0.00  0.00    -0.249 OA
BRANCH   2   4
ATOM      4  C   UNL     1      -8.147  -2.446   0.065  0.00  0.00    +0.238 C 
BRANCH   4  14
ATOM      5  C   UNL     1     -12.448  -3.280   0.744  0.00  0.00    +0.010 C 
ATOM      6  C   UNL     1     -12.650  -1.839   1.217  0.00  0.00    +0.018 C 
ATOM      7  C   UNL     1     -12.710  -1.809   2.747  0.00  0.00    +0.006 C 
ATOM      8  C   UNL     1     -12.890  -0.366   3.221  0.00  0.00    +0.000 C 
ATOM      9  C   UNL     1     -11.705   0.479   2.750  0.00  0.00    +0.003 C 
ATOM     10  C   UNL     1     -11.640   0.458   1.220  0.00  0.00    +0.035 C 
ATOM     11  C   UNL     1     -11.487  -0.979   0.735  0.00  0.00    +0.115 C 
ATOM     12  C   UNL     1     -10.174  -1.562   1.204  0.00  0.00    +0.247 C 
ATOM     13  O   UNL     1      -9.812  -1.728   2.349  0.00  0.00    -0.273 OA
ATOM     14  N   UNL     1      -9.488  -1.856   0.080  0.00  0.00    -0.213 N 
ATOM     15  C   UNL     1     -10.187  -1.547  -1.019  0.00  0.00    +0.310 C 
ATOM     16  O   UNL     1      -9.780  -1.724  -2.150  0.00  0.00    -0.252 OA
ATOM     17  N   UNL     1     -11.392  -1.019  -0.730  0.00  0.00    -0.285 N 
ATOM     18  H   UNL     1     -12.063  -0.723  -1.364  0.00  0.00    +0.151 HD
ENDBRANCH   4  14
ENDBRANCH   2   4
ENDBRANCH   1   2
BRANCH   1  19
ATOM     19  C   UNL     1      -4.871  -0.545   0.045  0.00  0.00    +0.288 C 
BRANCH  19  20
ATOM     20  C   UNL     1      -3.462  -1.079   0.029  0.00  0.00    +0.088 A 
ATOM     21  C   UNL     1      -3.226  -2.414   0.020  0.00  0.00    +0.075 A 
ATOM     22  S   UNL     1      -1.439  -2.435  -0.005  0.00  0.00    -0.060 S 
ATOM     23  C   UNL     1      -1.193  -0.716   0.010  0.00  0.00    +0.172 A 
ATOM     24  N   UNL     1      -2.430  -0.259   0.024  0.00  0.00    -0.226 NA
ATOM     25  N   UNL     1       0.002  -0.004   0.002  0.00  0.00    -0.216 N 
ATOM     26  C   UNL     1      -0.016   1.344   0.009  0.00  0.00    +0.223 C 
ATOM     27  O   UNL     1      -1.075   1.936   0.018  0.00  0.00    -0.275 OA
ATOM     28  C   UNL     1       1.278   2.115   0.001  0.00  0.00    +0.110 C 
BRANCH  25  29
ATOM     29  C   UNL     1       1.225  -0.688  -0.013  0.00  0.00    +0.078 A 
ATOM     30  C   UNL     1       1.844  -1.034   1.180  0.00  0.00    +0.027 A 
ATOM     31  C   UNL     1       3.049  -1.709   1.162  0.00  0.00    +0.002 A 
ATOM     32  C   UNL     1       3.641  -2.041  -0.043  0.00  0.00    +0.003 A 
ATOM     33  C   UNL     1       3.028  -1.698  -1.235  0.00  0.00    +0.040 A 
ATOM     34  C   UNL     1       1.819  -1.027  -1.224  0.00  0.00    +0.145 A 
ATOM     35  F   UNL     1       1.218  -0.697  -2.388  0.00  0.00    -0.204 F 
ENDBRANCH  25  29
ENDBRANCH  19  20
ENDBRANCH   1  19
TORSDOF 6
