REMARK  Name = ZINC38631213
REMARK  12 active torsions:
REMARK  status: ('A' for Active; 'I' for Inactive)
REMARK    1  A    between atoms: C_1  and  C_2
REMARK    2  A    between atoms: C_3  and  C_32
REMARK    3  A    between atoms: C_4  and  C_31
REMARK    4  A    between atoms: C_5  and  S_10
REMARK    5  A    between atoms: C_6  and  C_9
REMARK    6  A    between atoms: C_7  and  C_8
REMARK    7  A    between atoms: S_10  and  N_13
REMARK    8  A    between atoms: N_13  and  C_14
REMARK    9  A    between atoms: C_14  and  C_15
REMARK   10  A    between atoms: C_15  and  C_17
REMARK   11  A    between atoms: C_15  and  N_24
REMARK   12  A    between atoms: N_27  and  C_30
REMARK                            x       y       z     vdW  Elec       q    Type
REMARK                         _______ _______ _______ _____ _____    ______ ____
ROOT
ATOM      1  C   UNL     1       1.462  -5.777   0.757  0.00  0.00    +0.129 C 
ENDROOT
BRANCH   1   2
ATOM      2  N   UNL     1       0.461  -6.207  -0.222  0.00  0.00    -0.188 NA
ATOM      3  H   UNL     1       0.432  -7.132  -0.512  0.00  0.00    +0.148 HD
BRANCH   2   4
ATOM      4  S   UNL     1      -0.621  -5.113  -0.835  0.00  0.00    +0.059 S 
ATOM      5  O   UNL     1      -1.169  -4.418   0.277  0.00  0.00    -0.153 OA
ATOM      6  O   UNL     1      -1.429  -5.819  -1.766  0.00  0.00    -0.153 OA
BRANCH   4  11
ATOM      7  C   UNL     1       2.538  -1.071  -4.011  0.00  0.00    +0.044 C 
ATOM      8  C   UNL     1       1.749  -2.081  -3.218  0.00  0.00    -0.044 A 
ATOM      9  C   UNL     1       1.474  -1.849  -1.883  0.00  0.00    -0.043 A 
ATOM     10  C   UNL     1       0.750  -2.775  -1.155  0.00  0.00    -0.021 A 
ATOM     11  C   UNL     1       0.301  -3.932  -1.763  0.00  0.00    +0.112 A 
ATOM     12  C   UNL     1       0.575  -4.164  -3.098  0.00  0.00    -0.021 A 
ATOM     13  C   UNL     1       1.296  -3.236  -3.826  0.00  0.00    -0.043 A 
ATOM     14  C   UNL     1       1.590  -3.486  -5.283  0.00  0.00    +0.044 C 
ATOM     15  C   UNL     1       0.086  -5.426  -3.759  0.00  0.00    +0.046 C 
ATOM     16  C   UNL     1       0.451  -2.522   0.300  0.00  0.00    +0.046 C 
ATOM     17  C   UNL     1       1.963  -0.586  -1.221  0.00  0.00    +0.044 C 
ENDBRANCH   4  11
ENDBRANCH   2   4
ENDBRANCH   1   2
BRANCH   1  18
ATOM     18  C   UNL     1       2.075  -7.006   1.433  0.00  0.00    +0.102 C 
BRANCH  18  19
ATOM     19  N   UNL     1       1.006  -7.831   2.011  0.00  0.00    -0.298 NA
ATOM     20  C   UNL     1       0.367  -7.148   3.145  0.00  0.00    +0.066 C 
ATOM     21  C   UNL     1      -0.777  -8.012   3.679  0.00  0.00    -0.064 C 
ATOM     22  N   UNL     1      -0.248  -9.315   4.105  0.00  0.00    +0.379 N 
ATOM     23  C   UNL     1       0.364  -9.996   2.957  0.00  0.00    -0.064 C 
ATOM     24  C   UNL     1       1.518  -9.148   2.416  0.00  0.00    +0.066 C 
ATOM     25  C   UNL     1      -1.344 -10.138   4.635  0.00  0.00    -0.096 C 
ATOM     26  H   UNL     1       0.446  -9.177   4.824  0.00  0.00    -0.082 HD
ENDBRANCH  18  19
BRANCH  18  27
ATOM     27  C   UNL     1       3.014  -6.563   2.525  0.00  0.00    -0.029 A 
ATOM     28  C   UNL     1       2.620  -5.584   3.419  0.00  0.00    +0.008 A 
ATOM     29  C   UNL     1       3.480  -5.177   4.421  0.00  0.00    +0.038 A 
ATOM     30  C   UNL     1       4.736  -5.750   4.530  0.00  0.00    +0.123 A 
ATOM     31  C   UNL     1       5.129  -6.730   3.635  0.00  0.00    +0.038 A 
ATOM     32  C   UNL     1       4.265  -7.139   2.636  0.00  0.00    +0.008 A 
ATOM     33  F   UNL     1       5.578  -5.353   5.510  0.00  0.00    -0.205 F 
ENDBRANCH  18  27
ENDBRANCH   1  18
TORSDOF 6
