REMARK  Name = ZINC60217887
REMARK  8 active torsions:
REMARK  status: ('A' for Active; 'I' for Inactive)
REMARK    1  A    between atoms: C_1  and  N_2
REMARK    2  A    between atoms: N_2  and  C_3
REMARK    3  A    between atoms: C_3  and  C_4
REMARK    4  A    between atoms: C_4  and  C_5
REMARK    5  A    between atoms: C_5  and  C_6
REMARK    6  A    between atoms: C_7  and  C_13
REMARK    7  A    between atoms: C_8  and  N_12
REMARK    8  A    between atoms: C_22  and  C_24
REMARK                            x       y       z     vdW  Elec       q    Type
REMARK                         _______ _______ _______ _____ _____    ______ ____
ROOT
ATOM      1  C   UNL     1      -1.266   0.461   0.570  0.00  0.00    +0.130 C 
ATOM      2  N   UNL     1       0.002  -0.004   0.002  0.00  0.00    -0.318 N 
ATOM      3  C   UNL     1       0.004  -0.778  -1.145  0.00  0.00    +0.133 A 
ATOM      4  C   UNL     1       0.043  -0.165  -2.428  0.00  0.00    +0.051 A 
ATOM      5  C   UNL     1       0.085   1.260  -2.763  0.00  0.00    -0.025 A 
ATOM      6  C   UNL     1       0.118   1.579  -4.072  0.00  0.00    -0.004 A 
ATOM      7  S   UNL     1       0.097   0.027  -4.928  0.00  0.00    -0.073 S 
ATOM      8  C   UNL     1       0.042  -1.053  -3.522  0.00  0.00    +0.114 A 
ATOM      9  N   UNL     1       0.004  -2.360  -3.350  0.00  0.00    -0.224 NA
ATOM     10  C   UNL     1      -0.033  -2.870  -2.135  0.00  0.00    +0.135 A 
ATOM     11  N   UNL     1      -0.027  -2.098  -1.062  0.00  0.00    -0.216 NA
ATOM     12  C   UNL     1       0.162   2.953  -4.670  0.00  0.00    +0.043 C 
ATOM     13  C   UNL     1      -0.212   3.968  -3.581  0.00  0.00    +0.005 C 
ATOM     14  C   UNL     1       0.594   3.651  -2.317  0.00  0.00    +0.005 C 
ATOM     15  C   UNL     1       0.090   2.349  -1.694  0.00  0.00    +0.037 C 
ENDROOT
BRANCH  10  16
ATOM     16  C   UNL     1      -0.075  -4.367  -1.965  0.00  0.00    +0.057 C 
ATOM     17  C   UNL     1       0.130  -5.226  -3.214  0.00  0.00    +0.012 C 
ATOM     18  C   UNL     1      -1.259  -5.114  -2.582  0.00  0.00    +0.012 C 
ENDBRANCH  10  16
BRANCH   2  19
ATOM     19  C   UNL     1       1.268   0.350   0.648  0.00  0.00    +0.106 C 
BRANCH  19  20
ATOM     20  C   UNL     1       1.632  -0.720   1.679  0.00  0.00    +0.025 C 
BRANCH  20  21
ATOM     21  C   UNL     1       2.955  -0.350   2.353  0.00  0.00    +0.060 C 
BRANCH  21  22
ATOM     22  C   UNL     1       3.313  -1.404   3.369  0.00  0.00    +0.082 A 
ATOM     23  C   UNL     1       2.933  -1.407   4.731  0.00  0.00    +0.113 A 
ATOM     24  C   UNL     1       3.474  -2.556   5.301  0.00  0.00    +0.129 A 
ATOM     25  N   UNL     1       4.144  -3.206   4.327  0.00  0.00    -0.263 N 
ATOM     26  H   UNL     1       4.625  -4.042   4.431  0.00  0.00    +0.190 HD
ATOM     27  N   UNL     1       4.023  -2.474   3.142  0.00  0.00    -0.176 NA
BRANCH  24  28
ATOM     28  N   UNL     1       3.348  -2.955   6.619  0.00  0.00    -0.342 N 
ATOM     29  H   UNL     1       2.842  -2.413   7.244  0.00  0.00    +0.144 HD
ATOM     30  H   UNL     1       3.766  -3.778   6.918  0.00  0.00    +0.144 HD
ENDBRANCH  24  28
BRANCH  23  31
ATOM     31  C   UNL     1       2.142  -0.416   5.396  0.00  0.00    +0.104 C 
ATOM     32  N   UNL     1       1.515   0.370   5.925  0.00  0.00    -0.191 NA
ENDBRANCH  23  31
ENDBRANCH  21  22
ENDBRANCH  20  21
ENDBRANCH  19  20
ENDBRANCH   2  19
TORSDOF 7
