REMARK  Name = ZINC01508495
REMARK  3 active torsions:
REMARK  status: ('A' for Active; 'I' for Inactive)
REMARK    1  A    between atoms: C_3  and  N_23
REMARK    2  A    between atoms: C_6  and  C_7
REMARK    3  A    between atoms: C_13  and  C_15
REMARK                            x       y       z     vdW  Elec       q    Type
REMARK                         _______ _______ _______ _____ _____    ______ ____
ROOT
ATOM      1  C   UNL     1       2.678  -2.462  -0.037  0.00  0.00    +0.080 A 
ATOM      2  C   UNL     1       3.735  -1.594  -0.042  0.00  0.00    +0.076 A 
ATOM      3  S   UNL     1       2.876  -0.026  -0.033  0.00  0.00    -0.060 S 
ATOM      4  C   UNL     1       1.214  -0.682  -0.013  0.00  0.00    +0.165 A 
ATOM      5  N   UNL     1       1.444  -1.982  -0.022  0.00  0.00    -0.225 NA
ATOM      6  N   UNL     1       0.002  -0.004   0.002  0.00  0.00    -0.261 N 
ATOM      7  C   UNL     1      -0.016   1.344   0.009  0.00  0.00    +0.251 C 
ATOM      8  O   UNL     1       1.028   1.966   0.003  0.00  0.00    -0.270 OA
ATOM      9  H   UNL     1      -0.943  -0.567   0.008  0.00  0.00    +0.157 HD
ENDROOT
BRANCH   7  10
ATOM     10  C   UNL     1      -1.305   2.064   0.019  0.00  0.00    +0.055 A 
ATOM     11  C   UNL     1      -2.507   1.353   0.021  0.00  0.00    +0.016 A 
ATOM     12  C   UNL     1      -3.707   2.031   0.031  0.00  0.00    +0.021 A 
ATOM     13  C   UNL     1      -3.723   3.417   0.039  0.00  0.00    +0.042 A 
ATOM     14  C   UNL     1      -2.536   4.129   0.037  0.00  0.00    +0.040 A 
ATOM     15  C   UNL     1      -1.327   3.462   0.033  0.00  0.00    +0.054 A 
ATOM     16 CL   UNL     1       0.161   4.356   0.039  0.00  0.00    -0.083 Cl
ATOM     17 CL   UNL     1      -5.239   4.263   0.050  0.00  0.00    -0.083 Cl
ENDBRANCH   7  10
BRANCH   1  23
ATOM     18  C   UNL     1       4.212  -4.427  -0.069  0.00  0.00    +0.012 A 
ATOM     19  C   UNL     1       4.424  -5.791  -0.074  0.00  0.00    +0.033 A 
ATOM     20  C   UNL     1       3.348  -6.660  -0.068  0.00  0.00    +0.126 A 
ATOM     21  C   UNL     1       2.055  -6.169  -0.052  0.00  0.00    +0.033 A 
ATOM     22  C   UNL     1       1.831  -4.807  -0.042  0.00  0.00    +0.012 A 
ATOM     23  C   UNL     1       2.912  -3.926  -0.047  0.00  0.00    +0.001 A 
BRANCH  20  24
ATOM     24  N   UNL     1       3.581  -8.122  -0.079  0.00  0.00    +0.056 N 
ATOM     25  O   UNL     1       2.635  -8.890  -0.074  0.00  0.00    -0.126 OA
ATOM     26  O   UNL     1       4.719  -8.557  -0.093  0.00  0.00    -0.126 OA
ENDBRANCH  20  24
ENDBRANCH   1  23
TORSDOF 3
