REMARK  Name = ZINC08584584
REMARK  8 active torsions:
REMARK  status: ('A' for Active; 'I' for Inactive)
REMARK    1  A    between atoms: C_1  and  C_2
REMARK    2  A    between atoms: C_5  and  C_8
REMARK    3  A    between atoms: C_8  and  N_9
REMARK    4  A    between atoms: C_14  and  C_16
REMARK    5  A    between atoms: N_19  and  S_22
REMARK    6  A    between atoms: S_22  and  C_25
REMARK    7  A    between atoms: C_27  and  C_32
REMARK    8  A    between atoms: C_30  and  C_31
REMARK                            x       y       z     vdW  Elec       q    Type
REMARK                         _______ _______ _______ _____ _____    ______ ____
ROOT
ATOM      1  N   UNL     1       1.236  -4.748  -0.002  0.00  0.00    -0.222 N 
ATOM      2  C   UNL     1       2.039  -4.818  -1.100  0.00  0.00    +0.186 A 
ATOM      3  C   UNL     1       3.335  -5.040  -0.619  0.00  0.00    +0.195 A 
ATOM      4  C   UNL     1       4.417  -5.159  -1.601  0.00  0.00    +0.281 A 
ATOM      5  N   UNL     1       4.091  -5.045  -2.909  0.00  0.00    -0.309 N 
ATOM      6  C   UNL     1       2.804  -4.830  -3.279  0.00  0.00    +0.115 A 
ATOM      7  N   UNL     1       1.831  -4.722  -2.421  0.00  0.00    -0.213 NA
ATOM      8  O   UNL     1       5.568  -5.352  -1.251  0.00  0.00    -0.265 OA
ATOM      9  N   UNL     1       3.279  -5.097   0.719  0.00  0.00    -0.122 NA
ATOM     10  N   UNL     1       2.066  -4.923   1.116  0.00  0.00    -0.063 NA
ATOM     11  H   UNL     1       4.782  -5.118  -3.586  0.00  0.00    +0.170 HD
ENDROOT
BRANCH   6  12
ATOM     12  C   UNL     1       2.487  -4.710  -4.747  0.00  0.00    +0.058 C 
ATOM     13  C   UNL     1       2.285  -6.105  -5.341  0.00  0.00    +0.028 C 
ATOM     14  C   UNL     1       1.997  -5.981  -6.841  0.00  0.00    +0.110 C 
ATOM     15  N   UNL     1       0.857  -5.074  -7.029  0.00  0.00    -0.177 NA
ATOM     16  C   UNL     1       0.909  -3.737  -6.422  0.00  0.00    +0.110 C 
ATOM     17  C   UNL     1       1.209  -3.887  -4.927  0.00  0.00    +0.028 C 
BRANCH  15  18
ATOM     18  S   UNL     1      -0.462  -5.549  -7.911  0.00  0.00    +0.061 S 
ATOM     19  O   UNL     1      -1.027  -4.368  -8.465  0.00  0.00    -0.153 OA
ATOM     20  O   UNL     1      -0.040  -6.642  -8.716  0.00  0.00    -0.153 OA
BRANCH  18  21
ATOM     21  C   UNL     1      -1.646  -6.188  -6.774  0.00  0.00    +0.109 A 
ATOM     22  C   UNL     1      -2.834  -5.513  -6.560  0.00  0.00    +0.032 A 
ATOM     23  C   UNL     1      -3.763  -6.014  -5.668  0.00  0.00    -0.049 A 
ATOM     24  C   UNL     1      -3.505  -7.191  -4.990  0.00  0.00    +0.004 A 
ATOM     25  C   UNL     1      -2.318  -7.867  -5.204  0.00  0.00    +0.005 A 
ATOM     26  C   UNL     1      -1.391  -7.367  -6.100  0.00  0.00    -0.024 A 
ATOM     27  C   UNL     1      -0.099  -8.106  -6.338  0.00  0.00    +0.046 C 
ATOM     28  C   UNL     1      -5.057  -5.278  -5.434  0.00  0.00    +0.044 C 
ENDBRANCH  18  21
ENDBRANCH  15  18
ENDBRANCH   6  12
BRANCH   1  29
ATOM     29  C   UNL     1      -0.212  -4.526   0.011  0.00  0.00    +0.182 C 
BRANCH  29  34
ATOM     30  C   UNL     1      -1.294   1.145   0.261  0.00  0.00    +0.044 C 
ATOM     31  C   UNL     1      -1.012  -0.334   0.196  0.00  0.00    -0.050 A 
ATOM     32  C   UNL     1      -0.883  -0.960  -1.030  0.00  0.00    +0.004 A 
ATOM     33  C   UNL     1      -0.625  -2.316  -1.090  0.00  0.00    +0.006 A 
ATOM     34  C   UNL     1      -0.493  -3.047   0.076  0.00  0.00    -0.026 A 
ATOM     35  C   UNL     1      -0.621  -2.421   1.302  0.00  0.00    +0.006 A 
ATOM     36  C   UNL     1      -0.875  -1.063   1.362  0.00  0.00    +0.004 A 
ENDBRANCH  29  34
ENDBRANCH   1  29
TORSDOF 5
