REMARK  Name = ZINC09942368
REMARK  7 active torsions:
REMARK  status: ('A' for Active; 'I' for Inactive)
REMARK    1  A    between atoms: C_1  and  C_2
REMARK    2  A    between atoms: C_2  and  C_3
REMARK    3  A    between atoms: C_3  and  C_4
REMARK    4  A    between atoms: C_4  and  C_5
REMARK    5  A    between atoms: C_5  and  S_6
REMARK    6  A    between atoms: S_6  and  C_7
REMARK    7  A    between atoms: C_12  and  C_22
REMARK                            x       y       z     vdW  Elec       q    Type
REMARK                         _______ _______ _______ _____ _____    ______ ____
ROOT
ATOM      1  C   UNL     1       2.326  -4.741  -4.025  0.00  0.00    +0.210 A 
ATOM      2  N   UNL     1       2.821  -3.859  -4.905  0.00  0.00    -0.187 NA
ATOM      3  C   UNL     1       3.386  -4.498  -5.893  0.00  0.00    +0.219 A 
ATOM      4  N   UNL     1       3.258  -5.828  -5.662  0.00  0.00    -0.220 N 
ATOM      5  N   UNL     1       2.580  -5.960  -4.452  0.00  0.00    -0.141 NA
ATOM      6  C   UNL     1       3.766  -6.851  -6.568  0.00  0.00    +0.175 C 
ATOM      7  C   UNL     1       4.719  -6.231  -7.566  0.00  0.00    +0.041 C 
ATOM      8  C   UNL     1       4.799  -4.896  -7.748  0.00  0.00    +0.020 C 
ATOM      9  N   UNL     1       4.032  -4.018  -7.020  0.00  0.00    -0.287 N 
ATOM     10  C   UNL     1       5.743  -4.308  -8.770  0.00  0.00    +0.052 C 
ATOM     11  C   UNL     1       6.980  -5.199  -8.900  0.00  0.00    +0.014 C 
ATOM     12  C   UNL     1       6.522  -6.601  -9.315  0.00  0.00    +0.080 C 
ATOM     13  C   UNL     1       5.530  -7.110  -8.307  0.00  0.00    +0.163 C 
ATOM     14  O   UNL     1       5.427  -8.307  -8.127  0.00  0.00    -0.292 OA
ATOM     15  H   UNL     1       3.944  -3.090  -7.289  0.00  0.00    +0.155 HD
ENDROOT
BRANCH   6  16
ATOM     16  C   UNL     1       2.614  -7.483  -7.305  0.00  0.00    -0.018 A 
ATOM     17  C   UNL     1       1.798  -6.708  -8.107  0.00  0.00    +0.007 A 
ATOM     18  C   UNL     1       0.741  -7.288  -8.784  0.00  0.00    +0.015 A 
ATOM     19  C   UNL     1       0.501  -8.644  -8.659  0.00  0.00    +0.018 A 
ATOM     20  C   UNL     1       1.317  -9.420  -7.856  0.00  0.00    +0.015 A 
ATOM     21  C   UNL     1       2.377  -8.840  -7.183  0.00  0.00    +0.007 A 
ATOM     22 BR   UNL     1      -0.945  -9.438  -9.584  0.00  0.00    -0.050 Br
ENDBRANCH   6  16
BRANCH   1  23
ATOM     23  S   UNL     1       1.480  -4.335  -2.534  0.00  0.00    -0.084 S 
BRANCH  23  24
ATOM     24  C   UNL     1       1.455  -2.521  -2.524  0.00  0.00    +0.077 C 
BRANCH  24  25
ATOM     25  C   UNL     1       0.739  -2.027  -1.265  0.00  0.00    +0.011 C 
BRANCH  25  26
ATOM     26  C   UNL     1       0.718  -0.497  -1.257  0.00  0.00    +0.001 C 
BRANCH  26  28
ATOM     27  C   UNL     1      -0.019   1.526   0.010  0.00  0.00    +0.004 C 
ATOM     28  C   UNL     1       0.002  -0.004   0.002  0.00  0.00    -0.003 C 
ENDBRANCH  26  28
ENDBRANCH  25  26
ENDBRANCH  24  25
ENDBRANCH  23  24
ENDBRANCH   1  23
TORSDOF 6
