REMARK  Name = ZINC24799443
REMARK  9 active torsions:
REMARK  status: ('A' for Active; 'I' for Inactive)
REMARK    1  A    between atoms: C_1  and  C_2
REMARK    2  A    between atoms: C_2  and  C_4
REMARK    3  A    between atoms: C_2  and  N_22
REMARK    4  A    between atoms: N_9  and  C_12
REMARK    5  A    between atoms: C_17  and  N_18
REMARK    6  A    between atoms: C_23  and  C_25
REMARK    7  A    between atoms: C_26  and  C_27
REMARK    8  A    between atoms: C_30  and  O_33
REMARK    9  A    between atoms: O_33  and  C_34
REMARK                            x       y       z     vdW  Elec       q    Type
REMARK                         _______ _______ _______ _____ _____    ______ ____
ROOT
ATOM      1  C   UNL     1       4.683  -2.267  -0.124  0.00  0.00    +0.236 C 
ATOM      2  O   UNL     1       5.270  -2.647   0.867  0.00  0.00    -0.274 OA
ATOM      3  N   UNL     1       3.869  -1.194  -0.055  0.00  0.00    -0.297 N 
ATOM      4  C   UNL     1       3.590  -0.539   1.232  0.00  0.00    +0.126 C 
ATOM      5  C   UNL     1       2.072  -0.405   1.391  0.00  0.00    +0.124 C 
ATOM      6  N   UNL     1       1.518   0.278   0.214  0.00  0.00    -0.325 N 
ATOM      7  C   UNL     1       1.733  -0.509  -1.008  0.00  0.00    +0.124 C 
ATOM      8  C   UNL     1       3.237  -0.648  -1.265  0.00  0.00    +0.126 C 
ENDROOT
BRANCH   6   9
ATOM      9  C   UNL     1       0.163   0.565   0.393  0.00  0.00    +0.060 A 
ATOM     10  C   UNL     1      -0.744  -0.465   0.612  0.00  0.00    +0.027 A 
ATOM     11  C   UNL     1      -2.084  -0.179   0.783  0.00  0.00    +0.022 A 
ATOM     12  C   UNL     1      -2.522   1.134   0.748  0.00  0.00    +0.043 A 
ATOM     13  C   UNL     1      -1.622   2.161   0.530  0.00  0.00    +0.054 A 
ATOM     14  C   UNL     1      -0.281   1.880   0.353  0.00  0.00    +0.148 A 
ATOM     15 CL   UNL     1      -4.207   1.490   0.970  0.00  0.00    -0.083 Cl
BRANCH  14  16
ATOM     16  N   UNL     1       0.682   2.980   0.120  0.00  0.00    +0.058 N 
ATOM     17  O   UNL     1       0.292   4.133   0.085  0.00  0.00    -0.126 OA
ATOM     18  O   UNL     1       1.864   2.732  -0.035  0.00  0.00    -0.126 OA
ENDBRANCH  14  16
ENDBRANCH   6   9
BRANCH   1  20
ATOM     19  C   UNL     1       5.949  -2.298  -2.256  0.00  0.00    +0.038 C 
ATOM     20  C   UNL     1       4.863  -2.993  -1.432  0.00  0.00    +0.156 C 
BRANCH  20  21
ATOM     21  N   UNL     1       5.260  -4.379  -1.170  0.00  0.00    -0.301 N 
ATOM     22  C   UNL     1       5.001  -5.338  -2.081  0.00  0.00    +0.237 C 
ATOM     23  O   UNL     1       4.437  -5.052  -3.121  0.00  0.00    -0.271 OA
ATOM     24  H   UNL     1       5.770  -4.637  -0.230  0.00  0.00    +0.150 HD
BRANCH  22  25
ATOM     25  C   UNL     1       5.397  -6.721  -1.819  0.00  0.00    +0.068 C 
ATOM     26  C   UNL     1       5.138  -7.681  -2.732  0.00  0.00    +0.013 C 
BRANCH  26  27
ATOM     27  C   UNL     1       5.536  -9.072  -2.469  0.00  0.00    -0.025 A 
ATOM     28  C   UNL     1       6.190  -9.401  -1.276  0.00  0.00    +0.011 A 
ATOM     29  C   UNL     1       6.555 -10.706  -1.032  0.00  0.00    +0.046 A 
ATOM     30  C   UNL     1       6.287 -11.693  -1.973  0.00  0.00    +0.120 A 
ATOM     31  C   UNL     1       5.643 -11.370  -3.163  0.00  0.00    +0.046 A 
ATOM     32  C   UNL     1       5.268 -10.069  -3.413  0.00  0.00    +0.011 A 
BRANCH  30  33
ATOM     33  O   UNL     1       6.654 -12.977  -1.731  0.00  0.00    -0.495 OA
ATOM     34  C   UNL     1       7.312 -13.240  -0.489  0.00  0.00    +0.277 C 
ENDBRANCH  30  33
ENDBRANCH  26  27
ENDBRANCH  22  25
ENDBRANCH  20  21
ENDBRANCH   1  20
TORSDOF 7
