REMARK  Name = ZINC40815812
REMARK  5 active torsions:
REMARK  status: ('A' for Active; 'I' for Inactive)
REMARK    1  A    between atoms: C_1  and  C_2
REMARK    2  A    between atoms: C_6  and  C_7
REMARK    3  A    between atoms: N_23  and  N_24
REMARK    4  A    between atoms: C_25  and  C_27
REMARK    5  A    between atoms: C_27  and  C_28
REMARK                            x       y       z     vdW  Elec       q    Type
REMARK                         _______ _______ _______ _____ _____    ______ ____
ROOT
ATOM      1  C   UNL     1      -0.110   1.479  -0.004  0.00  0.00    +0.048 C 
ATOM      2  C   UNL     1       0.060  -0.019  -0.000  0.00  0.00    +0.009 A 
ATOM      3  C   UNL     1       0.192  -0.852  -1.117  0.00  0.00    +0.042 A 
ATOM      4  C   UNL     1       0.322  -2.142  -0.657  0.00  0.00    +0.115 A 
ATOM      5  O   UNL     1       0.276  -2.110   0.673  0.00  0.00    -0.454 OA
ATOM      6  C   UNL     1       0.121  -0.835   1.095  0.00  0.00    +0.193 A 
ATOM      7  C   UNL     1       0.482  -3.328  -1.574  0.00  0.00    +0.075 C 
ATOM      8  C   UNL     1      -0.028  -2.963  -2.970  0.00  0.00    +0.014 C 
ATOM      9  C   UNL     1       0.638  -1.677  -3.471  0.00  0.00    +0.058 C 
ATOM     10  C   UNL     1       0.208  -0.534  -2.562  0.00  0.00    +0.070 C 
ATOM     11  N   UNL     1      -0.121   0.634  -3.022  0.00  0.00    -0.184 NA
ENDROOT
BRANCH   6  12
ATOM     12  C   UNL     1       0.031  -0.400   2.493  0.00  0.00    +0.286 C 
ATOM     13  O   UNL     1       0.028   0.787   2.763  0.00  0.00    -0.266 OA
ATOM     14  N   UNL     1      -0.048  -1.315   3.480  0.00  0.00    -0.265 N 
ATOM     15  C   UNL     1      -0.026  -2.751   3.170  0.00  0.00    +0.114 C 
ATOM     16  C   UNL     1      -1.122  -3.427   4.003  0.00  0.00    +0.024 C 
ATOM     17  C   UNL     1      -0.788  -3.262   5.486  0.00  0.00    +0.038 C 
ATOM     18  C   UNL     1      -0.507  -1.818   5.806  0.00  0.00    -0.026 A 
ATOM     19  C   UNL     1      -0.147  -0.912   4.818  0.00  0.00    +0.040 A 
ATOM     20  C   UNL     1       0.114   0.412   5.148  0.00  0.00    +0.024 A 
ATOM     21  C   UNL     1       0.019   0.829   6.460  0.00  0.00    +0.002 A 
ATOM     22  C   UNL     1      -0.338  -0.072   7.446  0.00  0.00    +0.000 A 
ATOM     23  C   UNL     1      -0.608  -1.391   7.119  0.00  0.00    +0.005 A 
ENDBRANCH   6  12
BRANCH  11  24
ATOM     24  N   UNL     1      -0.087   0.879  -4.401  0.00  0.00    -0.206 N 
ATOM     25  C   UNL     1      -0.429   2.092  -4.878  0.00  0.00    +0.237 C 
ATOM     26  O   UNL     1      -0.765   2.972  -4.113  0.00  0.00    -0.274 OA
ATOM     27  H   UNL     1       0.182   0.176  -5.012  0.00  0.00    +0.177 HD
BRANCH  25  28
ATOM     28  C   UNL     1      -0.393   2.356  -6.361  0.00  0.00    +0.132 C 
BRANCH  28  29
ATOM     29  C   UNL     1      -0.816   3.777  -6.629  0.00  0.00    -0.039 A 
ATOM     30  C   UNL     1      -2.151   4.074  -6.837  0.00  0.00    +0.004 A 
ATOM     31  C   UNL     1      -2.539   5.377  -7.082  0.00  0.00    +0.000 A 
ATOM     32  C   UNL     1      -1.593   6.385  -7.120  0.00  0.00    +0.000 A 
ATOM     33  C   UNL     1      -0.259   6.089  -6.910  0.00  0.00    +0.000 A 
ATOM     34  C   UNL     1       0.129   4.786  -6.660  0.00  0.00    +0.004 A 
ENDBRANCH  28  29
ENDBRANCH  25  28
ENDBRANCH  11  24
TORSDOF 4
