REMARK  Name = ZINC48961190
REMARK  3 active torsions:
REMARK  status: ('A' for Active; 'I' for Inactive)
REMARK    1  A    between atoms: C_5  and  C_11
REMARK    2  A    between atoms: C_11  and  N_12
REMARK    3  A    between atoms: N_15  and  C_16
REMARK                            x       y       z     vdW  Elec       q    Type
REMARK                         _______ _______ _______ _____ _____    ______ ____
ROOT
ATOM      1  N   UNL     1       6.413   0.872  -1.433  0.00  0.00    -0.293 N 
ATOM      2  C   UNL     1       7.735   0.917  -1.692  0.00  0.00    +0.304 C 
ATOM      3  O   UNL     1       8.536   0.845  -0.780  0.00  0.00    -0.252 OA
ATOM      4  N   UNL     1       8.169   1.042  -2.962  0.00  0.00    -0.267 N 
ATOM      5  H   UNL     1       5.774   0.929  -2.160  0.00  0.00    +0.151 HD
ATOM      6  H   UNL     1       7.530   1.100  -3.689  0.00  0.00    +0.156 HD
ENDROOT
BRANCH   4   7
ATOM      7  C   UNL     1       9.551   1.089  -3.232  0.00  0.00    +0.072 A 
ATOM      8  C   UNL     1      10.121   1.218  -4.457  0.00  0.00    +0.128 A 
ATOM      9  N   UNL     1      11.469   1.222  -4.283  0.00  0.00    -0.283 N 
ATOM     10  H   UNL     1      12.135   1.302  -4.984  0.00  0.00    +0.188 HD
ATOM     11  N   UNL     1      11.726   1.092  -2.912  0.00  0.00    -0.180 NA
ATOM     12  C   UNL     1      10.581   1.018  -2.283  0.00  0.00    +0.157 A 
ENDBRANCH   4   7
BRANCH   1  13
ATOM     13  C   UNL     1       5.941   0.736  -0.053  0.00  0.00    +0.162 C 
BRANCH  13  18
ATOM     14  C   UNL     1      -0.017   1.401   0.010  0.00  0.00    +0.020 A 
ATOM     15  C   UNL     1       1.155   2.091   0.002  0.00  0.00    +0.048 A 
ATOM     16  C   UNL     1       2.373   1.382  -0.013  0.00  0.00    +0.138 A 
ATOM     17  N   UNL     1       3.638   1.781  -0.024  0.00  0.00    -0.231 NA
ATOM     18  C   UNL     1       4.435   0.710  -0.037  0.00  0.00    +0.077 A 
ATOM     19  C   UNL     1       3.665  -0.401  -0.036  0.00  0.00    +0.117 A 
ATOM     20  N   UNL     1       2.361   0.012  -0.020  0.00  0.00    -0.305 N 
ATOM     21  C   UNL     1       1.177  -0.669  -0.013  0.00  0.00    +0.108 A 
ATOM     22  C   UNL     1       0.002  -0.004   0.002  0.00  0.00    +0.034 A 
ATOM     23 BR   UNL     1      -1.625  -0.968   0.012  0.00  0.00    -0.049 Br
ENDBRANCH  13  18
ENDBRANCH   1  13
TORSDOF 3
