REMARK  Name = ZINC02782758
REMARK  10 active torsions:
REMARK  status: ('A' for Active; 'I' for Inactive)
REMARK    1  A    between atoms: C_1  and  C_2
REMARK    2  A    between atoms: C_2  and  C_3
REMARK    3  A    between atoms: C_3  and  C_4
REMARK    4  A    between atoms: C_10  and  C_32
REMARK    5  A    between atoms: N_11  and  N_14
REMARK    6  A    between atoms: C_15  and  C_17
REMARK    7  A    between atoms: C_21  and  C_23
REMARK    8  A    between atoms: C_23  and  N_24
REMARK    9  A    between atoms: C_25  and  C_31
REMARK   10  A    between atoms: C_27  and  C_29
REMARK                            x       y       z     vdW  Elec       q    Type
REMARK                         _______ _______ _______ _____ _____    ______ ____
ROOT
ATOM      1  N   UNL     1       4.009   1.057   7.073  0.00  0.00    -0.215 N 
ATOM      2  C   UNL     1       3.785   2.026   7.983  0.00  0.00    +0.262 C 
ATOM      3  O   UNL     1       2.688   2.543   8.063  0.00  0.00    -0.268 OA
ATOM      4  H   UNL     1       5.002   0.590   7.001  0.00  0.00    +0.176 HD
ENDROOT
BRANCH   1  12
ATOM      5  C   UNL     1       0.000   1.080   2.488  0.00  0.00    -0.007 A 
ATOM      6  C   UNL     1       0.999   1.673   3.161  0.00  0.00    +0.026 A 
ATOM      7  C   UNL     1       1.562   1.009   4.322  0.00  0.00    +0.074 A 
ATOM      8  C   UNL     1       0.983  -0.234   4.636  0.00  0.00    +0.116 A 
ATOM      9  S   UNL     1      -0.263  -0.436   3.389  0.00  0.00    -0.073 S 
ATOM     10  N   UNL     1       1.393  -0.959   5.672  0.00  0.00    -0.225 NA
ATOM     11  C   UNL     1       2.360  -0.541   6.445  0.00  0.00    +0.129 A 
ATOM     12  N   UNL     1       2.978   0.646   6.219  0.00  0.00    -0.209 N 
ATOM     13  C   UNL     1       2.619   1.437   5.190  0.00  0.00    +0.279 A 
ATOM     14  O   UNL     1       3.183   2.501   5.001  0.00  0.00    -0.265 OA
ATOM     15  C   UNL     1       2.796  -1.393   7.610  0.00  0.00    +0.088 C 
BRANCH   5  16
ATOM     16  C   UNL     1      -0.729   1.579   1.267  0.00  0.00    +0.042 C 
BRANCH  16  18
ATOM     17  C   UNL     1      -0.753   1.593  -1.232  0.00  0.00    +0.004 C 
ATOM     18  C   UNL     1      -0.013   1.086   0.008  0.00  0.00    +0.002 C 
ENDBRANCH  16  18
ENDBRANCH   5  16
ENDBRANCH   1  12
BRANCH   2  19
ATOM     19  C   UNL     1       4.874   2.459   8.885  0.00  0.00    +0.039 A 
ATOM     20  C   UNL     1       6.133   1.864   8.800  0.00  0.00    +0.013 A 
ATOM     21  C   UNL     1       7.146   2.277   9.640  0.00  0.00    +0.001 A 
ATOM     22  C   UNL     1       6.912   3.271  10.573  0.00  0.00    +0.005 A 
ATOM     23  C   UNL     1       5.665   3.862  10.667  0.00  0.00    -0.025 A 
ATOM     24  C   UNL     1       4.645   3.462   9.828  0.00  0.00    +0.018 A 
BRANCH  23  25
ATOM     25  C   UNL     1       5.420   4.944  11.686  0.00  0.00    +0.179 C 
BRANCH  25  26
ATOM     26  N   UNL     1       4.957   4.340  12.938  0.00  0.00    -0.263 N 
ATOM     27  C   UNL     1       3.672   4.104  13.278  0.00  0.00    +0.051 A 
ATOM     28  C   UNL     1       3.668   3.536  14.507  0.00  0.00    +0.061 A 
ATOM     29  C   UNL     1       4.996   3.429  14.935  0.00  0.00    +0.074 A 
ATOM     30  N   UNL     1       5.769   3.911  13.996  0.00  0.00    -0.175 NA
ATOM     31  C   UNL     1       5.457   2.859  16.252  0.00  0.00    +0.068 C 
ATOM     32 BR   UNL     1       2.139   2.989  15.476  0.00  0.00    -0.047 Br
ATOM     33  C   UNL     1       2.459   4.415  12.440  0.00  0.00    +0.066 C 
ENDBRANCH  25  26
ENDBRANCH  23  25
ENDBRANCH   2  19
TORSDOF 6
