REMARK  Name = ZINC67028717
REMARK  8 active torsions:
REMARK  status: ('A' for Active; 'I' for Inactive)
REMARK    1  A    between atoms: C_1  and  C_2
REMARK    2  A    between atoms: C_2  and  C_3
REMARK    3  A    between atoms: C_8  and  N_9
REMARK    4  A    between atoms: C_10  and  C_12
REMARK    5  A    between atoms: C_13  and  C_27
REMARK    6  A    between atoms: C_18  and  C_20
REMARK    7  A    between atoms: C_23  and  C_25
REMARK    8  A    between atoms: C_25  and  C_26
REMARK                            x       y       z     vdW  Elec       q    Type
REMARK                         _______ _______ _______ _____ _____    ______ ____
ROOT
ATOM      1  C   UNL     1      -1.499  -0.273  -4.784  0.00  0.00    +0.057 C 
ATOM      2  C   UNL     1      -2.148  -0.407  -5.960  0.00  0.00    +0.017 C 
ATOM      3  N   UNL     1      -1.512  -0.181  -7.147  0.00  0.00    -0.300 N 
ATOM      4  C   UNL     1      -0.227   0.182  -7.243  0.00  0.00    +0.135 C 
ATOM      5  S   UNL     1       0.448   0.434  -8.796  0.00  0.00    -0.019 S 
ATOM      6  N   UNL     1       0.552   0.357  -6.157  0.00  0.00    -0.314 N 
ATOM      7  C   UNL     1      -0.042   0.143  -4.827  0.00  0.00    +0.158 C 
ATOM      8  C   UNL     1      -3.600  -0.814  -5.962  0.00  0.00    +0.061 C 
ATOM      9  H   UNL     1      -2.020  -0.291  -7.966  0.00  0.00    +0.154 HD
ATOM     10  H   UNL     1       1.481   0.620  -6.250  0.00  0.00    +0.149 HD
ENDROOT
BRANCH   7  11
ATOM     11  C   UNL     1       0.100   1.419  -4.039  0.00  0.00    +0.074 A 
ATOM     12  C   UNL     1       0.987   1.528  -3.017  0.00  0.00    +0.072 A 
ATOM     13  S   UNL     1       0.693   3.213  -2.503  0.00  0.00    -0.080 S 
ATOM     14  C   UNL     1      -0.506   3.590  -3.623  0.00  0.00    +0.078 A 
ATOM     15  N   UNL     1      -0.629   2.483  -4.313  0.00  0.00    -0.247 NA
BRANCH  14  16
ATOM     16  C   UNL     1      -1.253   4.887  -3.794  0.00  0.00    +0.059 C 
ATOM     17  C   UNL     1      -2.513   4.869  -2.927  0.00  0.00    +0.011 C 
ENDBRANCH  14  16
ENDBRANCH   7  11
BRANCH   1  19
ATOM     18  N   UNL     1      -1.455  -0.508  -2.402  0.00  0.00    -0.281 N 
ATOM     19  C   UNL     1      -2.158  -0.507  -3.553  0.00  0.00    +0.248 C 
ATOM     20  O   UNL     1      -3.359  -0.707  -3.533  0.00  0.00    -0.270 OA
ATOM     21  H   UNL     1      -0.505  -0.316  -2.414  0.00  0.00    +0.155 HD
BRANCH  18  27
ATOM     22  C   UNL     1      -1.424  -1.471  -0.188  0.00  0.00    -0.026 A 
ATOM     23  C   UNL     1      -2.059  -1.740   1.008  0.00  0.00    +0.005 A 
ATOM     24  C   UNL     1      -3.366  -1.333   1.206  0.00  0.00    +0.000 A 
ATOM     25  C   UNL     1      -4.041  -0.656   0.207  0.00  0.00    +0.002 A 
ATOM     26  C   UNL     1      -3.412  -0.385  -0.992  0.00  0.00    +0.023 A 
ATOM     27  C   UNL     1      -2.097  -0.787  -1.192  0.00  0.00    +0.037 A 
BRANCH  22  29
ATOM     28  C   UNL     1       0.950  -0.766  -0.054  0.00  0.00    +0.009 C 
ATOM     29  C   UNL     1       0.001  -1.914  -0.402  0.00  0.00    +0.033 C 
ENDBRANCH  22  29
ENDBRANCH  18  27
ENDBRANCH   1  19
TORSDOF 5
