REMARK  Name = ZINC13467717
REMARK  2 active torsions:
REMARK  status: ('A' for Active; 'I' for Inactive)
REMARK    1  A    between atoms: C_4  and  N_7
REMARK    2  A    between atoms: N_9  and  C_16
REMARK                            x       y       z     vdW  Elec       q    Type
REMARK                         _______ _______ _______ _____ _____    ______ ____
ROOT
ATOM      1  N   UNL     1       3.337  -1.813  -0.835  0.00  0.00    -0.225 NA
ATOM      2  C   UNL     1       3.660  -2.248   0.360  0.00  0.00    +0.169 C 
ATOM      3  N   UNL     1       4.925  -2.440   0.886  0.00  0.00    -0.218 N 
ATOM      4  C   UNL     1       5.119  -2.890   2.121  0.00  0.00    +0.242 C 
ATOM      5  O   UNL     1       6.227  -3.058   2.584  0.00  0.00    -0.273 OA
ATOM      6  C   UNL     1       3.866  -3.175   2.904  0.00  0.00    +0.101 C 
ATOM      7  S   UNL     1       2.568  -2.727   1.694  0.00  0.00    -0.073 S 
ATOM      8  C   UNL     1       3.709  -4.339   3.858  0.00  0.00    +0.029 C 
ATOM      9  C   UNL     1       3.709  -2.898   4.383  0.00  0.00    +0.029 C 
ENDROOT
BRANCH   1  13
ATOM     10  C   UNL     1      -0.646  -1.411  -1.885  0.00  0.00    +0.000 A 
ATOM     11  C   UNL     1       0.251  -0.402  -2.188  0.00  0.00    +0.002 A 
ATOM     12  C   UNL     1       1.580  -0.529  -1.841  0.00  0.00    +0.028 A 
ATOM     13  C   UNL     1       2.019  -1.679  -1.182  0.00  0.00    +0.067 A 
ATOM     14  C   UNL     1       1.108  -2.694  -0.879  0.00  0.00    +0.028 A 
ATOM     15  C   UNL     1      -0.218  -2.553  -1.233  0.00  0.00    +0.002 A 
ENDBRANCH   1  13
BRANCH   3  16
ATOM     16  C   UNL     1       6.040  -2.150   0.089  0.00  0.00    +0.043 A 
ATOM     17  C   UNL     1       6.591  -3.135  -0.720  0.00  0.00    +0.024 A 
ATOM     18  C   UNL     1       7.690  -2.846  -1.506  0.00  0.00    +0.002 A 
ATOM     19  C   UNL     1       8.241  -1.578  -1.486  0.00  0.00    +0.000 A 
ATOM     20  C   UNL     1       7.695  -0.595  -0.681  0.00  0.00    +0.002 A 
ATOM     21  C   UNL     1       6.592  -0.877   0.102  0.00  0.00    +0.024 A 
ENDBRANCH   3  16
TORSDOF 2
