REMARK  Name = ZINC66146319
REMARK  5 active torsions:
REMARK  status: ('A' for Active; 'I' for Inactive)
REMARK    1  A    between atoms: C_3  and  N_19
REMARK    2  A    between atoms: C_6  and  C_7
REMARK    3  A    between atoms: N_9  and  N_10
REMARK    4  A    between atoms: N_13  and  C_14
REMARK    5  A    between atoms: C_14  and  C_15
REMARK                            x       y       z     vdW  Elec       q    Type
REMARK                         _______ _______ _______ _____ _____    ______ ____
ROOT
ATOM      1  C   UNL     1      -1.259  -0.770   0.010  0.00  0.00    +0.262 C 
ATOM      2  O   UNL     1      -2.325  -0.185   0.024  0.00  0.00    -0.269 OA
ATOM      3  N   UNL     1      -1.230  -2.117   0.003  0.00  0.00    -0.229 N 
ATOM      4  H   UNL     1      -0.379  -2.583  -0.008  0.00  0.00    +0.173 HD
ENDROOT
BRANCH   1  10
ATOM      5  C   UNL     1      -0.017   1.399   0.010  0.00  0.00    +0.018 A 
ATOM      6  C   UNL     1       1.177   2.068   0.002  0.00  0.00    +0.044 A 
ATOM      7  C   UNL     1       2.367   1.343  -0.013  0.00  0.00    +0.121 A 
ATOM      8  N   UNL     1       2.357   0.017  -0.020  0.00  0.00    -0.240 NA
ATOM      9  C   UNL     1       1.232  -0.665  -0.013  0.00  0.00    +0.126 A 
ATOM     10  C   UNL     1       0.002  -0.004   0.002  0.00  0.00    +0.056 A 
BRANCH   7  11
ATOM     11  N   UNL     1       3.577   2.017  -0.022  0.00  0.00    -0.315 N 
ATOM     12  C   UNL     1       4.903   1.395  -0.148  0.00  0.00    +0.106 C 
ATOM     13  C   UNL     1       5.949   2.528  -0.082  0.00  0.00    +0.020 C 
ATOM     14  C   UNL     1       5.183   3.665   0.646  0.00  0.00    +0.020 C 
ATOM     15  C   UNL     1       3.748   3.477   0.088  0.00  0.00    +0.106 C 
ENDBRANCH   7  11
ENDBRANCH   1  10
BRANCH   3  16
ATOM     16  N   UNL     1      -2.427  -2.844   0.011  0.00  0.00    -0.218 N 
ATOM     17  C   UNL     1      -2.398  -4.191   0.003  0.00  0.00    +0.316 C 
ATOM     18  O   UNL     1      -3.437  -4.822   0.010  0.00  0.00    -0.251 OA
ATOM     19  N   UNL     1      -1.216  -4.840  -0.012  0.00  0.00    -0.290 N 
ATOM     20  H   UNL     1      -3.278  -2.377   0.022  0.00  0.00    +0.174 HD
ATOM     21  H   UNL     1      -0.387  -4.336  -0.017  0.00  0.00    +0.151 HD
BRANCH  19  22
ATOM     22  C   UNL     1      -1.184  -6.304  -0.020  0.00  0.00    +0.219 C 
BRANCH  22  23
ATOM     23  C   UNL     1       0.269  -6.782  -0.037  0.00  0.00    +0.405 C 
ATOM     24  F   UNL     1       0.929  -6.308   1.101  0.00  0.00    -0.169 F 
ATOM     25  F   UNL     1       0.300  -8.181  -0.045  0.00  0.00    -0.169 F 
ATOM     26  F   UNL     1       0.907  -6.296  -1.183  0.00  0.00    -0.169 F 
ENDBRANCH  22  23
ENDBRANCH  19  22
ENDBRANCH   3  16
TORSDOF 5
