REMARK  Name = ZINC19962051
REMARK  8 active torsions:
REMARK  status: ('A' for Active; 'I' for Inactive)
REMARK    1  A    between atoms: C_1  and  C_2
REMARK    2  A    between atoms: C_2  and  C_3
REMARK    3  A    between atoms: C_6  and  N_9
REMARK    4  A    between atoms: C_10  and  C_12
REMARK    5  A    between atoms: C_12  and  C_13
REMARK    6  A    between atoms: N_17  and  C_27
REMARK    7  A    between atoms: C_27  and  C_28
REMARK    8  A    between atoms: C_28  and  C_29
REMARK                            x       y       z     vdW  Elec       q    Type
REMARK                         _______ _______ _______ _____ _____    ______ ____
ROOT
ATOM      1  C   UNL     1       1.187   2.133   0.001  0.00  0.00    +0.185 C 
ATOM      2  C   UNL     1      -0.017   1.216   0.016  0.00  0.00    +0.245 C 
ATOM      3  O   UNL     1      -0.006   0.003   0.014  0.00  0.00    -0.273 OA
ATOM      4  N   UNL     1      -1.100   2.012   0.025  0.00  0.00    -0.240 N 
ATOM      5  C   UNL     1      -0.744   3.350   0.027  0.00  0.00    +0.206 A 
ATOM      6  N   UNL     1       0.613   3.485   0.010  0.00  0.00    -0.299 N 
ATOM      7  C   UNL     1       0.908   4.834   0.007  0.00  0.00    +0.071 A 
ATOM      8  C   UNL     1       2.088   5.564  -0.008  0.00  0.00    +0.028 A 
ATOM      9  C   UNL     1       2.042   6.943  -0.007  0.00  0.00    +0.002 A 
ATOM     10  C   UNL     1       0.824   7.606   0.009  0.00  0.00    +0.002 A 
ATOM     11  C   UNL     1      -0.357   6.897   0.025  0.00  0.00    +0.030 A 
ATOM     12  C   UNL     1      -0.328   5.500   0.024  0.00  0.00    +0.091 A 
ATOM     13  N   UNL     1      -1.294   4.548   0.035  0.00  0.00    -0.214 NA
ENDROOT
BRANCH   1  14
ATOM     14  C   UNL     1       2.046   1.909   1.247  0.00  0.00    +0.130 C 
BRANCH  14  16
ATOM     15  N   UNL     1       3.450   0.108   2.199  0.00  0.00    -0.285 N 
ATOM     16  C   UNL     1       2.650   0.528   1.199  0.00  0.00    +0.220 C 
ATOM     17  O   UNL     1       2.416  -0.203   0.261  0.00  0.00    -0.275 OA
ATOM     18  H   UNL     1       3.723   0.797   3.012  0.00  0.00    +0.155 HD
BRANCH  15  22
ATOM     19  C   UNL     1       4.885  -3.804   2.213  0.00  0.00    -0.048 A 
ATOM     20  C   UNL     1       4.723  -3.132   1.015  0.00  0.00    +0.005 A 
ATOM     21  C   UNL     1       4.248  -1.835   1.007  0.00  0.00    +0.023 A 
ATOM     22  C   UNL     1       3.932  -1.206   2.204  0.00  0.00    +0.033 A 
ATOM     23  C   UNL     1       4.100  -1.881   3.405  0.00  0.00    +0.023 A 
ATOM     24  C   UNL     1       4.571  -3.179   3.406  0.00  0.00    +0.005 A 
BRANCH  19  26
ATOM     25  C   UNL     1       6.931  -5.201   2.315  0.00  0.00    +0.009 C 
ATOM     26  C   UNL     1       5.404  -5.218   2.217  0.00  0.00    +0.032 C 
ENDBRANCH  19  26
ENDBRANCH  15  22
ENDBRANCH  14  16
ENDBRANCH   1  14
BRANCH   4  27
ATOM     27  C   UNL     1      -2.482   1.526   0.034  0.00  0.00    +0.121 C 
BRANCH  27  28
ATOM     28  C   UNL     1      -2.953   1.355   1.480  0.00  0.00    +0.050 C 
BRANCH  28  29
ATOM     29  C   UNL     1      -4.374   0.855   1.489  0.00  0.00    -0.072 C 
ATOM     30  C   UNL     1      -4.568  -0.421   1.589  0.00  0.00    -0.028 C 
ATOM     31  C   UNL     1      -5.922  -1.068   1.602  0.00  0.00    +0.027 C 
ATOM     32  C   UNL     1      -7.000  -0.026   1.909  0.00  0.00    +0.004 C 
ATOM     33  C   UNL     1      -6.786   1.180   0.986  0.00  0.00    +0.005 C 
ATOM     34  C   UNL     1      -5.477   1.867   1.389  0.00  0.00    +0.030 C 
ENDBRANCH  28  29
ENDBRANCH  27  28
ENDBRANCH   4  27
TORSDOF 7
