REMARK  Name = ZINC63161768
REMARK  8 active torsions:
REMARK  status: ('A' for Active; 'I' for Inactive)
REMARK    1  A    between atoms: C_1  and  C_2
REMARK    2  A    between atoms: C_4  and  C_27
REMARK    3  A    between atoms: N_6  and  C_8
REMARK    4  A    between atoms: C_8  and  C_9
REMARK    5  A    between atoms: C_9  and  C_10
REMARK    6  A    between atoms: C_10  and  N_11
REMARK    7  A    between atoms: N_14  and  C_15
REMARK    8  A    between atoms: C_17  and  C_23
REMARK                            x       y       z     vdW  Elec       q    Type
REMARK                         _______ _______ _______ _____ _____    ______ ____
ROOT
ATOM      1  N   UNL     1       5.241  -2.266   3.213  0.00  0.00    -0.299 N 
ATOM      2  C   UNL     1       6.157  -2.591   4.147  0.00  0.00    +0.304 C 
ATOM      3  O   UNL     1       5.865  -3.360   5.043  0.00  0.00    -0.253 OA
ATOM      4  N   UNL     1       7.396  -2.065   4.089  0.00  0.00    -0.265 N 
ATOM      5  H   UNL     1       5.474  -1.653   2.499  0.00  0.00    +0.150 HD
ATOM      6  H   UNL     1       7.652  -1.510   3.335  0.00  0.00    +0.157 HD
ENDROOT
BRANCH   4   7
ATOM      7  C   UNL     1       8.315  -2.318   5.117  0.00  0.00    +0.100 A 
ATOM      8  C   UNL     1       9.514  -2.915   4.842  0.00  0.00    +0.042 A 
ATOM      9  C   UNL     1      10.415  -3.156   5.889  0.00  0.00    +0.073 A 
ATOM     10  C   UNL     1      10.095  -2.800   7.154  0.00  0.00    +0.098 A 
ATOM     11  N   UNL     1       8.902  -2.207   7.429  0.00  0.00    -0.327 N 
ATOM     12  H   UNL     1       8.691  -1.959   8.343  0.00  0.00    +0.168 HD
ATOM     13  C   UNL     1       8.015  -1.955   6.448  0.00  0.00    +0.270 A 
ATOM     14  O   UNL     1       6.951  -1.417   6.710  0.00  0.00    -0.266 OA
BRANCH   9  15
ATOM     15  C   UNL     1      11.741  -3.813   5.605  0.00  0.00    +0.419 C 
ATOM     16  F   UNL     1      12.460  -3.947   6.797  0.00  0.00    -0.166 F 
ATOM     17  F   UNL     1      11.525  -5.078   5.046  0.00  0.00    -0.166 F 
ATOM     18  F   UNL     1      12.469  -3.026   4.707  0.00  0.00    -0.166 F 
ENDBRANCH   9  15
ENDBRANCH   4   7
BRANCH   1  19
ATOM     19  C   UNL     1       3.894  -2.838   3.277  0.00  0.00    +0.104 C 
BRANCH  19  20
ATOM     20  C   UNL     1       3.059  -2.310   2.109  0.00  0.00    +0.000 C 
BRANCH  20  21
ATOM     21  C   UNL     1       1.653  -2.908   2.175  0.00  0.00    -0.077 C 
BRANCH  21  27
ATOM     22  C   UNL     1      -0.278   1.106   0.145  0.00  0.00    +0.005 C 
ATOM     23  C   UNL     1      -0.092  -0.405  -0.010  0.00  0.00    -0.031 C 
ATOM     24  C   UNL     1      -1.462  -1.083  -0.089  0.00  0.00    +0.003 C 
ATOM     25  C   UNL     1      -1.266  -2.600  -0.164  0.00  0.00    -0.031 C 
ATOM     26  C   UNL     1      -0.458  -3.065   1.049  0.00  0.00    -0.076 C 
ATOM     27  N   UNL     1       0.851  -2.401   1.054  0.00  0.00    +0.380 N 
ATOM     28  C   UNL     1       0.673  -0.951   1.198  0.00  0.00    -0.076 C 
ATOM     29  C   UNL     1      -0.511  -2.955  -1.447  0.00  0.00    +0.005 C 
ATOM     30  H   UNL     1       1.329  -2.595   0.186  0.00  0.00    -0.082 HD
ENDBRANCH  21  27
ENDBRANCH  20  21
ENDBRANCH  19  20
ENDBRANCH   1  19
TORSDOF 6
