REMARK  Name = ZINC33271421
REMARK  5 active torsions:
REMARK  status: ('A' for Active; 'I' for Inactive)
REMARK    1  A    between atoms: C_1  and  C_2
REMARK    2  A    between atoms: C_13  and  C_16
REMARK    3  A    between atoms: C_21  and  C_23
REMARK    4  A    between atoms: C_26  and  O_30
REMARK    5  A    between atoms: O_30  and  C_31
REMARK                            x       y       z     vdW  Elec       q    Type
REMARK                         _______ _______ _______ _____ _____    ______ ____
ROOT
ATOM      1  C   UNL     1       0.514   6.352  -1.116  0.00  0.00    +0.068 C 
ATOM      2  C   UNL     1      -0.421   5.245  -0.700  0.00  0.00    +0.066 A 
ATOM      3  C   UNL     1      -0.096   3.900  -0.605  0.00  0.00    +0.023 A 
ATOM      4  C   UNL     1      -1.213   3.224  -0.190  0.00  0.00    +0.134 A 
ATOM      5  N   UNL     1      -2.205   4.127  -0.043  0.00  0.00    -0.198 N 
ATOM      6  N   UNL     1      -1.682   5.390  -0.365  0.00  0.00    -0.168 NA
ATOM      7  C   UNL     1      -3.516   3.855   0.358  0.00  0.00    +0.176 A 
ATOM      8  C   UNL     1      -4.278   4.866   0.974  0.00  0.00    +0.054 A 
ATOM      9  C   UNL     1      -5.556   4.614   1.365  0.00  0.00    +0.054 A 
ATOM     10  C   UNL     1      -6.098   3.332   1.153  0.00  0.00    +0.178 A 
ATOM     11  N   UNL     1      -7.271   2.779   1.413  0.00  0.00    -0.128 NA
ATOM     12  N   UNL     1      -7.261   1.554   1.015  0.00  0.00    -0.132 NA
ATOM     13  C   UNL     1      -6.098   1.261   0.487  0.00  0.00    +0.152 A 
ATOM     14  N   UNL     1      -5.326   2.366   0.555  0.00  0.00    -0.195 N 
ATOM     15  N   UNL     1      -4.019   2.660   0.161  0.00  0.00    -0.144 NA
ATOM     16  C   UNL     1      -5.696  -0.071  -0.092  0.00  0.00    +0.090 C 
ATOM     17  N   UNL     1      -1.204   1.847   0.018  0.00  0.00    -0.270 N 
ATOM     18  C   UNL     1      -0.014   1.209   0.009  0.00  0.00    +0.219 C 
ATOM     19  O   UNL     1       0.002  -0.004   0.002  0.00  0.00    -0.275 OA
ATOM     20  C   UNL     1       1.290   1.954   0.000  0.00  0.00    +0.109 C 
ATOM     21  C   UNL     1       1.211   3.203  -0.884  0.00  0.00    +0.063 C 
ATOM     22  H   UNL     1      -2.150   1.309   0.183  0.00  0.00    +0.156 HD
ENDROOT
BRANCH  21  23
ATOM     23  C   UNL     1       2.358   4.127  -0.561  0.00  0.00    -0.038 A 
ATOM     24  C   UNL     1       3.269   4.465  -1.545  0.00  0.00    +0.008 A 
ATOM     25  C   UNL     1       4.320   5.312  -1.253  0.00  0.00    +0.047 A 
ATOM     26  C   UNL     1       4.462   5.823   0.029  0.00  0.00    +0.134 A 
ATOM     27  C   UNL     1       3.547   5.482   1.015  0.00  0.00    +0.060 A 
ATOM     28  C   UNL     1       2.493   4.638   0.716  0.00  0.00    +0.023 A 
ATOM     29 BR   UNL     1       3.736   6.176   2.763  0.00  0.00    -0.047 Br
BRANCH  26  30
ATOM     30  O   UNL     1       5.496   6.656   0.319  0.00  0.00    -0.494 OA
ATOM     31  C   UNL     1       6.399   6.964  -0.745  0.00  0.00    +0.277 C 
ENDBRANCH  26  30
ENDBRANCH  21  23
TORSDOF 2
