REMARK  Name = ZINC58123121
REMARK  8 active torsions:
REMARK  status: ('A' for Active; 'I' for Inactive)
REMARK    1  A    between atoms: C_1  and  C_2
REMARK    2  A    between atoms: C_4  and  N_11
REMARK    3  A    between atoms: C_7  and  N_8
REMARK    4  A    between atoms: N_8  and  C_9
REMARK    5  A    between atoms: N_8  and  C_10
REMARK    6  A    between atoms: N_14  and  C_15
REMARK    7  A    between atoms: C_15  and  C_16
REMARK    8  A    between atoms: N_18  and  C_19
REMARK                            x       y       z     vdW  Elec       q    Type
REMARK                         _______ _______ _______ _____ _____    ______ ____
ROOT
ATOM      1  N   UNL     1      -0.593  -2.838  -2.494  0.00  0.00    -0.269 N 
ATOM      2  C   UNL     1      -0.280  -4.149  -2.486  0.00  0.00    +0.304 C 
ATOM      3  O   UNL     1      -0.128  -4.731  -1.429  0.00  0.00    -0.252 OA
ATOM      4  N   UNL     1      -0.137  -4.814  -3.649  0.00  0.00    -0.291 N 
ATOM      5  H   UNL     1      -0.790  -2.391  -3.332  0.00  0.00    +0.156 HD
ATOM      6  H   UNL     1      -0.258  -4.350  -4.492  0.00  0.00    +0.151 HD
ENDROOT
BRANCH   1  10
ATOM      7  C   UNL     1       1.140  -2.091   2.047  0.00  0.00    +0.046 C 
ATOM      8  C   UNL     1       0.196  -1.737   0.927  0.00  0.00    -0.028 A 
ATOM      9  C   UNL     1       0.236  -2.445  -0.258  0.00  0.00    +0.028 A 
ATOM     10  C   UNL     1      -0.634  -2.120  -1.290  0.00  0.00    +0.035 A 
ATOM     11  C   UNL     1      -1.543  -1.082  -1.132  0.00  0.00    +0.025 A 
ATOM     12  C   UNL     1      -1.583  -0.375   0.053  0.00  0.00    +0.025 A 
ATOM     13  C   UNL     1      -0.717  -0.704   1.088  0.00  0.00    +0.032 A 
BRANCH  13  14
ATOM     14  N   UNL     1      -0.761   0.010   2.291  0.00  0.00    -0.336 N 
ATOM     15  C   UNL     1      -1.635  -0.440   3.377  0.00  0.00    +0.129 C 
ATOM     16  C   UNL     1       0.066   1.206   2.464  0.00  0.00    +0.129 C 
ENDBRANCH  13  14
ENDBRANCH   1  10
BRANCH   4  17
ATOM     17  C   UNL     1       0.203  -6.239  -3.640  0.00  0.00    +0.202 C 
BRANCH  17  18
ATOM     18  C   UNL     1       0.304  -6.740  -5.058  0.00  0.00    +0.234 C 
ATOM     19  O   UNL     1       0.112  -5.982  -5.984  0.00  0.00    -0.274 OA
ATOM     20  N   UNL     1       0.609  -8.032  -5.296  0.00  0.00    -0.284 N 
ATOM     21  H   UNL     1       0.692  -8.655  -4.557  0.00  0.00    +0.155 HD
BRANCH  20  22
ATOM     22  C   UNL     1       0.806  -8.473  -6.610  0.00  0.00    +0.036 A 
ATOM     23  C   UNL     1       0.426  -9.758  -6.976  0.00  0.00    +0.026 A 
ATOM     24  C   UNL     1       0.621 -10.193  -8.272  0.00  0.00    +0.043 A 
ATOM     25  C   UNL     1       1.195  -9.350  -9.208  0.00  0.00    +0.159 A 
ATOM     26  C   UNL     1       1.575  -8.066  -8.846  0.00  0.00    +0.160 A 
ATOM     27  C   UNL     1       1.377  -7.626  -7.550  0.00  0.00    +0.064 A 
ATOM     28  F   UNL     1       2.135  -7.244  -9.760  0.00  0.00    -0.202 F 
ATOM     29  F   UNL     1       1.385  -9.777 -10.475  0.00  0.00    -0.202 F 
ENDBRANCH  20  22
ENDBRANCH  17  18
ENDBRANCH   4  17
TORSDOF 5
