REMARK  Name = ZINC09237243
REMARK  6 active torsions:
REMARK  status: ('A' for Active; 'I' for Inactive)
REMARK    1  A    between atoms: C_1  and  C_2
REMARK    2  A    between atoms: C_5  and  C_8
REMARK    3  A    between atoms: C_10  and  C_20
REMARK    4  A    between atoms: C_16  and  C_19
REMARK    5  A    between atoms: N_22  and  C_23
REMARK    6  A    between atoms: C_28  and  C_29
REMARK                            x       y       z     vdW  Elec       q    Type
REMARK                         _______ _______ _______ _____ _____    ______ ____
ROOT
ATOM      1  C   UNL     1       1.243  -0.591  -0.514  0.00  0.00    +0.140 C 
ATOM      2  C   UNL     1       2.433  -0.123   0.334  0.00  0.00    +0.166 C 
ATOM      3  S   UNL     1       2.720   1.635  -0.030  0.00  0.00    -0.069 S 
ATOM      4  C   UNL     1       1.039   2.171   0.015  0.00  0.00    +0.209 A 
ATOM      5  N   UNL     1       0.583   3.392   0.047  0.00  0.00    -0.121 NA
ATOM      6  N   UNL     1      -0.705   3.369   0.060  0.00  0.00    -0.132 NA
ATOM      7  C   UNL     1      -1.132   2.136   0.041  0.00  0.00    +0.148 A 
ATOM      8  N   UNL     1      -0.034   1.325   0.018  0.00  0.00    -0.225 N 
ATOM      9  N   UNL     1      -0.006  -0.033   0.005  0.00  0.00    -0.272 N 
ATOM     10  C   UNL     1      -2.572   1.690   0.044  0.00  0.00    +0.090 C 
ATOM     11  H   UNL     1      -0.802  -0.406  -0.490  0.00  0.00    +0.167 HD
ENDROOT
BRANCH   1  16
ATOM     12  C   UNL     1       0.956  -6.361  -0.386  0.00  0.00    +0.044 C 
ATOM     13  C   UNL     1       1.031  -4.856  -0.419  0.00  0.00    -0.050 A 
ATOM     14  C   UNL     1       1.616  -4.217  -1.497  0.00  0.00    +0.004 A 
ATOM     15  C   UNL     1       1.684  -2.837  -1.528  0.00  0.00    +0.006 A 
ATOM     16  C   UNL     1       1.168  -2.096  -0.481  0.00  0.00    -0.024 A 
ATOM     17  C   UNL     1       0.589  -2.735   0.599  0.00  0.00    +0.006 A 
ATOM     18  C   UNL     1       0.516  -4.115   0.628  0.00  0.00    +0.004 A 
ENDBRANCH   1  16
BRANCH   2  19
ATOM     19  C   UNL     1       3.659  -0.926  -0.019  0.00  0.00    +0.233 C 
ATOM     20  O   UNL     1       3.837  -1.288  -1.163  0.00  0.00    -0.274 OA
ATOM     21  N   UNL     1       4.556  -1.241   0.936  0.00  0.00    -0.284 N 
ATOM     22  H   UNL     1       4.455  -0.885   1.833  0.00  0.00    +0.155 HD
BRANCH  21  23
ATOM     23  C   UNL     1       5.633  -2.082   0.634  0.00  0.00    +0.036 A 
ATOM     24  C   UNL     1       5.536  -2.986  -0.417  0.00  0.00    +0.024 A 
ATOM     25  C   UNL     1       6.602  -3.811  -0.716  0.00  0.00    +0.017 A 
ATOM     26  C   UNL     1       7.762  -3.746   0.036  0.00  0.00    +0.018 A 
ATOM     27  C   UNL     1       7.859  -2.851   1.087  0.00  0.00    +0.020 A 
ATOM     28  C   UNL     1       6.798  -2.019   1.387  0.00  0.00    -0.028 A 
ATOM     29  C   UNL     1       6.904  -1.044   2.530  0.00  0.00    +0.046 C 
ATOM     30 BR   UNL     1       9.217  -4.882  -0.372  0.00  0.00    -0.050 Br
ENDBRANCH  21  23
ENDBRANCH   2  19
TORSDOF 3
