REMARK  Name = ZINC01016345
REMARK  8 active torsions:
REMARK  status: ('A' for Active; 'I' for Inactive)
REMARK    1  A    between atoms: C_1  and  C_2
REMARK    2  A    between atoms: C_2  and  O_3
REMARK    3  A    between atoms: O_3  and  C_4
REMARK    4  A    between atoms: C_4  and  C_6
REMARK    5  A    between atoms: C_8  and  C_21
REMARK    6  A    between atoms: N_13  and  C_20
REMARK    7  A    between atoms: C_14  and  C_15
REMARK    8  A    between atoms: C_14  and  O_19
REMARK                            x       y       z     vdW  Elec       q    Type
REMARK                         _______ _______ _______ _____ _____    ______ ____
ROOT
ATOM      1  C   UNL     1      -0.101   0.896  -0.177  0.00  0.00    +0.182 C 
ATOM      2  C   UNL     1       1.175   1.736  -0.061  0.00  0.00    +0.125 C 
ATOM      3  N   UNL     1       2.042   1.454  -1.207  0.00  0.00    -0.291 N 
ATOM      4  C   UNL     1       1.533   1.082  -2.391  0.00  0.00    +0.305 C 
ATOM      5  O   UNL     1       2.296   0.871  -3.314  0.00  0.00    -0.253 OA
ATOM      6  N   UNL     1       0.216   0.935  -2.598  0.00  0.00    -0.252 N 
ATOM      7  C   UNL     1      -0.755   1.187  -1.532  0.00  0.00    +0.248 C 
ATOM      8  C   UNL     1      -0.261   0.513  -3.917  0.00  0.00    +0.137 C 
ATOM      9  H   UNL     1       3.003   1.537  -1.108  0.00  0.00    +0.151 HD
ENDROOT
BRANCH   2  10
ATOM     10  C   UNL     1       1.897   1.382   1.214  0.00  0.00    -0.007 A 
ATOM     11  C   UNL     1       2.817   0.351   1.225  0.00  0.00    +0.007 A 
ATOM     12  C   UNL     1       3.483   0.030   2.393  0.00  0.00    +0.002 A 
ATOM     13  C   UNL     1       3.221   0.732   3.554  0.00  0.00    +0.021 A 
ATOM     14  C   UNL     1       2.296   1.761   3.547  0.00  0.00    +0.060 A 
ATOM     15  C   UNL     1       1.633   2.086   2.376  0.00  0.00    +0.064 A 
ATOM     16 CL   UNL     1       0.473   3.377   2.364  0.00  0.00    -0.082 Cl
ATOM     17 CL   UNL     1       1.967   2.644   5.005  0.00  0.00    -0.082 Cl
ENDBRANCH   2  10
BRANCH   7  18
ATOM     18  C   UNL     1      -1.970   0.276  -1.720  0.00  0.00    +0.437 C 
ATOM     19  F   UNL     1      -2.843   0.433  -0.638  0.00  0.00    -0.166 F 
ATOM     20  F   UNL     1      -2.630   0.617  -2.905  0.00  0.00    -0.166 F 
ATOM     21  F   UNL     1      -1.547  -1.056  -1.788  0.00  0.00    -0.166 F 
ENDBRANCH   7  18
BRANCH   1  22
ATOM     22  C   UNL     1      -1.050   1.261   0.936  0.00  0.00    +0.317 C 
ATOM     23  O   UNL     1      -1.724   2.260   0.852  0.00  0.00    -0.250 OA
BRANCH  22  24
ATOM     24  O   UNL     1      -1.145   0.476   2.021  0.00  0.00    -0.465 OA
BRANCH  24  26
ATOM     25  C   UNL     1      -1.976  -0.063   4.246  0.00  0.00    +0.048 C 
ATOM     26  C   UNL     1      -2.087   0.883   3.049  0.00  0.00    +0.229 C 
ENDBRANCH  24  26
ENDBRANCH  22  24
ENDBRANCH   1  22
BRANCH   7  27
ATOM     27  O   UNL     1      -1.171   2.554  -1.578  0.00  0.00    -0.364 OA
ATOM     28  H   UNL     1      -1.594   2.808  -2.409  0.00  0.00    +0.212 HD
ENDBRANCH   7  27
TORSDOF 6
