REMARK  Name = ZINC09458368
REMARK  5 active torsions:
REMARK  status: ('A' for Active; 'I' for Inactive)
REMARK    1  A    between atoms: C_1  and  N_2
REMARK    2  A    between atoms: C_4  and  C_18
REMARK    3  A    between atoms: C_6  and  C_7
REMARK    4  A    between atoms: C_18  and  C_20
REMARK    5  A    between atoms: C_25  and  O_26
REMARK                            x       y       z     vdW  Elec       q    Type
REMARK                         _______ _______ _______ _____ _____    ______ ____
ROOT
ATOM      1  C   UNL     1       1.306   4.417  -0.369  0.00  0.00    +0.149 C 
ATOM      2  N   UNL     1       0.437   3.289  -0.025  0.00  0.00    -0.347 N 
ATOM      3  C   UNL     1      -0.875   3.376   0.258  0.00  0.00    +0.097 A 
ATOM      4  C   UNL     1      -1.347   2.104   0.525  0.00  0.00    +0.041 A 
ATOM      5  C   UNL     1      -0.248   1.220   0.401  0.00  0.00    +0.042 A 
ATOM      6  C   UNL     1       0.833   1.974   0.059  0.00  0.00    +0.085 A 
ENDROOT
BRANCH   6   7
ATOM      7  C   UNL     1       2.193   1.468  -0.181  0.00  0.00    +0.158 A 
ATOM      8  N   UNL     1       3.096   2.286  -0.809  0.00  0.00    -0.305 N 
ATOM      9  H   UNL     1       2.838   3.179  -1.088  0.00  0.00    +0.170 HD
ATOM     10  C   UNL     1       4.352   1.832  -1.035  0.00  0.00    +0.266 A 
ATOM     11  O   UNL     1       5.180   2.533  -1.591  0.00  0.00    -0.267 OA
ATOM     12  C   UNL     1       4.672   0.541  -0.615  0.00  0.00    +0.102 A 
ATOM     13  C   UNL     1       3.729  -0.281   0.029  0.00  0.00    +0.086 A 
ATOM     14  N   UNL     1       2.490   0.260   0.220  0.00  0.00    -0.227 NA
ATOM     15  C   UNL     1       4.190  -1.554   0.396  0.00  0.00    +0.036 A 
ATOM     16  C   UNL     1       5.461  -1.919   0.129  0.00  0.00    +0.048 A 
ATOM     17  S   UNL     1       6.126  -0.472  -0.678  0.00  0.00    -0.090 S 
ENDBRANCH   6   7
BRANCH   4  18
ATOM     18  C   UNL     1      -2.730   1.739   0.876  0.00  0.00    +0.198 C 
ATOM     19  O   UNL     1      -2.997   0.593   1.187  0.00  0.00    -0.286 OA
BRANCH  18  20
ATOM     20  C   UNL     1      -3.792   2.762   0.850  0.00  0.00    +0.066 A 
ATOM     21  C   UNL     1      -4.269   3.310   2.045  0.00  0.00    +0.053 A 
ATOM     22  C   UNL     1      -5.263   4.267   2.013  0.00  0.00    +0.124 A 
ATOM     23  C   UNL     1      -5.791   4.687   0.801  0.00  0.00    +0.042 A 
ATOM     24  C   UNL     1      -5.328   4.152  -0.385  0.00  0.00    +0.049 A 
ATOM     25  C   UNL     1      -4.325   3.194  -0.372  0.00  0.00    +0.128 A 
ATOM     26  F   UNL     1      -5.724   4.796   3.168  0.00  0.00    -0.205 F 
BRANCH  25  27
ATOM     27  O   UNL     1      -3.866   2.673  -1.538  0.00  0.00    -0.506 OA
ATOM     28  H   UNL     1      -4.345   1.887  -1.833  0.00  0.00    +0.292 HD
ENDBRANCH  25  27
ENDBRANCH  18  20
ENDBRANCH   4  18
TORSDOF 4
