REMARK  Name = ZINC66890981
REMARK  7 active torsions:
REMARK  status: ('A' for Active; 'I' for Inactive)
REMARK    1  A    between atoms: C_1  and  N_2
REMARK    2  A    between atoms: N_2  and  C_3
REMARK    3  A    between atoms: C_3  and  C_4
REMARK    4  A    between atoms: C_7  and  C_10
REMARK    5  A    between atoms: N_16  and  C_17
REMARK    6  A    between atoms: C_17  and  C_18
REMARK    7  A    between atoms: C_21  and  N_24
REMARK                            x       y       z     vdW  Elec       q    Type
REMARK                         _______ _______ _______ _____ _____    ______ ____
ROOT
ATOM      1  C   UNL     1      -0.018   1.461   0.010  0.00  0.00    +0.134 C 
ATOM      2  N   UNL     1       0.002  -0.004   0.002  0.00  0.00    -0.284 N 
ATOM      3  C   UNL     1       0.000  -0.672  -1.169  0.00  0.00    +0.303 C 
ATOM      4  O   UNL     1       0.017  -1.887  -1.175  0.00  0.00    -0.253 OA
ATOM      5  N   UNL     1      -0.020   0.009  -2.332  0.00  0.00    -0.295 N 
ATOM      6  H   UNL     1      -0.033   0.978  -2.327  0.00  0.00    +0.151 HD
ENDROOT
BRANCH   2   7
ATOM      7  C   UNL     1       0.024  -0.743   1.267  0.00  0.00    +0.144 C 
BRANCH   7   8
ATOM      8  C   UNL     1      -1.389  -1.016   1.714  0.00  0.00    -0.030 A 
ATOM      9  C   UNL     1      -2.047  -0.105   2.518  0.00  0.00    +0.006 A 
ATOM     10  C   UNL     1      -3.344  -0.355   2.929  0.00  0.00    +0.013 A 
ATOM     11  C   UNL     1      -3.981  -1.516   2.534  0.00  0.00    +0.055 A 
ATOM     12  C   UNL     1      -3.323  -2.427   1.728  0.00  0.00    +0.013 A 
ATOM     13  C   UNL     1      -2.029  -2.175   1.315  0.00  0.00    +0.006 A 
BRANCH  11  14
ATOM     14  C   UNL     1      -5.394  -1.790   2.982  0.00  0.00    +0.417 C 
ATOM     15  F   UNL     1      -6.290  -1.257   2.048  0.00  0.00    -0.166 F 
ATOM     16  F   UNL     1      -5.592  -3.171   3.083  0.00  0.00    -0.166 F 
ATOM     17  F   UNL     1      -5.611  -1.194   4.229  0.00  0.00    -0.166 F 
ENDBRANCH  11  14
ENDBRANCH   7   8
ENDBRANCH   2   7
BRANCH   5  18
ATOM     18  C   UNL     1      -0.022  -0.717  -3.605  0.00  0.00    +0.141 C 
BRANCH  18  19
ATOM     19  C   UNL     1      -0.047   0.268  -4.745  0.00  0.00    -0.030 A 
ATOM     20  C   UNL     1      -1.256   0.707  -5.252  0.00  0.00    +0.007 A 
ATOM     21  C   UNL     1      -1.281   1.611  -6.297  0.00  0.00    +0.026 A 
ATOM     22  C   UNL     1      -0.091   2.078  -6.838  0.00  0.00    +0.047 A 
ATOM     23  C   UNL     1       1.121   1.635  -6.326  0.00  0.00    +0.026 A 
ATOM     24  C   UNL     1       1.140   0.736  -5.278  0.00  0.00    +0.007 A 
BRANCH  22  25
ATOM     25  N   UNL     1      -0.114   2.994  -7.899  0.00  0.00    -0.306 N 
ATOM     26  C   UNL     1       0.976   3.534  -8.532  0.00  0.00    +0.112 A 
ATOM     27  C   UNL     1       0.503   4.360  -9.485  0.00  0.00    +0.130 A 
ATOM     28  N   UNL     1      -0.837   4.329  -9.439  0.00  0.00    -0.244 NA
ATOM     29  C   UNL     1      -1.219   3.510  -8.496  0.00  0.00    +0.204 A 
ENDBRANCH  22  25
ENDBRANCH  18  19
ENDBRANCH   5  18
TORSDOF 6
