REMARK  Name = ZINC55904982
REMARK  6 active torsions:
REMARK  status: ('A' for Active; 'I' for Inactive)
REMARK    1  A    between atoms: C_1  and  N_2
REMARK    2  A    between atoms: C_3  and  C_5
REMARK    3  A    between atoms: C_8  and  N_12
REMARK    4  A    between atoms: C_13  and  C_15
REMARK    5  A    between atoms: C_16  and  C_17
REMARK    6  A    between atoms: C_21  and  N_23
REMARK                            x       y       z     vdW  Elec       q    Type
REMARK                         _______ _______ _______ _____ _____    ______ ____
ROOT
ATOM      1  N   UNL     1       0.660  -6.304  -1.048  0.00  0.00    -0.282 N 
ATOM      2  C   UNL     1       1.157  -6.967  -2.112  0.00  0.00    +0.241 C 
ATOM      3  O   UNL     1       1.672  -6.351  -3.026  0.00  0.00    -0.270 OA
ATOM      4  H   UNL     1       0.319  -6.797  -0.286  0.00  0.00    +0.155 HD
ENDROOT
BRANCH   1   8
ATOM      5  C   UNL     1       0.591  -2.140  -1.034  0.00  0.00    +0.055 A 
ATOM      6  C   UNL     1       0.792  -2.842   0.158  0.00  0.00    +0.016 A 
ATOM      7  C   UNL     1       0.814  -4.217   0.150  0.00  0.00    +0.024 A 
ATOM      8  C   UNL     1       0.636  -4.911  -1.044  0.00  0.00    +0.035 A 
ATOM      9  C   UNL     1       0.435  -4.218  -2.232  0.00  0.00    +0.044 A 
ATOM     10  C   UNL     1       0.407  -2.839  -2.231  0.00  0.00    +0.055 A 
ATOM     11 CL   UNL     1       0.149  -1.973  -3.713  0.00  0.00    -0.083 Cl
BRANCH   5  14
ATOM     12  C   UNL     1       0.719   1.473   0.132  0.00  0.00    +0.128 C 
ATOM     13  N   UNL     1       0.743   0.008   0.126  0.00  0.00    -0.314 N 
ATOM     14  C   UNL     1       0.566  -0.665  -1.028  0.00  0.00    +0.245 C 
ATOM     15  O   UNL     1       0.385  -0.056  -2.065  0.00  0.00    -0.270 OA
ATOM     16  H   UNL     1       0.887  -0.478   0.954  0.00  0.00    +0.149 HD
ENDBRANCH   5  14
ENDBRANCH   1   8
BRANCH   2  17
ATOM     17  C   UNL     1       1.076  -8.427  -2.167  0.00  0.00    +0.068 C 
ATOM     18  C   UNL     1       1.573  -9.090  -3.231  0.00  0.00    +0.013 C 
BRANCH  18  19
ATOM     19  C   UNL     1       1.493 -10.559  -3.287  0.00  0.00    -0.023 A 
ATOM     20  C   UNL     1       0.896 -11.270  -2.240  0.00  0.00    +0.008 A 
ATOM     21  C   UNL     1       0.824 -12.645  -2.300  0.00  0.00    +0.003 A 
ATOM     22  C   UNL     1       1.340 -13.322  -3.392  0.00  0.00    +0.033 A 
ATOM     23  C   UNL     1       1.932 -12.626  -4.431  0.00  0.00    +0.127 A 
ATOM     24  C   UNL     1       2.007 -11.249  -4.388  0.00  0.00    +0.040 A 
BRANCH  23  25
ATOM     25  N   UNL     1       2.480 -13.359  -5.593  0.00  0.00    +0.056 N 
ATOM     26  O   UNL     1       2.411 -14.566  -5.634  0.00  0.00    -0.126 OA
ATOM     27  O   UNL     1       2.998 -12.752  -6.502  0.00  0.00    -0.126 OA
ENDBRANCH  23  25
ENDBRANCH  18  19
ENDBRANCH   2  17
TORSDOF 5
