REMARK  Name = ZINC39105031
REMARK  4 active torsions:
REMARK  status: ('A' for Active; 'I' for Inactive)
REMARK    1  A    between atoms: C_1  and  C_2
REMARK    2  A    between atoms: C_2  and  C_12
REMARK    3  A    between atoms: C_3  and  C_4
REMARK    4  A    between atoms: C_4  and  C_11
REMARK                            x       y       z     vdW  Elec       q    Type
REMARK                         _______ _______ _______ _____ _____    ______ ____
ROOT
ATOM      1  C   UNL     1       0.075   0.005   2.481  0.00  0.00    +0.109 C 
ATOM      2  N   UNL     1      -1.048  -0.428   3.327  0.00  0.00    -0.358 N 
ATOM      3  C   UNL     1      -1.942   0.532   3.635  0.00  0.00    +0.136 C 
ATOM      4  S   UNL     1      -3.262   0.192   4.583  0.00  0.00    -0.029 SA
ATOM      5  C   UNL     1      -1.717   1.900   3.107  0.00  0.00    +0.245 C 
ATOM      6  O   UNL     1      -2.408   2.885   3.278  0.00  0.00    -0.277 OA
ATOM      7  S   UNL     1      -0.294   1.784   2.221  0.00  0.00    -0.049 S 
ATOM      8  C   UNL     1       1.409  -0.173   3.207  0.00  0.00    +0.051 C 
ATOM      9  H   UNL     1      -1.139  -1.341   3.641  0.00  0.00    +0.162 HD
ENDROOT
BRANCH   1  12
ATOM     10  C   UNL     1       1.981   0.634   0.499  0.00  0.00    +0.038 C 
ATOM     11  C   UNL     1       0.920  -0.400   0.226  0.00  0.00    -0.077 C 
ATOM     12  C   UNL     1       0.077  -0.739   1.170  0.00  0.00    +0.010 C 
ATOM     13  C   UNL     1       0.829  -1.046  -1.132  0.00  0.00    +0.038 C 
ENDBRANCH   1  12
TORSDOF 1
