REMARK  Name = ZINC04805837
REMARK  3 active torsions:
REMARK  status: ('A' for Active; 'I' for Inactive)
REMARK    1  A    between atoms: C_1  and  S_2
REMARK    2  A    between atoms: S_2  and  N_5
REMARK    3  A    between atoms: C_11  and  C_13
REMARK                            x       y       z     vdW  Elec       q    Type
REMARK                         _______ _______ _______ _____ _____    ______ ____
ROOT
ATOM      1  N   UNL     1       0.025   1.063   2.760  0.00  0.00    -0.178 NA
ATOM      2  C   UNL     1      -0.295  -0.251   3.334  0.00  0.00    +0.128 C 
ATOM      3  C   UNL     1       0.972  -1.122   3.289  0.00  0.00    +0.125 C 
ATOM      4  N   UNL     1       2.089  -0.354   3.857  0.00  0.00    -0.297 N 
ATOM      5  C   UNL     1       2.405   0.963   3.286  0.00  0.00    +0.125 C 
ATOM      6  C   UNL     1       1.142   1.832   3.328  0.00  0.00    +0.128 C 
ATOM      7  C   UNL     1       2.811  -0.848   4.882  0.00  0.00    +0.245 C 
ATOM      8  O   UNL     1       3.730  -0.205   5.342  0.00  0.00    -0.273 OA
ENDROOT
BRANCH   7   9
ATOM      9  C   UNL     1       2.475  -2.200   5.457  0.00  0.00    +0.204 C 
ATOM     10  C   UNL     1       1.079  -2.157   6.116  0.00  0.00    +0.043 C 
ATOM     11  C   UNL     1       1.287  -3.028   7.385  0.00  0.00    +0.031 C 
ATOM     12  C   UNL     1       2.757  -2.688   7.738  0.00  0.00    +0.161 C 
ATOM     13  O   UNL     1       3.423  -2.545   6.474  0.00  0.00    -0.367 OA
ENDBRANCH   7   9
BRANCH   1  15
ATOM     14  C   UNL     1      -0.013   1.086   0.008  0.00  0.00    +0.215 C 
ATOM     15  S   UNL     1      -0.862   1.671   1.500  0.00  0.00    +0.029 S 
ATOM     16  O   UNL     1      -0.735   3.082   1.615  0.00  0.00    -0.158 OA
ATOM     17  O   UNL     1      -2.133   1.046   1.617  0.00  0.00    -0.158 OA
ENDBRANCH   1  15
TORSDOF 2
