REMARK  Name = ZINC44900151
REMARK  8 active torsions:
REMARK  status: ('A' for Active; 'I' for Inactive)
REMARK    1  A    between atoms: C_1  and  C_2
REMARK    2  A    between atoms: N_6  and  C_7
REMARK    3  A    between atoms: C_12  and  C_13
REMARK    4  A    between atoms: C_13  and  N_14
REMARK    5  A    between atoms: C_15  and  C_17
REMARK    6  A    between atoms: C_17  and  C_19
REMARK    7  A    between atoms: C_17  and  O_20
REMARK    8  A    between atoms: O_20  and  C_21
REMARK                            x       y       z     vdW  Elec       q    Type
REMARK                         _______ _______ _______ _____ _____    ______ ____
ROOT
ATOM      1  N   UNL     1      -3.296  -0.280   2.154  0.00  0.00    -0.308 N 
ATOM      2  C   UNL     1      -4.345  -0.412   1.318  0.00  0.00    +0.254 C 
ATOM      3  O   UNL     1      -4.632   0.489   0.558  0.00  0.00    -0.272 OA
ATOM      4  H   UNL     1      -3.067  -1.000   2.762  0.00  0.00    +0.149 HD
ENDROOT
BRANCH   2   5
ATOM      5  C   UNL     1      -5.161  -1.679   1.327  0.00  0.00    +0.255 C 
ATOM      6  C   UNL     1      -4.292  -2.849   0.862  0.00  0.00    +0.062 C 
BRANCH   5   7
ATOM      7  O   UNL     1      -6.276  -1.533   0.446  0.00  0.00    -0.480 OA
BRANCH   7   8
ATOM      8  C   UNL     1      -7.364  -2.309   0.694  0.00  0.00    +0.122 A 
ATOM      9  C   UNL     1      -7.308  -3.272   1.706  0.00  0.00    +0.046 A 
ATOM     10  C   UNL     1      -8.380  -4.063   1.978  0.00  0.00    +0.012 A 
ATOM     11  C   UNL     1      -9.564  -3.914   1.234  0.00  0.00    -0.018 A 
ATOM     12  C   UNL     1     -10.690  -4.714   1.488  0.00  0.00    +0.008 A 
ATOM     13  C   UNL     1     -11.820  -4.543   0.749  0.00  0.00    +0.001 A 
ATOM     14  C   UNL     1     -11.878  -3.584  -0.261  0.00  0.00    +0.001 A 
ATOM     15  C   UNL     1     -10.806  -2.791  -0.536  0.00  0.00    +0.008 A 
ATOM     16  C   UNL     1      -9.622  -2.938   0.207  0.00  0.00    -0.014 A 
ATOM     17  C   UNL     1      -8.499  -2.134  -0.045  0.00  0.00    +0.054 A 
ENDBRANCH   7   8
ENDBRANCH   5   7
ENDBRANCH   2   5
BRANCH   1  18
ATOM     18  C   UNL     1      -2.503   0.952   2.145  0.00  0.00    +0.141 C 
BRANCH  18  24
ATOM     19  C   UNL     1      -0.241   0.140   2.865  0.00  0.00    +0.052 A 
ATOM     20  C   UNL     1       0.776   0.048   3.805  0.00  0.00    +0.026 A 
ATOM     21  C   UNL     1       0.632   0.655   5.037  0.00  0.00    +0.002 A 
ATOM     22  C   UNL     1      -0.523   1.353   5.335  0.00  0.00    +0.000 A 
ATOM     23  C   UNL     1      -1.539   1.446   4.401  0.00  0.00    +0.007 A 
ATOM     24  C   UNL     1      -1.398   0.846   3.165  0.00  0.00    -0.006 A 
BRANCH  19  30
ATOM     25  C   UNL     1      -0.077   1.641   0.188  0.00  0.00    +0.084 C 
ATOM     26  C   UNL     1      -0.022   0.151   0.410  0.00  0.00    +0.088 A 
ATOM     27  N   UNL     1       0.113  -0.753  -0.522  0.00  0.00    -0.350 N 
ATOM     28  C   UNL     1       0.121  -1.971   0.039  0.00  0.00    +0.102 A 
ATOM     29  C   UNL     1      -0.013  -1.822   1.371  0.00  0.00    +0.110 A 
ATOM     30  N   UNL     1      -0.098  -0.475   1.613  0.00  0.00    -0.305 N 
ATOM     31  H   UNL     1       0.193  -0.572  -1.472  0.00  0.00    +0.166 HD
ENDBRANCH  19  30
ENDBRANCH  18  24
ENDBRANCH   1  18
TORSDOF 6
