REMARK  Name = ZINC43188679
REMARK  12 active torsions:
REMARK  status: ('A' for Active; 'I' for Inactive)
REMARK    1  A    between atoms: C_1  and  C_2
REMARK    2  A    between atoms: C_2  and  C_3
REMARK    3  A    between atoms: C_3  and  N_4
REMARK    4  A    between atoms: N_4  and  C_5
REMARK    5  A    between atoms: C_5  and  C_6
REMARK    6  A    between atoms: N_21  and  C_22
REMARK    7  A    between atoms: C_22  and  C_23
REMARK    8  A    between atoms: C_23  and  C_24
REMARK    9  A    between atoms: C_23  and  C_25
REMARK   10  A    between atoms: C_23  and  N_26
REMARK   11  A    between atoms: N_26  and  C_27
REMARK   12  A    between atoms: N_26  and  C_28
REMARK                            x       y       z     vdW  Elec       q    Type
REMARK                         _______ _______ _______ _____ _____    ______ ____
ROOT
ATOM      1  N   UNL     1       0.738  -1.962  -1.265  0.00  0.00    -0.278 N 
ATOM      2  C   UNL     1       1.764  -2.626  -0.695  0.00  0.00    +0.303 C 
ATOM      3  O   UNL     1       1.780  -3.841  -0.701  0.00  0.00    -0.253 OA
ATOM      4  N   UNL     1       2.771  -1.941  -0.117  0.00  0.00    -0.301 N 
ATOM      5  H   UNL     1       2.757  -0.971  -0.112  0.00  0.00    +0.150 HD
ENDROOT
BRANCH   1   6
ATOM      6  C   UNL     1       0.718  -0.497  -1.257  0.00  0.00    +0.109 C 
BRANCH   6   8
ATOM      7  C   UNL     1      -0.019   1.526   0.010  0.00  0.00    +0.005 C 
ATOM      8  C   UNL     1       0.002  -0.004   0.002  0.00  0.00    +0.016 C 
ENDBRANCH   6   8
ENDBRANCH   1   6
BRANCH   1   9
ATOM      9  C   UNL     1      -0.357  -2.706  -1.893  0.00  0.00    +0.183 C 
BRANCH   9  10
ATOM     10  C   UNL     1      -0.033  -2.945  -3.345  0.00  0.00    +0.128 A 
ATOM     11  N   UNL     1      -0.936  -3.620  -4.104  0.00  0.00    -0.309 N 
ATOM     12  H   UNL     1      -1.763  -3.932  -3.703  0.00  0.00    +0.170 HD
ATOM     13  C   UNL     1      -0.694  -3.860  -5.414  0.00  0.00    +0.259 A 
ATOM     14  O   UNL     1      -1.494  -4.463  -6.105  0.00  0.00    -0.267 OA
ATOM     15  C   UNL     1       0.574  -3.364  -5.969  0.00  0.00    +0.065 A 
ATOM     16  C   UNL     1       0.920  -3.559  -7.305  0.00  0.00    +0.017 A 
ATOM     17  C   UNL     1       2.111  -3.077  -7.772  0.00  0.00    +0.021 A 
ATOM     18  C   UNL     1       2.981  -2.396  -6.928  0.00  0.00    +0.043 A 
ATOM     19  C   UNL     1       2.663  -2.191  -5.603  0.00  0.00    +0.048 A 
ATOM     20  C   UNL     1       1.451  -2.673  -5.104  0.00  0.00    +0.080 A 
ATOM     21  N   UNL     1       1.091  -2.491  -3.809  0.00  0.00    -0.232 NA
ATOM     22 CL   UNL     1       4.487  -1.797  -7.551  0.00  0.00    -0.083 Cl
ENDBRANCH   9  10
ENDBRANCH   1   9
BRANCH   4  23
ATOM     23  C   UNL     1       3.885  -2.662   0.503  0.00  0.00    +0.093 C 
BRANCH  23  24
ATOM     24  C   UNL     1       4.884  -1.657   1.080  0.00  0.00    -0.056 C 
ATOM     25  C   UNL     1       6.048  -2.410   1.728  0.00  0.00    -0.008 C 
ATOM     26  C   UNL     1       5.416  -0.764  -0.042  0.00  0.00    -0.008 C 
BRANCH  24  27
ATOM     27  N   UNL     1       4.215  -0.827   2.091  0.00  0.00    +0.380 N 
ATOM     28  C   UNL     1       3.705  -1.685   3.169  0.00  0.00    -0.096 C 
ATOM     29  C   UNL     1       5.175   0.137   2.645  0.00  0.00    -0.096 C 
ATOM     30  H   UNL     1       3.448  -0.331   1.664  0.00  0.00    -0.082 HD
ENDBRANCH  24  27
ENDBRANCH  23  24
ENDBRANCH   4  23
TORSDOF 7
