REMARK  Name = ZINC08550577
REMARK  5 active torsions:
REMARK  status: ('A' for Active; 'I' for Inactive)
REMARK    1  A    between atoms: C_1  and  C_2
REMARK    2  A    between atoms: C_5  and  C_8
REMARK    3  A    between atoms: C_11  and  S_14
REMARK    4  A    between atoms: S_14  and  C_15
REMARK    5  A    between atoms: C_15  and  C_16
REMARK                            x       y       z     vdW  Elec       q    Type
REMARK                         _______ _______ _______ _____ _____    ______ ____
ROOT
ATOM      1  C   UNL     1       0.059  -4.256  -0.021  0.00  0.00    +0.182 A 
ATOM      2  N   UNL     1       0.075  -5.042   1.065  0.00  0.00    -0.201 NA
ATOM      3  H   UNL     1       0.091  -7.142  -1.209  0.00  0.00    +0.191 HD
ATOM      4  C   UNL     1       0.089  -6.304   0.698  0.00  0.00    +0.185 A 
ATOM      5  N   UNL     1       0.083  -6.347  -0.653  0.00  0.00    -0.253 N 
ATOM      6  N   UNL     1       0.058  -5.014  -1.094  0.00  0.00    -0.152 NA
ENDROOT
BRANCH   1  11
ATOM      7  C   UNL     1      -0.018   1.503   0.010  0.00  0.00    +0.044 C 
ATOM      8  C   UNL     1       0.002  -0.004   0.002  0.00  0.00    -0.050 A 
ATOM      9  C   UNL     1       0.006  -0.686  -1.201  0.00  0.00    +0.004 A 
ATOM     10  C   UNL     1       0.024  -2.067  -1.215  0.00  0.00    +0.012 A 
ATOM     11  C   UNL     1       0.040  -2.772  -0.013  0.00  0.00    +0.021 A 
ATOM     12  C   UNL     1       0.036  -2.080   1.196  0.00  0.00    +0.012 A 
ATOM     13  C   UNL     1       0.023  -0.700   1.198  0.00  0.00    +0.004 A 
ENDBRANCH   1  11
BRANCH   4  14
ATOM     14  S   UNL     1       0.114  -7.696   1.777  0.00  0.00    -0.079 S 
BRANCH  14  15
ATOM     15  C   UNL     1       0.112  -6.965   3.437  0.00  0.00    +0.151 C 
BRANCH  15  16
ATOM     16  C   UNL     1       0.132  -8.062   4.470  0.00  0.00    +0.121 A 
ATOM     17  N   UNL     1       0.129  -7.713   5.784  0.00  0.00    -0.309 N 
ATOM     18  H   UNL     1       0.114  -6.778   6.042  0.00  0.00    +0.170 HD
ATOM     19  C   UNL     1       0.147  -8.684   6.729  0.00  0.00    +0.266 A 
ATOM     20  O   UNL     1       0.144  -8.403   7.915  0.00  0.00    -0.267 OA
ATOM     21  C   UNL     1       0.168 -10.013   6.305  0.00  0.00    +0.102 A 
ATOM     22  C   UNL     1       0.171 -10.347   4.940  0.00  0.00    +0.085 A 
ATOM     23  N   UNL     1       0.146  -9.290   4.063  0.00  0.00    -0.232 NA
ATOM     24  C   UNL     1       0.193 -11.719   4.654  0.00  0.00    +0.036 A 
ATOM     25  C   UNL     1       0.209 -12.622   5.658  0.00  0.00    +0.048 A 
ATOM     26  S   UNL     1       0.195 -11.590   7.115  0.00  0.00    -0.090 S 
ENDBRANCH  15  16
ENDBRANCH  14  15
ENDBRANCH   4  14
TORSDOF 4
