REMARK  Name = ZINC63686326
REMARK  9 active torsions:
REMARK  status: ('A' for Active; 'I' for Inactive)
REMARK    1  A    between atoms: C_1  and  C_2
REMARK    2  A    between atoms: C_5  and  N_8
REMARK    3  A    between atoms: C_11  and  C_30
REMARK    4  A    between atoms: C_13  and  N_16
REMARK    5  A    between atoms: C_17  and  C_19
REMARK    6  A    between atoms: C_21  and  C_29
REMARK    7  A    between atoms: C_22  and  C_26
REMARK    8  A    between atoms: C_23  and  C_25
REMARK    9  A    between atoms: C_26  and  C_28
REMARK                            x       y       z     vdW  Elec       q    Type
REMARK                         _______ _______ _______ _____ _____    ______ ____
ROOT
ATOM      1  N   UNL     1       0.229  -4.102  -0.039  0.00  0.00    -0.226 NA
ATOM      2  C   UNL     1       1.025  -4.769   0.766  0.00  0.00    +0.157 C 
ATOM      3  N   UNL     1       1.919  -4.264   1.680  0.00  0.00    -0.310 N 
ATOM      4  C   UNL     1       2.957  -5.125   2.211  0.00  0.00    +0.189 C 
ATOM      5  C   UNL     1       2.878  -6.571   1.666  0.00  0.00    +0.168 C 
ATOM      6  S   UNL     1       1.186  -6.541   0.931  0.00  0.00    -0.066 S 
ATOM      7  H   UNL     1       1.856  -3.339   1.966  0.00  0.00    +0.149 HD
ENDROOT
BRANCH   1  12
ATOM      8  C   UNL     1       0.264   1.544  -0.004  0.00  0.00    +0.044 C 
ATOM      9  C   UNL     1       0.255   0.037  -0.014  0.00  0.00    -0.050 A 
ATOM     10  C   UNL     1       0.259  -0.644  -1.218  0.00  0.00    +0.005 A 
ATOM     11  C   UNL     1       0.250  -2.023  -1.234  0.00  0.00    +0.028 A 
ATOM     12  C   UNL     1       0.238  -2.732  -0.031  0.00  0.00    +0.067 A 
ATOM     13  C   UNL     1       0.234  -2.038   1.181  0.00  0.00    +0.028 A 
ATOM     14  C   UNL     1       0.248  -0.659   1.182  0.00  0.00    +0.005 A 
ENDBRANCH   1  12
BRANCH   4  15
ATOM     15  C   UNL     1       4.301  -4.546   1.850  0.00  0.00    +0.233 C 
ATOM     16  O   UNL     1       4.390  -3.734   0.954  0.00  0.00    -0.274 OA
ATOM     17  N   UNL     1       5.403  -4.931   2.523  0.00  0.00    -0.328 N 
ATOM     18  H   UNL     1       5.332  -5.581   3.240  0.00  0.00    +0.145 HD
ATOM     19  H   UNL     1       6.268  -4.558   2.291  0.00  0.00    +0.145 HD
ENDBRANCH   4  15
BRANCH   5  20
ATOM     20  N   UNL     1       2.968  -7.554   2.749  0.00  0.00    -0.299 N 
ATOM     21  C   UNL     1       2.123  -8.603   2.778  0.00  0.00    +0.243 C 
ATOM     22  O   UNL     1       1.288  -8.734   1.908  0.00  0.00    -0.273 OA
ATOM     23  H   UNL     1       3.636  -7.449   3.444  0.00  0.00    +0.150 HD
BRANCH  21  24
ATOM     24  C   UNL     1       2.216  -9.614   3.891  0.00  0.00    +0.217 C 
ATOM     25  C   UNL     1       3.323 -10.606   3.607  0.00  0.00    -0.028 C 
ATOM     26  C   UNL     1       2.721 -11.815   3.533  0.00  0.00    +0.039 C 
ATOM     27  C   UNL     1       1.277 -11.645   3.757  0.00  0.00    +0.045 C 
ATOM     28  N   UNL     1       0.982 -10.405   3.962  0.00  0.00    -0.271 NA
ATOM     29  C   UNL     1       0.275 -12.770   3.751  0.00  0.00    +0.066 C 
ATOM     30  C   UNL     1       4.791 -10.307   3.440  0.00  0.00    +0.042 C 
BRANCH  26  31
ATOM     31  C   UNL     1       3.401 -13.092   3.271  0.00  0.00    +0.162 C 
ATOM     32  O   UNL     1       3.926 -13.290   2.196  0.00  0.00    -0.292 OA
ATOM     33  C   UNL     1       3.443 -14.156   4.338  0.00  0.00    +0.091 C 
ENDBRANCH  26  31
ENDBRANCH  21  24
ENDBRANCH   5  20
TORSDOF 5
