REMARK  Name = ZINC08780959
REMARK  9 active torsions:
REMARK  status: ('A' for Active; 'I' for Inactive)
REMARK    1  A    between atoms: C_1  and  C_2
REMARK    2  A    between atoms: C_4  and  C_15
REMARK    3  A    between atoms: C_5  and  C_14
REMARK    4  A    between atoms: N_6  and  C_7
REMARK    5  A    between atoms: N_16  and  N_17
REMARK    6  A    between atoms: C_18  and  C_20
REMARK    7  A    between atoms: C_23  and  C_26
REMARK    8  A    between atoms: C_26  and  N_70
REMARK    9  A    between atoms: N_29  and  C_32
REMARK                            x       y       z     vdW  Elec       q    Type
REMARK                         _______ _______ _______ _____ _____    ______ ____
ROOT
ATOM      1  N   UNL     1      -0.980   7.610  -7.024  0.00  0.00    -0.203 N 
ATOM      2  C   UNL     1      -1.779   7.369  -5.966  0.00  0.00    +0.263 C 
ATOM      3  O   UNL     1      -2.977   7.555  -6.053  0.00  0.00    -0.268 OA
ATOM      4  H   UNL     1      -0.024   7.462  -6.955  0.00  0.00    +0.178 HD
ENDROOT
BRANCH   2   5
ATOM      5  C   UNL     1      -1.197   6.878  -4.699  0.00  0.00    +0.038 A 
ATOM      6  C   UNL     1      -2.022   6.627  -3.600  0.00  0.00    +0.013 A 
ATOM      7  C   UNL     1      -1.473   6.169  -2.421  0.00  0.00    +0.002 A 
ATOM      8  C   UNL     1      -0.109   5.957  -2.325  0.00  0.00    -0.064 A 
ATOM      9  C   UNL     1       0.715   6.209  -3.408  0.00  0.00    +0.002 A 
ATOM     10  C   UNL     1       0.178   6.663  -4.595  0.00  0.00    +0.013 A 
BRANCH   8  11
ATOM     11  C   UNL     1       0.484   5.456  -1.033  0.00  0.00    -0.043 C 
BRANCH  11  17
ATOM     12  C   UNL     1       1.285   3.464   0.089  0.00  0.00    -0.059 C 
ATOM     13  C   UNL     1       1.348   1.938  -0.000  0.00  0.00    +0.086 C 
ATOM     14  N   UNL     1      -0.017   1.393   0.010  0.00  0.00    -0.333 N 
ATOM     15  C   UNL     1      -0.798   1.915  -1.120  0.00  0.00    +0.086 C 
ATOM     16  C   UNL     1      -0.861   3.442  -1.031  0.00  0.00    -0.059 C 
ATOM     17  N   UNL     1       0.516   3.978  -1.065  0.00  0.00    +0.384 N 
ATOM     18  H   UNL     1       0.972   3.672  -1.932  0.00  0.00    -0.081 HD
BRANCH  14  19
ATOM     19  C   UNL     1       0.002  -0.004   0.002  0.00  0.00    +0.030 A 
ATOM     20  C   UNL     1       1.213  -0.684  -0.019  0.00  0.00    +0.023 A 
ATOM     21  C   UNL     1       1.229  -2.065  -0.022  0.00  0.00    +0.002 A 
ATOM     22  C   UNL     1       0.040  -2.771  -0.014  0.00  0.00    +0.000 A 
ATOM     23  C   UNL     1      -1.168  -2.097   0.002  0.00  0.00    +0.002 A 
ATOM     24  C   UNL     1      -1.190  -0.717   0.010  0.00  0.00    +0.023 A 
ENDBRANCH  14  19
ENDBRANCH  11  17
ENDBRANCH   8  11
ENDBRANCH   2   5
BRANCH   1  26
ATOM     25  C   UNL     1      -0.762   8.308  -9.245  0.00  0.00    +0.140 C 
ATOM     26  N   UNL     1      -1.531   8.076  -8.226  0.00  0.00    -0.187 NA
BRANCH  25  30
ATOM     27  C   UNL     1      -1.259   9.945 -14.055  0.00  0.00    +0.064 C 
ATOM     28  C   UNL     1      -1.540   9.518 -12.637  0.00  0.00    +0.022 A 
ATOM     29  C   UNL     1      -0.619   9.107 -11.747  0.00  0.00    +0.032 A 
ATOM     30  C   UNL     1      -1.342   8.798 -10.509  0.00  0.00    +0.016 A 
ATOM     31  C   UNL     1      -2.660   9.048 -10.763  0.00  0.00    +0.030 A 
ATOM     32  N   UNL     1      -2.771   9.487 -12.046  0.00  0.00    -0.317 N 
ATOM     33  C   UNL     1      -3.796   8.872  -9.789  0.00  0.00    +0.064 C 
BRANCH  32  34
ATOM     34  C   UNL     1      -3.972   9.849 -12.671  0.00  0.00    +0.048 A 
ATOM     35  C   UNL     1      -4.449   9.107 -13.744  0.00  0.00    +0.026 A 
ATOM     36  C   UNL     1      -5.633   9.465 -14.358  0.00  0.00    +0.003 A 
ATOM     37  C   UNL     1      -6.345  10.561 -13.905  0.00  0.00    +0.020 A 
ATOM     38  C   UNL     1      -5.873  11.302 -12.836  0.00  0.00    +0.043 A 
ATOM     39  C   UNL     1      -4.690  10.946 -12.215  0.00  0.00    +0.046 A 
ATOM     40 CL   UNL     1      -6.770  12.677 -12.271  0.00  0.00    -0.083 Cl
ENDBRANCH  32  34
ENDBRANCH  25  30
ENDBRANCH   1  26
TORSDOF 7
