REMARK  Name = ZINC39211849
REMARK  7 active torsions:
REMARK  status: ('A' for Active; 'I' for Inactive)
REMARK    1  A    between atoms: C_1  and  C_2
REMARK    2  A    between atoms: C_4  and  C_12
REMARK    3  A    between atoms: C_12  and  C_13
REMARK    4  A    between atoms: C_13  and  N_14
REMARK    5  A    between atoms: N_14  and  C_15
REMARK    6  A    between atoms: C_17  and  C_32
REMARK    7  A    between atoms: N_19  and  C_22
REMARK                            x       y       z     vdW  Elec       q    Type
REMARK                         _______ _______ _______ _____ _____    ______ ____
ROOT
ATOM      1  C   UNL     1      -4.411   3.792   2.555  0.00  0.00    +0.082 C 
ATOM      2  C   UNL     1      -5.330   3.627   3.577  0.00  0.00    +0.084 C 
ATOM      3  C   UNL     1      -5.747   4.622   4.576  0.00  0.00    +0.175 C 
ATOM      4  N   UNL     1      -6.623   4.059   5.349  0.00  0.00    -0.170 NA
ATOM      5  N   UNL     1      -6.858   2.737   4.970  0.00  0.00    -0.158 N 
ATOM      6  C   UNL     1      -6.106   2.422   3.897  0.00  0.00    +0.272 C 
ATOM      7  O   UNL     1      -6.074   1.352   3.312  0.00  0.00    -0.268 OA
ENDROOT
BRANCH   5   8
ATOM      8  C   UNL     1      -7.792   1.826   5.638  0.00  0.00    +0.249 C 
ATOM      9  N   UNL     1      -9.148   2.390   5.672  0.00  0.00    -0.315 N 
ATOM     10  C   UNL     1      -9.710   2.640   6.922  0.00  0.00    +0.043 A 
ATOM     11  C   UNL     1     -10.991   3.175   7.152  0.00  0.00    +0.024 A 
ATOM     12  C   UNL     1     -11.456   3.386   8.428  0.00  0.00    +0.002 A 
ATOM     13  C   UNL     1     -10.681   3.078   9.531  0.00  0.00    +0.001 A 
ATOM     14  C   UNL     1      -9.416   2.549   9.336  0.00  0.00    +0.016 A 
ATOM     15  C   UNL     1      -8.951   2.339   8.057  0.00  0.00    +0.032 A 
ATOM     16  S   UNL     1      -7.416   1.692   7.431  0.00  0.00    -0.080 S 
ATOM     17  H   UNL     1      -9.633   2.582   4.854  0.00  0.00    +0.149 HD
ENDBRANCH   5   8
BRANCH   3  18
ATOM     18  C   UNL     1      -5.246   6.040   4.684  0.00  0.00    +0.436 C 
ATOM     19  F   UNL     1      -5.875   6.676   5.759  0.00  0.00    -0.164 F 
ATOM     20  F   UNL     1      -3.862   6.030   4.892  0.00  0.00    -0.164 F 
ATOM     21  F   UNL     1      -5.535   6.727   3.500  0.00  0.00    -0.164 F 
ENDBRANCH   3  18
BRANCH   1  22
ATOM     22  N   UNL     1      -4.146   2.770   1.715  0.00  0.00    -0.349 N 
ATOM     23  H   UNL     1      -4.599   1.920   1.827  0.00  0.00    +0.146 HD
BRANCH  22  24
ATOM     24  C   UNL     1      -3.174   2.945   0.633  0.00  0.00    +0.106 C 
BRANCH  24  25
ATOM     25  C   UNL     1      -3.061   1.645  -0.166  0.00  0.00    +0.056 C 
BRANCH  25  29
ATOM     26  C   UNL     1      -0.013   1.086   0.008  0.00  0.00    +0.063 C 
ATOM     27  C   UNL     1      -0.742   1.585  -1.213  0.00  0.00    +0.017 A 
ATOM     28  H   UNL     1       0.790   1.775  -2.611  0.00  0.00    +0.166 HD
ATOM     29  C   UNL     1      -2.061   1.824  -1.279  0.00  0.00    -0.018 A 
ATOM     30  C   UNL     1      -2.344   2.292  -2.638  0.00  0.00    +0.003 A 
ATOM     31  C   UNL     1      -3.503   2.692  -3.304  0.00  0.00    +0.010 A 
ATOM     32  C   UNL     1      -3.433   3.085  -4.611  0.00  0.00    +0.001 A 
ATOM     33  C   UNL     1      -2.218   3.091  -5.281  0.00  0.00    +0.002 A 
ATOM     34  C   UNL     1      -1.061   2.701  -4.642  0.00  0.00    +0.026 A 
ATOM     35  C   UNL     1      -1.109   2.296  -3.312  0.00  0.00    +0.047 A 
ATOM     36  N   UNL     1      -0.156   1.867  -2.417  0.00  0.00    -0.358 N 
ENDBRANCH  25  29
ENDBRANCH  24  25
ENDBRANCH  22  24
ENDBRANCH   1  22
TORSDOF 6
