REMARK  Name = ZINC23383021
REMARK  8 active torsions:
REMARK  status: ('A' for Active; 'I' for Inactive)
REMARK    1  A    between atoms: C_1  and  O_2
REMARK    2  A    between atoms: O_2  and  C_3
REMARK    3  A    between atoms: C_9  and  O_32
REMARK    4  A    between atoms: C_10  and  C_13
REMARK    5  A    between atoms: C_13  and  N_14
REMARK    6  A    between atoms: N_17  and  S_20
REMARK    7  A    between atoms: S_20  and  C_23
REMARK    8  A    between atoms: C_26  and  N_29
REMARK                            x       y       z     vdW  Elec       q    Type
REMARK                         _______ _______ _______ _____ _____    ______ ____
ROOT
ATOM      1  N   UNL     1      -2.981   2.994  -2.793  0.00  0.00    -0.295 NA
ATOM      2  C   UNL     1      -2.076   3.886  -2.056  0.00  0.00    +0.102 C 
ATOM      3  C   UNL     1      -0.706   3.213  -1.915  0.00  0.00    +0.125 C 
ATOM      4  N   UNL     1      -0.897   1.885  -1.312  0.00  0.00    -0.174 NA
ATOM      5  C   UNL     1      -1.887   0.982  -1.919  0.00  0.00    +0.125 C 
ATOM      6  C   UNL     1      -3.215   1.745  -2.057  0.00  0.00    +0.102 C 
ENDROOT
BRANCH   4   7
ATOM      7  S   UNL     1      -0.017   1.417   0.010  0.00  0.00    +0.061 S 
ATOM      8  O   UNL     1       0.002  -0.004   0.002  0.00  0.00    -0.153 OA
ATOM      9  O   UNL     1       1.172   2.195   0.003  0.00  0.00    -0.153 OA
BRANCH   7  10
ATOM     10  C   UNL     1      -0.927   1.900   1.439  0.00  0.00    +0.106 A 
ATOM     11  C   UNL     1      -0.717   3.145   2.004  0.00  0.00    +0.031 A 
ATOM     12  C   UNL     1      -1.434   3.526   3.123  0.00  0.00    +0.034 A 
ATOM     13  C   UNL     1      -2.353   2.659   3.683  0.00  0.00    +0.126 A 
ATOM     14  C   UNL     1      -2.559   1.412   3.121  0.00  0.00    +0.034 A 
ATOM     15  C   UNL     1      -1.846   1.033   2.000  0.00  0.00    +0.031 A 
BRANCH  13  16
ATOM     16  N   UNL     1      -3.117   3.065   4.884  0.00  0.00    +0.056 N 
ATOM     17  O   UNL     1      -3.928   2.301   5.377  0.00  0.00    -0.126 OA
ATOM     18  O   UNL     1      -2.936   4.163   5.379  0.00  0.00    -0.126 OA
ENDBRANCH  13  16
ENDBRANCH   7  10
ENDBRANCH   4   7
BRANCH   1  19
ATOM     19  C   UNL     1      -4.250   3.669  -3.100  0.00  0.00    +0.124 C 
BRANCH  19  27
ATOM     20  C   UNL     1      -4.589   2.814  -7.257  0.00  0.00    +0.121 A 
ATOM     21  C   UNL     1      -5.513   1.877  -7.730  0.00  0.00    +0.046 A 
ATOM     22  C   UNL     1      -6.325   1.202  -6.872  0.00  0.00    +0.012 A 
ATOM     23  C   UNL     1      -6.249   1.458  -5.492  0.00  0.00    -0.017 A 
ATOM     24  C   UNL     1      -7.085   0.789  -4.582  0.00  0.00    +0.012 A 
ATOM     25  C   UNL     1      -6.988   1.059  -3.252  0.00  0.00    +0.046 A 
ATOM     26  C   UNL     1      -6.066   1.996  -2.775  0.00  0.00    +0.122 A 
ATOM     27  C   UNL     1      -5.238   2.663  -3.631  0.00  0.00    +0.016 A 
ATOM     28  C   UNL     1      -5.317   2.412  -5.011  0.00  0.00    -0.007 A 
ATOM     29  C   UNL     1      -4.485   3.083  -5.922  0.00  0.00    +0.054 A 
BRANCH  20  31
ATOM     30  C   UNL     1      -3.939   3.140  -9.520  0.00  0.00    +0.277 C 
ATOM     31  O   UNL     1      -3.784   3.465  -8.137  0.00  0.00    -0.495 OA
ENDBRANCH  20  31
BRANCH  26  32
ATOM     32  O   UNL     1      -5.992   2.244  -1.441  0.00  0.00    -0.506 OA
ATOM     33  H   UNL     1      -5.269   2.979  -1.057  0.00  0.00    +0.292 HD
ENDBRANCH  26  32
ENDBRANCH  19  27
ENDBRANCH   1  19
TORSDOF 7
