REMARK  Name = ZINC06845663
REMARK  10 active torsions:
REMARK  status: ('A' for Active; 'I' for Inactive)
REMARK    1  A    between atoms: C_1  and  C_2
REMARK    2  A    between atoms: C_5  and  O_8
REMARK    3  A    between atoms: O_8  and  C_9
REMARK    4  A    between atoms: C_9  and  C_11
REMARK    5  A    between atoms: C_9  and  C_12
REMARK    6  A    between atoms: N_14  and  N_15
REMARK    7  A    between atoms: C_16  and  C_18
REMARK    8  A    between atoms: C_21  and  C_29
REMARK    9  A    between atoms: C_22  and  C_28
REMARK   10  A    between atoms: C_24  and  C_26
REMARK                            x       y       z     vdW  Elec       q    Type
REMARK                         _______ _______ _______ _____ _____    ______ ____
ROOT
ATOM      1  N   UNL     1      -1.492   3.283  -0.440  0.00  0.00    -0.234 N 
ATOM      2  C   UNL     1      -2.609   4.037  -0.452  0.00  0.00    +0.233 C 
ATOM      3  O   UNL     1      -3.695   3.514  -0.316  0.00  0.00    -0.274 OA
ATOM      4  H   UNL     1      -0.623   3.701  -0.548  0.00  0.00    +0.173 HD
ENDROOT
BRANCH   2   5
ATOM      5  C   UNL     1      -2.509   5.530  -0.633  0.00  0.00    +0.095 C 
ATOM      6  C   UNL     1      -1.842   5.841  -1.975  0.00  0.00    +0.044 C 
ATOM      7  C   UNL     1      -1.973   7.302  -2.290  0.00  0.00    -0.073 C 
ATOM      8  C   UNL     1      -2.817   8.096  -1.714  0.00  0.00    -0.073 C 
ATOM      9  C   UNL     1      -3.777   7.668  -0.642  0.00  0.00    +0.046 C 
ATOM     10  C   UNL     1      -3.914   6.144  -0.636  0.00  0.00    +0.118 C 
ATOM     11  C   UNL     1      -2.838   9.540  -2.145  0.00  0.00    +0.039 C 
ATOM     12  C   UNL     1      -1.065   7.882  -3.345  0.00  0.00    +0.039 C 
BRANCH  10  13
ATOM     13  C   UNL     1      -4.660   5.708   0.599  0.00  0.00    +0.360 C 
ATOM     14  O   UNL     1      -4.126   4.979   1.402  0.00  0.00    -0.246 OA
ATOM     15  O   UNL     1      -5.918   6.128   0.807  0.00  0.00    -0.246 OA
ENDBRANCH  10  13
ENDBRANCH   2   5
BRANCH   1  18
ATOM     16  C   UNL     1      -0.467   1.142  -0.259  0.00  0.00    +0.270 C 
ATOM     17  O   UNL     1       0.618   1.664  -0.400  0.00  0.00    -0.270 OA
ATOM     18  N   UNL     1      -1.585   1.895  -0.271  0.00  0.00    -0.231 N 
ATOM     19  H   UNL     1      -2.453   1.477  -0.162  0.00  0.00    +0.173 HD
BRANCH  16  20
ATOM     20  C   UNL     1      -0.567  -0.351  -0.077  0.00  0.00    +0.257 C 
ATOM     21  C   UNL     1      -1.303  -0.962  -1.272  0.00  0.00    +0.062 C 
BRANCH  20  22
ATOM     22  O   UNL     1       0.745  -0.909   0.010  0.00  0.00    -0.480 OA
BRANCH  22  27
ATOM     23  C   UNL     1       1.266  -5.802   2.751  0.00  0.00    +0.044 C 
ATOM     24  C   UNL     1       1.127  -4.493   2.018  0.00  0.00    -0.050 A 
ATOM     25  C   UNL     1       2.253  -3.834   1.561  0.00  0.00    +0.007 A 
ATOM     26  C   UNL     1       2.128  -2.634   0.889  0.00  0.00    +0.046 A 
ATOM     27  C   UNL     1       0.871  -2.090   0.672  0.00  0.00    +0.122 A 
ATOM     28  C   UNL     1      -0.258  -2.749   1.136  0.00  0.00    +0.046 A 
ATOM     29  C   UNL     1      -0.128  -3.952   1.803  0.00  0.00    +0.007 A 
ENDBRANCH  22  27
ENDBRANCH  20  22
ENDBRANCH  16  20
ENDBRANCH   1  18
TORSDOF 6
