REMARK  Name = ZINC04399745
REMARK  4 active torsions:
REMARK  status: ('A' for Active; 'I' for Inactive)
REMARK    1  A    between atoms: C_1  and  C_2
REMARK    2  A    between atoms: C_2  and  C_16
REMARK    3  A    between atoms: C_8  and  N_9
REMARK    4  A    between atoms: C_10  and  C_11
REMARK                            x       y       z     vdW  Elec       q    Type
REMARK                         _______ _______ _______ _____ _____    ______ ____
ROOT
ATOM      1  C   UNL     1      -0.019   1.526   0.010  0.00  0.00    +0.023 C 
ATOM      2  C   UNL     1       0.002  -0.004   0.002  0.00  0.00    +0.015 C 
ATOM      3  C   UNL     1       0.761  -0.504  -1.212  0.00  0.00    +0.054 C 
ATOM      4  C   UNL     1       0.957  -2.008  -1.260  0.00  0.00    -0.021 A 
ATOM      5  C   UNL     1       1.008  -2.810  -0.182  0.00  0.00    -0.012 A 
ATOM      6  C   UNL     1       1.308  -4.205  -0.269  0.00  0.00    +0.062 A 
ATOM      7  S   UNL     1       1.547  -4.866  -1.898  0.00  0.00    -0.065 S 
ATOM      8  C   UNL     1       1.329  -3.704  -3.094  0.00  0.00    +0.082 A 
ATOM      9  C   UNL     1       1.063  -2.432  -2.609  0.00  0.00    +0.083 A 
ATOM     10  S   UNL     1       1.431  -5.188   1.128  0.00  0.00    -0.044 S 
ATOM     11  C   UNL     1       0.722  -2.412   1.251  0.00  0.00    +0.106 C 
ATOM     12  S   UNL     1       0.881  -0.622   1.474  0.00  0.00    -0.149 S 
ATOM     13  C   UNL     1      -1.429  -0.545  -0.016  0.00  0.00    +0.023 C 
ENDROOT
BRANCH   8  14
ATOM     14  N   UNL     1       1.408  -3.988  -4.432  0.00  0.00    -0.352 N 
ATOM     15  H   UNL     1       1.597  -4.894  -4.725  0.00  0.00    +0.143 HD
ATOM     16  H   UNL     1       1.276  -3.285  -5.086  0.00  0.00    +0.143 HD
ENDBRANCH   8  14
BRANCH   9  17
ATOM     17  C   UNL     1       0.871  -1.415  -3.599  0.00  0.00    +0.102 C 
ATOM     18  N   UNL     1       0.718  -0.609  -4.384  0.00  0.00    -0.191 NA
ENDBRANCH   9  17
TORSDOF 2
