REMARK  Name = ZINC06197833
REMARK  9 active torsions:
REMARK  status: ('A' for Active; 'I' for Inactive)
REMARK    1  A    between atoms: C_1  and  C_2
REMARK    2  A    between atoms: C_2  and  C_3
REMARK    3  A    between atoms: C_10  and  C_15
REMARK    4  A    between atoms: C_15  and  N_16
REMARK    5  A    between atoms: N_16  and  C_17
REMARK    6  A    between atoms: N_16  and  S_24
REMARK    7  A    between atoms: C_17  and  C_18
REMARK    8  A    between atoms: S_24  and  C_27
REMARK    9  A    between atoms: C_28  and  C_36
REMARK                            x       y       z     vdW  Elec       q    Type
REMARK                         _______ _______ _______ _____ _____    ______ ____
ROOT
ATOM      1  N   UNL     1       3.295   1.155  -1.855  0.00  0.00    -0.168 NA
ENDROOT
BRANCH   1   2
ATOM      2  S   UNL     1       3.279   1.366  -0.212  0.00  0.00    +0.064 S 
ATOM      3  O   UNL     1       2.244   0.534   0.294  0.00  0.00    -0.153 OA
ATOM      4  O   UNL     1       3.310   2.768   0.017  0.00  0.00    -0.153 OA
BRANCH   2   5
ATOM      5  C   UNL     1       4.795   0.720   0.411  0.00  0.00    +0.136 A 
ATOM      6  C   UNL     1       5.034  -0.612   0.362  0.00  0.00    -0.022 A 
ATOM      7  C   UNL     1       6.221  -1.159   0.850  0.00  0.00    +0.007 A 
ATOM      8  C   UNL     1       7.192  -0.381   1.386  0.00  0.00    +0.031 A 
ATOM      9  C   UNL     1       7.010   1.024   1.470  0.00  0.00    +0.102 A 
ATOM     10  C   UNL     1       5.765   1.595   0.964  0.00  0.00    +0.126 A 
ATOM     11  N   UNL     1       5.729   2.919   1.105  0.00  0.00    -0.189 NA
ATOM     12  S   UNL     1       7.084   3.325   1.779  0.00  0.00    +0.117 S 
ATOM     13  N   UNL     1       7.826   1.956   1.958  0.00  0.00    -0.191 NA
ATOM     14  C   UNL     1       3.992  -1.526  -0.229  0.00  0.00    +0.046 C 
ENDBRANCH   2   5
ENDBRANCH   1   2
BRANCH   1  15
ATOM     15  C   UNL     1       2.614   0.003  -2.452  0.00  0.00    +0.150 C 
BRANCH  15  23
ATOM     16  C   UNL     1      -0.927   1.844  -7.181  0.00  0.00    -0.047 A 
ATOM     17  C   UNL     1      -2.091   2.021  -6.444  0.00  0.00    +0.005 A 
ATOM     18  C   UNL     1      -2.110   1.771  -5.089  0.00  0.00    +0.026 A 
ATOM     19  C   UNL     1      -0.953   1.339  -4.450  0.00  0.00    +0.049 A 
ATOM     20  C   UNL     1       0.225   1.161  -5.200  0.00  0.00    -0.001 A 
ATOM     21  C   UNL     1       0.221   1.420  -6.575  0.00  0.00    +0.013 A 
ATOM     22  C   UNL     1       1.440   0.711  -4.517  0.00  0.00    +0.020 A 
ATOM     23  C   UNL     1       1.383   0.472  -3.184  0.00  0.00    +0.033 A 
ATOM     24  C   UNL     1       0.176   0.665  -2.478  0.00  0.00    +0.254 A 
ATOM     25  O   UNL     1       0.147   0.449  -1.279  0.00  0.00    -0.268 OA
ATOM     26  N   UNL     1      -0.943   1.083  -3.095  0.00  0.00    -0.322 N 
ATOM     27  H   UNL     1      -1.781   1.210  -2.564  0.00  0.00    +0.169 HD
BRANCH  16  29
ATOM     28  C   UNL     1      -1.303   0.847  -9.420  0.00  0.00    +0.009 C 
ATOM     29  C   UNL     1      -0.931   2.123  -8.662  0.00  0.00    +0.032 C 
ENDBRANCH  16  29
ENDBRANCH  15  23
ENDBRANCH   1  15
BRANCH   1  30
ATOM     30  C   UNL     1       3.990   2.119  -2.711  0.00  0.00    +0.145 C 
BRANCH  30  31
ATOM     31  C   UNL     1       5.385   1.625  -2.995  0.00  0.00    -0.032 A 
ATOM     32  C   UNL     1       6.426   1.976  -2.157  0.00  0.00    +0.005 A 
ATOM     33  C   UNL     1       7.705   1.518  -2.415  0.00  0.00    +0.000 A 
ATOM     34  C   UNL     1       7.944   0.718  -3.517  0.00  0.00    +0.000 A 
ATOM     35  C   UNL     1       6.903   0.372  -4.358  0.00  0.00    +0.000 A 
ATOM     36  C   UNL     1       5.623   0.825  -4.097  0.00  0.00    +0.005 A 
ENDBRANCH  30  31
ENDBRANCH   1  30
TORSDOF 7
