REMARK  Name = ZINC03563681
REMARK  7 active torsions:
REMARK  status: ('A' for Active; 'I' for Inactive)
REMARK    1  A    between atoms: C_1  and  C_2
REMARK    2  A    between atoms: C_2  and  C_3
REMARK    3  A    between atoms: C_3  and  N_4
REMARK    4  A    between atoms: C_5  and  C_7
REMARK    5  A    between atoms: C_7  and  N_8
REMARK    6  A    between atoms: C_11  and  C_15
REMARK    7  A    between atoms: C_11  and  C_16
REMARK                            x       y       z     vdW  Elec       q    Type
REMARK                         _______ _______ _______ _____ _____    ______ ____
ROOT
ATOM      1  N   UNL     1      -0.698   1.558   1.213  0.00  0.00    -0.215 N 
ATOM      2  C   UNL     1      -0.418   2.719   1.838  0.00  0.00    +0.251 C 
ATOM      3  O   UNL     1       0.418   3.538   1.521  0.00  0.00    -0.272 OA
ATOM      4  C   UNL     1      -1.366   2.788   3.019  0.00  0.00    +0.136 C 
ATOM      5  N   UNL     1      -2.138   1.538   2.917  0.00  0.00    -0.281 N 
ATOM      6  C   UNL     1      -1.677   0.888   1.833  0.00  0.00    +0.310 C 
ATOM      7  O   UNL     1      -2.101  -0.188   1.459  0.00  0.00    -0.252 OA
ATOM      8  C   UNL     1      -2.290   4.002   2.906  0.00  0.00    +0.047 C 
ATOM      9  H   UNL     1      -2.842   1.241   3.514  0.00  0.00    +0.152 HD
ENDROOT
BRANCH   4  10
ATOM     10  C   UNL     1      -0.593   2.830   4.312  0.00  0.00    +0.003 A 
ATOM     11  C   UNL     1      -0.706   1.793   5.219  0.00  0.00    +0.009 A 
ATOM     12  C   UNL     1       0.006   1.828   6.402  0.00  0.00    +0.020 A 
ATOM     13  C   UNL     1       0.825   2.907   6.686  0.00  0.00    +0.042 A 
ATOM     14  C   UNL     1       0.934   3.948   5.782  0.00  0.00    +0.040 A 
ATOM     15  C   UNL     1       0.225   3.909   4.594  0.00  0.00    +0.048 A 
ATOM     16 CL   UNL     1       0.361   5.216   3.459  0.00  0.00    -0.083 Cl
ATOM     17 CL   UNL     1       1.715   2.954   8.175  0.00  0.00    -0.083 Cl
ENDBRANCH   4  10
BRANCH   1  18
ATOM     18  C   UNL     1      -0.013   1.086   0.008  0.00  0.00    +0.213 C 
BRANCH  18  20
ATOM     19  N   UNL     1      -0.288   1.272  -2.443  0.00  0.00    -0.314 N 
ATOM     20  C   UNL     1      -0.742   1.585  -1.213  0.00  0.00    +0.231 C 
ATOM     21  O   UNL     1      -1.736   2.268  -1.088  0.00  0.00    -0.274 OA
ATOM     22  H   UNL     1       0.507   0.726  -2.543  0.00  0.00    +0.149 HD
BRANCH  19  23
ATOM     23  C   UNL     1      -0.997   1.758  -3.630  0.00  0.00    +0.104 C 
BRANCH  23  25
ATOM     24  C   UNL     1      -1.021   1.771  -6.128  0.00  0.00    +0.005 C 
ATOM     25  C   UNL     1      -0.281   1.264  -4.889  0.00  0.00    +0.015 C 
ENDBRANCH  23  25
ENDBRANCH  19  23
ENDBRANCH  18  20
ENDBRANCH   1  18
TORSDOF 5
