REMARK  Name = ZINC45766811
REMARK  7 active torsions:
REMARK  status: ('A' for Active; 'I' for Inactive)
REMARK    1  A    between atoms: C_1  and  C_2
REMARK    2  A    between atoms: C_2  and  C_3
REMARK    3  A    between atoms: C_2  and  C_4
REMARK    4  A    between atoms: C_4  and  C_6
REMARK    5  A    between atoms: C_4  and  N_16
REMARK    6  A    between atoms: C_17  and  C_19
REMARK    7  A    between atoms: C_23  and  N_25
REMARK                            x       y       z     vdW  Elec       q    Type
REMARK                         _______ _______ _______ _____ _____    ______ ____
ROOT
ATOM      1  N   UNL     1      -1.382  -1.998   0.007  0.00  0.00    -0.304 N 
ATOM      2  C   UNL     1      -1.282  -2.664  -1.160  0.00  0.00    +0.245 C 
ATOM      3  O   UNL     1      -1.196  -2.050  -2.205  0.00  0.00    -0.270 OA
ATOM      4  H   UNL     1      -1.452  -2.489   0.842  0.00  0.00    +0.150 HD
ENDROOT
BRANCH   2   5
ATOM      5  C   UNL     1      -1.278  -4.143  -1.169  0.00  0.00    +0.038 A 
ATOM      6  C   UNL     1      -1.384  -4.851   0.029  0.00  0.00    +0.013 A 
ATOM      7  C   UNL     1      -1.380  -6.231   0.017  0.00  0.00    +0.003 A 
ATOM      8  C   UNL     1      -1.272  -6.917  -1.178  0.00  0.00    +0.023 A 
ATOM      9  C   UNL     1      -1.167  -6.221  -2.376  0.00  0.00    +0.039 A 
ATOM     10  C   UNL     1      -1.175  -4.835  -2.376  0.00  0.00    +0.036 A 
BRANCH   9  11
ATOM     11  N   UNL     1      -1.057  -6.920  -3.584  0.00  0.00    -0.254 N 
ATOM     12  C   UNL     1      -0.929  -8.379  -3.716  0.00  0.00    +0.134 C 
ATOM     13  C   UNL     1      -0.846  -8.606  -5.238  0.00  0.00    +0.125 C 
ATOM     14  N   UNL     1      -0.937  -7.251  -5.802  0.00  0.00    -0.297 N 
ATOM     15  C   UNL     1      -1.059  -6.366  -4.804  0.00  0.00    +0.307 C 
ATOM     16  O   UNL     1      -1.159  -5.169  -4.989  0.00  0.00    -0.252 OA
ATOM     17  H   UNL     1      -0.916  -7.033  -6.747  0.00  0.00    +0.150 HD
ENDBRANCH   9  11
ENDBRANCH   2   5
BRANCH   1  18
ATOM     18  C   UNL     1      -1.386  -0.533   0.017  0.00  0.00    +0.106 C 
BRANCH  18  19
ATOM     19  C   UNL     1      -2.094  -0.041   1.253  0.00  0.00    -0.023 A 
ATOM     20  C   UNL     1      -1.895  -0.680   2.463  0.00  0.00    +0.009 A 
ATOM     21  C   UNL     1      -2.544  -0.232   3.598  0.00  0.00    +0.050 A 
ATOM     22  C   UNL     1      -3.396   0.860   3.526  0.00  0.00    +0.162 A 
ATOM     23  C   UNL     1      -3.593   1.504   2.311  0.00  0.00    +0.162 A 
ATOM     24  C   UNL     1      -2.936   1.052   1.176  0.00  0.00    +0.055 A 
ATOM     25  O   UNL     1      -4.418   2.583   2.220  0.00  0.00    -0.485 OA
ATOM     26  C   UNL     1      -5.341   2.780   3.297  0.00  0.00    +0.270 C 
ATOM     27  C   UNL     1      -4.580   2.609   4.619  0.00  0.00    +0.270 C 
ATOM     28  O   UNL     1      -4.030   1.288   4.652  0.00  0.00    -0.485 OA
ENDBRANCH  18  19
BRANCH  18  30
ATOM     29  C   UNL     1       0.051   1.510   0.026  0.00  0.00    +0.009 C 
ATOM     30  C   UNL     1       0.055  -0.019   0.016  0.00  0.00    +0.008 C 
ATOM     31  C   UNL     1       0.781  -0.536   1.259  0.00  0.00    +0.009 C 
ENDBRANCH  18  30
ENDBRANCH   1  18
TORSDOF 5
