REMARK  Name = ZINC36531138
REMARK  12 active torsions:
REMARK  status: ('A' for Active; 'I' for Inactive)
REMARK    1  A    between atoms: C_1  and  C_2
REMARK    2  A    between atoms: C_3  and  C_4
REMARK    3  A    between atoms: C_4  and  C_6
REMARK    4  A    between atoms: C_4  and  N_20
REMARK    5  A    between atoms: N_8  and  C_9
REMARK    6  A    between atoms: C_9  and  S_10
REMARK    7  A    between atoms: S_10  and  C_13
REMARK    8  A    between atoms: C_16  and  C_19
REMARK    9  A    between atoms: N_20  and  C_21
REMARK   10  A    between atoms: C_22  and  C_24
REMARK   11  A    between atoms: C_25  and  O_31
REMARK   12  A    between atoms: C_29  and  O_30
REMARK                            x       y       z     vdW  Elec       q    Type
REMARK                         _______ _______ _______ _____ _____    ______ ____
ROOT
ATOM      1  C   UNL     1       1.375   0.099  -2.198  0.00  0.00    +0.185 C 
ENDROOT
BRANCH   1   2
ATOM      2  C   UNL     1       2.724  -0.409  -2.638  0.00  0.00    +0.239 C 
ATOM      3  O   UNL     1       3.684   0.332  -2.628  0.00  0.00    -0.273 OA
ATOM      4  N   UNL     1       2.863  -1.687  -3.042  0.00  0.00    -0.294 N 
ATOM      5  H   UNL     1       2.095  -2.280  -3.050  0.00  0.00    +0.150 HD
BRANCH   4   6
ATOM      6  C   UNL     1       4.174  -2.181  -3.470  0.00  0.00    +0.278 C 
BRANCH   6   7
ATOM      7  S   UNL     1       5.002  -2.988  -2.072  0.00  0.00    +0.013 S 
ATOM      8  O   UNL     1       6.249  -3.529  -2.487  0.00  0.00    -0.168 OA
ATOM      9  O   UNL     1       4.917  -2.170  -0.914  0.00  0.00    -0.168 OA
BRANCH   7  10
ATOM     10  C   UNL     1       4.003  -4.393  -1.705  0.00  0.00    +0.090 A 
ATOM     11  C   UNL     1       2.962  -4.283  -0.802  0.00  0.00    +0.027 A 
ATOM     12  C   UNL     1       2.179  -5.385  -0.513  0.00  0.00    +0.005 A 
ATOM     13  C   UNL     1       2.436  -6.596  -1.128  0.00  0.00    -0.050 A 
ATOM     14  C   UNL     1       3.477  -6.705  -2.032  0.00  0.00    +0.005 A 
ATOM     15  C   UNL     1       4.257  -5.603  -2.323  0.00  0.00    +0.027 A 
ATOM     16  C   UNL     1       1.582  -7.798  -0.813  0.00  0.00    +0.044 C 
ENDBRANCH   7  10
ENDBRANCH   6   7
ENDBRANCH   4   6
ENDBRANCH   1   2
BRANCH   1  17
ATOM     17  N   UNL     1       1.487   1.507  -1.809  0.00  0.00    -0.285 N 
ATOM     18  C   UNL     1       2.293   1.884  -0.646  0.00  0.00    +0.133 C 
ATOM     19  C   UNL     1       0.847   2.456  -2.522  0.00  0.00    +0.254 C 
ATOM     20  O   UNL     1       0.104   2.136  -3.430  0.00  0.00    -0.270 OA
BRANCH  19  21
ATOM     21  C   UNL     1       1.048   3.878  -2.201  0.00  0.00    +0.119 A 
ATOM     22  C   UNL     1       2.059   4.611  -2.840  0.00  0.00    +0.133 A 
ATOM     23  C   UNL     1       2.239   5.949  -2.531  0.00  0.00    +0.046 A 
ATOM     24  C   UNL     1       1.427   6.563  -1.595  0.00  0.00    +0.007 A 
ATOM     25  C   UNL     1       0.428   5.850  -0.959  0.00  0.00    +0.046 A 
ATOM     26  C   UNL     1       0.227   4.513  -1.257  0.00  0.00    +0.133 A 
BRANCH  26  27
ATOM     27  O   UNL     1      -0.758   3.817  -0.635  0.00  0.00    -0.506 OA
ATOM     28  H   UNL     1      -0.502   3.457   0.225  0.00  0.00    +0.292 HD
ENDBRANCH  26  27
BRANCH  22  29
ATOM     29  O   UNL     1       2.857   4.011  -3.759  0.00  0.00    -0.506 OA
ATOM     30  H   UNL     1       2.522   4.061  -4.664  0.00  0.00    +0.292 HD
ENDBRANCH  22  29
ENDBRANCH  19  21
ENDBRANCH   1  17
BRANCH   1  33
ATOM     31  C   UNL     1      -1.090  -1.263  -2.334  0.00  0.00    +0.035 C 
ATOM     32  C   UNL     1      -0.279  -1.294  -1.065  0.00  0.00    -0.032 C 
ATOM     33  C   UNL     1       0.893  -0.710  -1.021  0.00  0.00    +0.000 C 
ENDBRANCH   1  33
TORSDOF 9
