REMARK  Name = ZINC62525552
REMARK  3 active torsions:
REMARK  status: ('A' for Active; 'I' for Inactive)
REMARK    1  A    between atoms: C_1  and  C_2
REMARK    2  A    between atoms: C_6  and  C_9
REMARK    3  A    between atoms: C_12  and  C_15
REMARK                            x       y       z     vdW  Elec       q    Type
REMARK                         _______ _______ _______ _____ _____    ______ ____
ROOT
ATOM      1  C   UNL     1      -0.018   1.503   0.010  0.00  0.00    +0.045 C 
ATOM      2  C   UNL     1       0.002  -0.004   0.002  0.00  0.00    -0.028 A 
ATOM      3  C   UNL     1       0.006  -0.686  -1.201  0.00  0.00    +0.052 A 
ATOM      4  C   UNL     1       0.024  -2.072  -1.214  0.00  0.00    +0.142 A 
ATOM      5  C   UNL     1       0.037  -2.770  -0.009  0.00  0.00    +0.074 A 
ATOM      6  C   UNL     1       0.035  -2.083   1.194  0.00  0.00    -0.008 A 
ATOM      7  C   UNL     1       0.023  -0.699   1.198  0.00  0.00    +0.049 A 
ATOM      8 CL   UNL     1       0.027   0.165   2.703  0.00  0.00    -0.083 Cl
ATOM      9  C   UNL     1       0.052  -2.841   2.497  0.00  0.00    +0.047 C 
ATOM     10  N   UNL     1       0.048  -4.174  -0.017  0.00  0.00    -0.337 N 
ATOM     11  C   UNL     1       0.358  -4.848  -1.290  0.00  0.00    +0.145 C 
ATOM     12  C   UNL     1      -0.387  -4.101  -2.405  0.00  0.00    +0.187 C 
ATOM     13  O   UNL     1       0.032  -2.734  -2.401  0.00  0.00    -0.486 OA
ATOM     14  C   UNL     1      -0.058  -4.737  -3.757  0.00  0.00    +0.053 C 
ATOM     15  H   UNL     1      -0.142  -4.682   0.787  0.00  0.00    +0.146 HD
ENDROOT
TORSDOF 0
