REMARK  Name = ZINC07593923
REMARK  7 active torsions:
REMARK  status: ('A' for Active; 'I' for Inactive)
REMARK    1  A    between atoms: C_1  and  C_2
REMARK    2  A    between atoms: C_5  and  C_8
REMARK    3  A    between atoms: C_8  and  N_9
REMARK    4  A    between atoms: C_11  and  C_16
REMARK    5  A    between atoms: N_18  and  C_19
REMARK    6  A    between atoms: C_22  and  N_27
REMARK    7  A    between atoms: C_24  and  C_25
REMARK                            x       y       z     vdW  Elec       q    Type
REMARK                         _______ _______ _______ _____ _____    ______ ____
ROOT
ATOM      1  N   UNL     1       4.917  -2.973   0.360  0.00  0.00    -0.310 N 
ATOM      2  C   UNL     1       3.743  -2.321   0.273  0.00  0.00    +0.102 A 
ATOM      3  C   UNL     1       3.711  -0.945   0.176  0.00  0.00    +0.053 A 
ATOM      4  C   UNL     1       4.927  -0.220   0.163  0.00  0.00    +0.020 A 
ATOM      5  C   UNL     1       6.101  -0.899   0.257  0.00  0.00    +0.071 A 
ATOM      6  C   UNL     1       6.084  -2.303   0.354  0.00  0.00    +0.252 A 
ATOM      7  O   UNL     1       7.135  -2.917   0.434  0.00  0.00    -0.268 OA
ENDROOT
BRANCH   3   8
ATOM      8  C   UNL     1       2.422  -0.236   0.080  0.00  0.00    +0.250 C 
ATOM      9  O   UNL     1       1.381  -0.864   0.087  0.00  0.00    -0.270 OA
ATOM     10  N   UNL     1       2.398   1.108  -0.014  0.00  0.00    -0.280 N 
ATOM     11  H   UNL     1       3.227   1.603  -0.101  0.00  0.00    +0.155 HD
BRANCH  10  12
ATOM     12  C   UNL     1       1.181   1.786   0.011  0.00  0.00    +0.051 A 
ATOM     13  C   UNL     1       0.076   1.214   0.627  0.00  0.00    +0.027 A 
ATOM     14  C   UNL     1      -1.130   1.885   0.647  0.00  0.00    +0.034 A 
ATOM     15  C   UNL     1      -1.245   3.137   0.065  0.00  0.00    +0.128 A 
ATOM     16  C   UNL     1      -0.159   3.721  -0.551  0.00  0.00    +0.053 A 
ATOM     17  C   UNL     1       1.066   3.052  -0.584  0.00  0.00    +0.075 A 
BRANCH  15  18
ATOM     18  N   UNL     1      -2.543   3.848   0.099  0.00  0.00    +0.056 N 
ATOM     19  O   UNL     1      -2.649   4.947  -0.416  0.00  0.00    -0.126 OA
ATOM     20  O   UNL     1      -3.505   3.335   0.642  0.00  0.00    -0.126 OA
ENDBRANCH  15  18
BRANCH  17  21
ATOM     21  C   UNL     1       2.199   3.653  -1.222  0.00  0.00    +0.101 C 
ATOM     22  N   UNL     1       3.097   4.130  -1.727  0.00  0.00    -0.191 NA
ENDBRANCH  17  21
ENDBRANCH  10  12
ENDBRANCH   3   8
BRANCH   1  23
ATOM     23  C   UNL     1       4.925  -4.434   0.463  0.00  0.00    +0.160 C 
BRANCH  23  28
ATOM     24  C   UNL     1       5.126  -6.736  -4.834  0.00  0.00    +0.044 C 
ATOM     25  C   UNL     1       5.074  -6.137  -3.452  0.00  0.00    -0.050 A 
ATOM     26  C   UNL     1       6.246  -5.851  -2.778  0.00  0.00    +0.004 A 
ATOM     27  C   UNL     1       6.198  -5.301  -1.511  0.00  0.00    +0.005 A 
ATOM     28  C   UNL     1       4.978  -5.035  -0.918  0.00  0.00    -0.028 A 
ATOM     29  C   UNL     1       3.805  -5.325  -1.591  0.00  0.00    +0.005 A 
ATOM     30  C   UNL     1       3.853  -5.872  -2.860  0.00  0.00    +0.004 A 
ENDBRANCH  23  28
ENDBRANCH   1  23
TORSDOF 6
