REMARK  Name = ZINC64664378
REMARK  6 active torsions:
REMARK  status: ('A' for Active; 'I' for Inactive)
REMARK    1  A    between atoms: C_1  and  C_2
REMARK    2  A    between atoms: C_5  and  N_8
REMARK    3  A    between atoms: C_9  and  N_25
REMARK    4  A    between atoms: C_10  and  C_13
REMARK    5  A    between atoms: C_15  and  C_18
REMARK    6  A    between atoms: C_23  and  C_24
REMARK                            x       y       z     vdW  Elec       q    Type
REMARK                         _______ _______ _______ _____ _____    ______ ____
ROOT
ATOM      1  N   UNL     1      -0.314  -4.362  -0.981  0.00  0.00    -0.198 N 
ATOM      2  C   UNL     1       0.478  -5.041  -0.101  0.00  0.00    +0.150 A 
ATOM      3  C   UNL     1       0.200  -6.384  -0.284  0.00  0.00    +0.159 A 
ATOM      4  N   UNL     1      -0.731  -6.493  -1.247  0.00  0.00    -0.125 NA
ATOM      5  N   UNL     1      -1.059  -5.326  -1.675  0.00  0.00    -0.058 NA
ENDROOT
BRANCH   1  10
ATOM      6  C   UNL     1      -0.559   1.265  -1.680  0.00  0.00    +0.044 C 
ATOM      7  C   UNL     1      -0.494  -0.229  -1.495  0.00  0.00    -0.050 A 
ATOM      8  C   UNL     1      -0.652  -1.067  -2.583  0.00  0.00    +0.005 A 
ATOM      9  C   UNL     1      -0.593  -2.437  -2.416  0.00  0.00    +0.028 A 
ATOM     10  C   UNL     1      -0.374  -2.972  -1.154  0.00  0.00    +0.069 A 
ATOM     11  C   UNL     1      -0.215  -2.128  -0.063  0.00  0.00    +0.028 A 
ATOM     12  C   UNL     1      -0.270  -0.759  -0.237  0.00  0.00    +0.005 A 
ENDBRANCH   1  10
BRANCH   3  13
ATOM     13  C   UNL     1       0.819  -7.504   0.451  0.00  0.00    +0.132 A 
ATOM     14  N   UNL     1       0.609  -8.806   0.328  0.00  0.00    -0.237 NA
ATOM     15  C   UNL     1       1.260  -9.679   1.078  0.00  0.00    +0.079 A 
ATOM     16  C   UNL     1       2.167  -9.230   1.999  0.00  0.00    +0.075 A 
ATOM     17  S   UNL     1       2.057  -7.464   1.740  0.00  0.00    -0.073 S 
BRANCH  15  18
ATOM     18  C   UNL     1       1.009 -11.133   0.923  0.00  0.00    +0.004 A 
ATOM     19  C   UNL     1       2.078 -12.021   0.826  0.00  0.00    +0.010 A 
ATOM     20  C   UNL     1       1.839 -13.372   0.682  0.00  0.00    +0.001 A 
ATOM     21  C   UNL     1       0.540 -13.846   0.634  0.00  0.00    +0.000 A 
ATOM     22  C   UNL     1      -0.526 -12.969   0.731  0.00  0.00    +0.004 A 
ATOM     23  C   UNL     1      -0.298 -11.616   0.880  0.00  0.00    -0.041 A 
ATOM     24  C   UNL     1      -1.460 -10.662   0.991  0.00  0.00    +0.044 C 
ENDBRANCH  15  18
ENDBRANCH   3  13
BRANCH   2  25
ATOM     25  N   UNL     1       1.381  -4.493   0.798  0.00  0.00    -0.341 N 
ATOM     26  H   UNL     1       1.498  -3.531   0.843  0.00  0.00    +0.144 HD
ATOM     27  H   UNL     1       1.895  -5.072   1.382  0.00  0.00    +0.144 HD
ENDBRANCH   2  25
TORSDOF 4
