REMARK  Name = ZINC42360487
REMARK  9 active torsions:
REMARK  status: ('A' for Active; 'I' for Inactive)
REMARK    1  A    between atoms: C_1  and  C_2
REMARK    2  A    between atoms: C_2  and  C_4
REMARK    3  A    between atoms: C_2  and  N_14
REMARK    4  A    between atoms: C_15  and  C_17
REMARK    5  A    between atoms: C_17  and  C_19
REMARK    6  A    between atoms: C_17  and  N_20
REMARK    7  A    between atoms: N_20  and  C_21
REMARK    8  A    between atoms: C_25  and  C_27
REMARK    9  A    between atoms: N_29  and  C_30
REMARK                            x       y       z     vdW  Elec       q    Type
REMARK                         _______ _______ _______ _____ _____    ______ ____
ROOT
ATOM      1  N   UNL     1      -1.372  -0.511   0.012  0.00  0.00    -0.307 N 
ATOM      2  C   UNL     1      -2.051  -0.643  -1.145  0.00  0.00    +0.233 C 
ATOM      3  O   UNL     1      -1.524  -0.341  -2.194  0.00  0.00    -0.274 OA
ATOM      4  H   UNL     1      -1.794  -0.752   0.852  0.00  0.00    +0.149 HD
ENDROOT
BRANCH   1   6
ATOM      5  C   UNL     1      -0.019   1.526   0.010  0.00  0.00    +0.033 C 
ATOM      6  C   UNL     1       0.002  -0.004   0.002  0.00  0.00    +0.100 C 
BRANCH   6   7
ATOM      7  C   UNL     1       0.731  -0.503   1.223  0.00  0.00    -0.027 A 
ATOM      8  C   UNL     1       0.066  -0.555   2.446  0.00  0.00    +0.006 A 
ATOM      9  C   UNL     1       0.695  -1.000   3.568  0.00  0.00    +0.009 A 
ATOM     10  C   UNL     1       2.035  -1.415   3.495  0.00  0.00    -0.018 A 
ATOM     11  C   UNL     1       2.718  -1.881   4.631  0.00  0.00    +0.008 A 
ATOM     12  C   UNL     1       4.016  -2.276   4.523  0.00  0.00    +0.001 A 
ATOM     13  C   UNL     1       4.681  -2.225   3.299  0.00  0.00    +0.001 A 
ATOM     14  C   UNL     1       4.052  -1.779   2.178  0.00  0.00    +0.008 A 
ATOM     15  C   UNL     1       2.712  -1.363   2.251  0.00  0.00    -0.018 A 
ATOM     16  C   UNL     1       2.027  -0.902   1.113  0.00  0.00    +0.014 A 
ENDBRANCH   6   7
ENDBRANCH   1   6
BRANCH   2  17
ATOM     17  C   UNL     1      -3.465  -1.164  -1.134  0.00  0.00    +0.154 C 
ATOM     18  C   UNL     1      -3.485  -2.571  -0.532  0.00  0.00    +0.038 C 
BRANCH  17  19
ATOM     19  N   UNL     1      -3.978  -1.213  -2.505  0.00  0.00    -0.333 N 
ATOM     20  H   UNL     1      -3.362  -1.290  -3.251  0.00  0.00    +0.147 HD
BRANCH  19  21
ATOM     21  C   UNL     1      -5.353  -1.148  -2.739  0.00  0.00    +0.028 A 
ATOM     22  C   UNL     1      -6.236  -1.032  -1.671  0.00  0.00    +0.023 A 
ATOM     23  C   UNL     1      -7.597  -0.967  -1.897  0.00  0.00    +0.003 A 
ATOM     24  C   UNL     1      -8.091  -1.017  -3.185  0.00  0.00    +0.013 A 
ATOM     25  C   UNL     1      -7.214  -1.134  -4.265  0.00  0.00    +0.038 A 
ATOM     26  C   UNL     1      -5.839  -1.194  -4.037  0.00  0.00    +0.036 A 
BRANCH  25  27
ATOM     27  C   UNL     1      -7.740  -1.189  -5.646  0.00  0.00    +0.244 C 
ATOM     28  O   UNL     1      -6.974  -1.290  -6.584  0.00  0.00    -0.270 OA
ATOM     29  N   UNL     1      -9.069  -1.126  -5.863  0.00  0.00    -0.314 N 
ATOM     30  C   UNL     1      -9.590  -1.180  -7.231  0.00  0.00    +0.128 C 
ATOM     31  H   UNL     1      -9.680  -1.044  -5.114  0.00  0.00    +0.149 HD
ENDBRANCH  25  27
ENDBRANCH  19  21
ENDBRANCH  17  19
ENDBRANCH   2  17
TORSDOF 6
