REMARK  Name = ZINC22804645
REMARK  7 active torsions:
REMARK  status: ('A' for Active; 'I' for Inactive)
REMARK    1  A    between atoms: C_1  and  C_2
REMARK    2  A    between atoms: N_10  and  C_14
REMARK    3  A    between atoms: C_14  and  N_15
REMARK    4  A    between atoms: N_18  and  C_21
REMARK    5  A    between atoms: C_21  and  C_22
REMARK    6  A    between atoms: C_22  and  O_23
REMARK    7  A    between atoms: O_23  and  C_24
REMARK                            x       y       z     vdW  Elec       q    Type
REMARK                         _______ _______ _______ _____ _____    ______ ____
ROOT
ATOM      1  N   UNL     1      -0.239   1.407  -0.443  0.00  0.00    -0.290 NA
ATOM      2  C   UNL     1      -0.828   2.047  -1.628  0.00  0.00    +0.067 C 
ATOM      3  C   UNL     1      -0.879   3.562  -1.414  0.00  0.00    -0.063 C 
ATOM      4  N   UNL     1       0.480   4.065  -1.168  0.00  0.00    +0.384 N 
ATOM      5  C   UNL     1       1.068   3.425   0.017  0.00  0.00    -0.063 C 
ATOM      6  C   UNL     1       1.119   1.911  -0.197  0.00  0.00    +0.067 C 
ATOM      7  H   UNL     1       1.101   3.806  -2.038  0.00  0.00    -0.082 HD
ENDROOT
BRANCH   1   8
ATOM      8  C   UNL     1      -0.242  -0.055  -0.578  0.00  0.00    +0.204 C 
BRANCH   8  18
ATOM      9  C   UNL     1      -7.621  -2.837   0.772  0.00  0.00    +0.007 C 
ATOM     10  C   UNL     1      -6.465  -2.280  -0.061  0.00  0.00    -0.014 C 
ATOM     11  C   UNL     1      -6.064  -0.906   0.479  0.00  0.00    +0.006 C 
ATOM     12  C   UNL     1      -4.916  -0.344  -0.363  0.00  0.00    +0.035 C 
ATOM     13  C   UNL     1      -3.727  -1.297  -0.308  0.00  0.00    +0.113 C 
ATOM     14  C   UNL     1      -4.119  -2.679  -0.821  0.00  0.00    +0.035 C 
ATOM     15  C   UNL     1      -5.270  -3.231   0.023  0.00  0.00    +0.006 C 
ATOM     16  C   UNL     1      -2.572  -0.745  -1.112  0.00  0.00    +0.248 C 
ATOM     17  O   UNL     1      -2.553  -0.505  -2.301  0.00  0.00    -0.273 OA
ATOM     18  N   UNL     1      -1.567  -0.575  -0.229  0.00  0.00    -0.211 N 
ATOM     19  C   UNL     1      -1.928  -0.946   1.006  0.00  0.00    +0.310 C 
ATOM     20  O   UNL     1      -1.191  -0.890   1.971  0.00  0.00    -0.252 OA
ATOM     21  N   UNL     1      -3.200  -1.385   1.059  0.00  0.00    -0.285 N 
ATOM     22  H   UNL     1      -3.840  -1.758   1.872  0.00  0.00    +0.151 HD
ENDBRANCH   8  18
ENDBRANCH   1   8
BRANCH   4  23
ATOM     23  C   UNL     1       0.483   5.528  -1.033  0.00  0.00    -0.037 C 
BRANCH  23  24
ATOM     24  C   UNL     1       1.899   6.058  -1.264  0.00  0.00    +0.210 C 
BRANCH  24  25
ATOM     25  O   UNL     1       2.292   5.795  -2.613  0.00  0.00    -0.494 OA
BRANCH  25  26
ATOM     26  C   UNL     1       3.533   6.206  -2.985  0.00  0.00    +0.120 A 
ATOM     27  C   UNL     1       4.353   6.854  -2.073  0.00  0.00    +0.047 A 
ATOM     28  C   UNL     1       5.616   7.266  -2.452  0.00  0.00    +0.023 A 
ATOM     29  C   UNL     1       6.059   7.043  -3.744  0.00  0.00    +0.041 A 
ATOM     30  C   UNL     1       5.240   6.402  -4.657  0.00  0.00    +0.023 A 
ATOM     31  C   UNL     1       3.979   5.983  -4.280  0.00  0.00    +0.047 A 
ATOM     32 CL   UNL     1       7.644   7.567  -4.219  0.00  0.00    -0.084 Cl
ENDBRANCH  25  26
ENDBRANCH  24  25
ENDBRANCH  23  24
ENDBRANCH   4  23
TORSDOF 6
