REMARK  Name = ZINC03499405
REMARK  6 active torsions:
REMARK  status: ('A' for Active; 'I' for Inactive)
REMARK    1  A    between atoms: C_1  and  C_2
REMARK    2  A    between atoms: C_5  and  S_9
REMARK    3  A    between atoms: C_6  and  C_8
REMARK    4  A    between atoms: S_9  and  C_10
REMARK    5  A    between atoms: C_10  and  C_11
REMARK    6  A    between atoms: N_16  and  C_17
REMARK                            x       y       z     vdW  Elec       q    Type
REMARK                         _______ _______ _______ _____ _____    ______ ____
ROOT
ATOM      1  C   UNL     1       0.075  -6.461  -1.938  0.00  0.00    +0.231 C 
ATOM      2  O   UNL     1       0.098  -7.170  -0.954  0.00  0.00    -0.274 OA
ATOM      3  N   UNL     1       0.074  -7.014  -3.167  0.00  0.00    -0.239 N 
ATOM      4  C   UNL     1       0.099  -8.355  -3.303  0.00  0.00    +0.310 C 
ATOM      5  O   UNL     1       0.122  -9.065  -2.317  0.00  0.00    -0.252 OA
ATOM      6  N   UNL     1       0.099  -8.908  -4.532  0.00  0.00    -0.269 N 
ATOM      7  H   UNL     1       0.056  -6.447  -3.954  0.00  0.00    +0.159 HD
ATOM      8  H   UNL     1       0.013  -8.345  -5.317  0.00  0.00    +0.156 HD
ENDROOT
BRANCH   6   9
ATOM      9  C   UNL     1       0.222 -10.296  -4.675  0.00  0.00    +0.038 A 
ATOM     10  C   UNL     1       0.925 -10.823  -5.750  0.00  0.00    +0.027 A 
ATOM     11  C   UNL     1       1.047 -12.192  -5.893  0.00  0.00    +0.051 A 
ATOM     12  C   UNL     1       0.468 -13.043  -4.963  0.00  0.00    +0.162 A 
ATOM     13  C   UNL     1      -0.235 -12.518  -3.885  0.00  0.00    +0.164 A 
ATOM     14  C   UNL     1      -0.353 -11.144  -3.740  0.00  0.00    +0.072 A 
ATOM     15  O   UNL     1      -0.803 -13.338  -2.958  0.00  0.00    -0.485 OA
ATOM     16  C   UNL     1      -0.978 -14.709  -3.332  0.00  0.00    +0.270 C 
ATOM     17  C   UNL     1       0.326 -15.202  -3.974  0.00  0.00    +0.270 C 
ATOM     18  O   UNL     1       0.595 -14.390  -5.122  0.00  0.00    -0.485 OA
ENDBRANCH   6   9
BRANCH   1  19
ATOM     19  C   UNL     1       0.047  -4.962  -1.786  0.00  0.00    +0.170 C 
BRANCH  19  20
ATOM     20  S   UNL     1       0.055  -4.532  -0.023  0.00  0.00    -0.116 S 
BRANCH  20  25
ATOM     21  C   UNL     1      -0.064   1.503   0.009  0.00  0.00    +0.044 C 
ATOM     22  C   UNL     1      -0.034  -0.004   0.001  0.00  0.00    -0.050 A 
ATOM     23  C   UNL     1      -0.031  -0.688  -1.201  0.00  0.00    +0.004 A 
ATOM     24  C   UNL     1      -0.004  -2.068  -1.213  0.00  0.00    +0.015 A 
ATOM     25  C   UNL     1       0.021  -2.771  -0.014  0.00  0.00    +0.011 A 
ATOM     26  C   UNL     1       0.018  -2.081   1.192  0.00  0.00    -0.037 A 
ATOM     27  C   UNL     1      -0.003  -0.700   1.196  0.00  0.00    +0.007 A 
ATOM     28  C   UNL     1       0.045  -2.838   2.495  0.00  0.00    +0.045 C 
ENDBRANCH  20  25
ENDBRANCH  19  20
ENDBRANCH   1  19
TORSDOF 4
