REMARK  Name = ZINC41600564
REMARK  3 active torsions:
REMARK  status: ('A' for Active; 'I' for Inactive)
REMARK    1  A    between atoms: C_1  and  C_2
REMARK    2  A    between atoms: N_7  and  S_9
REMARK    3  A    between atoms: S_9  and  C_12
REMARK                            x       y       z     vdW  Elec       q    Type
REMARK                         _______ _______ _______ _____ _____    ______ ____
ROOT
ATOM      1  C   UNL     1       1.712  -3.159   3.488  0.00  0.00    +0.107 A 
ATOM      2  C   UNL     1       2.589  -4.211   3.300  0.00  0.00    +0.032 A 
ATOM      3  C   UNL     1       3.659  -4.389   4.157  0.00  0.00    +0.049 A 
ATOM      4  C   UNL     1       3.858  -3.511   5.211  0.00  0.00    +0.141 A 
ATOM      5  C   UNL     1       2.975  -2.451   5.398  0.00  0.00    +0.071 A 
ATOM      6  C   UNL     1       1.905  -2.275   4.534  0.00  0.00    +0.055 A 
ATOM      7  N   UNL     1       3.176  -1.555   6.459  0.00  0.00    -0.338 N 
ATOM      8  C   UNL     1       4.127  -1.946   7.514  0.00  0.00    +0.142 C 
ATOM      9  C   UNL     1       5.346  -2.578   6.829  0.00  0.00    +0.247 C 
ATOM     10  O   UNL     1       4.910  -3.696   6.052  0.00  0.00    -0.489 OA
ATOM     11  H   UNL     1       2.705  -0.707   6.497  0.00  0.00    +0.146 HD
ENDROOT
BRANCH   1  12
ATOM     12  S   UNL     1       0.350  -2.942   2.392  0.00  0.00    +0.061 S 
ATOM     13  O   UNL     1      -0.630  -2.199   3.104  0.00  0.00    -0.153 OA
ATOM     14  O   UNL     1       0.077  -4.216   1.825  0.00  0.00    -0.153 OA
BRANCH  12  20
ATOM     15  C   UNL     1      -0.019   1.526   0.010  0.00  0.00    +0.009 C 
ATOM     16  C   UNL     1       0.002  -0.004   0.002  0.00  0.00    +0.002 C 
ATOM     17  C   UNL     1       0.720  -0.498  -1.256  0.00  0.00    +0.006 C 
ATOM     18  C   UNL     1       0.712  -2.028  -1.282  0.00  0.00    +0.017 C 
ATOM     19  C   UNL     1       1.463  -2.559  -0.057  0.00  0.00    +0.109 C 
ATOM     20  N   UNL     1       0.869  -1.973   1.153  0.00  0.00    -0.176 NA
ATOM     21  C   UNL     1       0.744  -0.512   1.242  0.00  0.00    +0.112 C 
ENDBRANCH  12  20
ENDBRANCH   1  12
TORSDOF 2
