REMARK  Name = ZINC66928053
REMARK  7 active torsions:
REMARK  status: ('A' for Active; 'I' for Inactive)
REMARK    1  A    between atoms: C_1  and  C_2
REMARK    2  A    between atoms: C_3  and  C_17
REMARK    3  A    between atoms: N_6  and  C_7
REMARK    4  A    between atoms: N_19  and  C_20
REMARK    5  A    between atoms: C_20  and  C_22
REMARK    6  A    between atoms: C_20  and  C_23
REMARK    7  A    between atoms: C_27  and  O_29
REMARK                            x       y       z     vdW  Elec       q    Type
REMARK                         _______ _______ _______ _____ _____    ______ ____
ROOT
ATOM      1  C   UNL     1      -0.391   1.470   0.054  0.00  0.00    +0.068 C 
ATOM      2  C   UNL     1      -0.158  -0.018   0.021  0.00  0.00    +0.074 A 
ATOM      3  C   UNL     1      -0.179  -0.821  -1.084  0.00  0.00    +0.170 A 
ATOM      4  N   UNL     1       0.076  -2.083  -0.698  0.00  0.00    -0.124 NA
ATOM      5  N   UNL     1       0.254  -2.117   0.577  0.00  0.00    -0.060 NA
ATOM      6  N   UNL     1       0.118  -0.814   1.077  0.00  0.00    -0.216 N 
ENDROOT
BRANCH   6   7
ATOM      7  C   UNL     1       0.241  -0.416   2.413  0.00  0.00    +0.076 A 
ATOM      8  C   UNL     1       1.022   0.670   2.745  0.00  0.00    +0.028 A 
ATOM      9  C   UNL     1       1.150   1.072   4.071  0.00  0.00    +0.004 A 
ATOM     10  C   UNL     1       0.511   0.408   5.074  0.00  0.00    +0.028 A 
ATOM     11  C   UNL     1      -0.295  -0.705   4.778  0.00  0.00    +0.073 A 
ATOM     12  C   UNL     1      -0.436  -1.118   3.430  0.00  0.00    +0.026 A 
ATOM     13  C   UNL     1      -1.247  -2.228   3.137  0.00  0.00    +0.013 A 
ATOM     14  C   UNL     1      -1.873  -2.861   4.174  0.00  0.00    +0.020 A 
ATOM     15  C   UNL     1      -1.697  -2.401   5.477  0.00  0.00    +0.111 A 
ATOM     16  N   UNL     1      -0.930  -1.372   5.747  0.00  0.00    -0.255 NA
ENDBRANCH   6   7
BRANCH   3  17
ATOM     17  C   UNL     1      -0.438  -0.378  -2.467  0.00  0.00    +0.266 C 
ATOM     18  O   UNL     1      -0.658   0.795  -2.699  0.00  0.00    -0.268 OA
ATOM     19  N   UNL     1      -0.430  -1.274  -3.474  0.00  0.00    -0.303 N 
ATOM     20  H   UNL     1      -0.254  -2.210  -3.289  0.00  0.00    +0.150 HD
BRANCH  19  21
ATOM     21  C   UNL     1      -0.687  -0.834  -4.848  0.00  0.00    +0.101 C 
ATOM     22  C   UNL     1       0.616  -0.337  -5.476  0.00  0.00    +0.033 C 
BRANCH  21  23
ATOM     23  C   UNL     1      -1.224  -1.990  -5.653  0.00  0.00    -0.024 A 
ATOM     24  C   UNL     1      -0.701  -3.257  -5.476  0.00  0.00    +0.005 A 
ATOM     25  C   UNL     1      -1.191  -4.319  -6.213  0.00  0.00    +0.004 A 
ATOM     26  C   UNL     1      -2.206  -4.116  -7.129  0.00  0.00    +0.045 A 
ATOM     27  C   UNL     1      -2.732  -2.845  -7.308  0.00  0.00    +0.117 A 
ATOM     28  C   UNL     1      -2.242  -1.782  -6.563  0.00  0.00    +0.050 A 
BRANCH  27  29
ATOM     29  O   UNL     1      -3.730  -2.643  -8.208  0.00  0.00    -0.507 OA
ATOM     30  H   UNL     1      -4.618  -2.744  -7.840  0.00  0.00    +0.292 HD
ENDBRANCH  27  29
ENDBRANCH  21  23
ENDBRANCH  19  21
ENDBRANCH   3  17
TORSDOF 5
