REMARK  Name = ZINC16977065
REMARK  4 active torsions:
REMARK  status: ('A' for Active; 'I' for Inactive)
REMARK    1  A    between atoms: C_1  and  C_2
REMARK    2  A    between atoms: C_3  and  C_14
REMARK    3  A    between atoms: C_4  and  C_7
REMARK    4  A    between atoms: C_20  and  C_22
REMARK                            x       y       z     vdW  Elec       q    Type
REMARK                         _______ _______ _______ _____ _____    ______ ____
ROOT
ATOM      1  C   UNL     1       0.285   1.455  -0.024  0.00  0.00    +0.255 C 
ATOM      2  O   UNL     1      -0.679   2.164   0.193  0.00  0.00    -0.270 OA
ATOM      3  N   UNL     1       1.487   2.010  -0.279  0.00  0.00    -0.259 N 
ATOM      4  C   UNL     1       1.625   3.392  -0.289  0.00  0.00    +0.188 A 
ATOM      5  N   UNL     1       0.721   4.341  -0.083  0.00  0.00    -0.125 NA
ATOM      6  N   UNL     1       1.018   5.566  -0.125  0.00  0.00    -0.140 NA
ATOM      7  C   UNL     1       2.252   5.979  -0.389  0.00  0.00    +0.135 A 
ATOM      8  S   UNL     1       3.073   4.401  -0.591  0.00  0.00    -0.030 S 
ATOM      9  H   UNL     1       2.255   1.445  -0.455  0.00  0.00    +0.157 HD
ENDROOT
BRANCH   7  10
ATOM     10  C   UNL     1       2.793   7.351  -0.488  0.00  0.00    +0.027 A 
ATOM     11  C   UNL     1       1.956   8.451  -0.290  0.00  0.00    +0.012 A 
ATOM     12  C   UNL     1       2.468   9.728  -0.384  0.00  0.00    +0.001 A 
ATOM     13  C   UNL     1       3.807   9.922  -0.674  0.00  0.00    +0.001 A 
ATOM     14  C   UNL     1       4.642   8.838  -0.872  0.00  0.00    +0.020 A 
ATOM     15  C   UNL     1       4.144   7.553  -0.776  0.00  0.00    +0.051 A 
ATOM     16 CL   UNL     1       5.195   6.192  -1.018  0.00  0.00    -0.083 Cl
ENDBRANCH   7  10
BRANCH   1  19
ATOM     17  C   UNL     1       0.422  -0.496   2.499  0.00  0.00    +0.090 C 
ATOM     18  C   UNL     1       0.194  -0.868   1.056  0.00  0.00    +0.147 A 
ATOM     19  C   UNL     1       0.139  -0.010  -0.013  0.00  0.00    +0.106 A 
ATOM     20  C   UNL     1      -0.097  -0.921  -1.153  0.00  0.00    +0.127 A 
ATOM     21  N   UNL     1      -0.152  -2.118  -0.627  0.00  0.00    -0.077 NA
ATOM     22  O   UNL     1       0.002  -2.096   0.569  0.00  0.00    -0.359 OA
BRANCH  20  23
ATOM     23  C   UNL     1      -0.241  -0.557  -2.583  0.00  0.00    +0.023 A 
ATOM     24  C   UNL     1      -1.072   0.499  -2.956  0.00  0.00    +0.011 A 
ATOM     25  C   UNL     1      -1.202   0.834  -4.289  0.00  0.00    +0.001 A 
ATOM     26  C   UNL     1      -0.510   0.124  -5.254  0.00  0.00    +0.001 A 
ATOM     27  C   UNL     1       0.315  -0.925  -4.892  0.00  0.00    +0.020 A 
ATOM     28  C   UNL     1       0.457  -1.266  -3.560  0.00  0.00    +0.050 A 
ATOM     29 CL   UNL     1       1.499  -2.578  -3.105  0.00  0.00    -0.083 Cl
ENDBRANCH  20  23
ENDBRANCH   1  19
TORSDOF 3
