REMARK  Name = ZINC06283502
REMARK  5 active torsions:
REMARK  status: ('A' for Active; 'I' for Inactive)
REMARK    1  A    between atoms: C_10  and  C_11
REMARK    2  A    between atoms: C_12  and  C_13
REMARK    3  A    between atoms: N_15  and  N_16
REMARK    4  A    between atoms: C_17  and  C_19
REMARK    5  A    between atoms: C_23  and  N_25
REMARK                            x       y       z     vdW  Elec       q    Type
REMARK                         _______ _______ _______ _____ _____    ______ ____
ROOT
ATOM      1  C   UNL     1      -8.535   1.773   0.053  0.00  0.00    +0.253 C 
ATOM      2  O   UNL     1      -8.547   2.990   0.060  0.00  0.00    -0.269 OA
ATOM      3  N   UNL     1      -7.361   1.110   0.043  0.00  0.00    -0.231 N 
ATOM      4  H   UNL     1      -7.352   0.140   0.037  0.00  0.00    +0.173 HD
ENDROOT
BRANCH   3   5
ATOM      5  N   UNL     1      -6.155   1.823   0.042  0.00  0.00    -0.230 N 
ATOM      6  C   UNL     1      -4.981   1.160   0.032  0.00  0.00    +0.260 C 
ATOM      7  O   UNL     1      -4.969  -0.055   0.025  0.00  0.00    -0.269 OA
ATOM      8  H   UNL     1      -6.164   2.792   0.048  0.00  0.00    +0.173 HD
BRANCH   6   9
ATOM      9  C   UNL     1      -3.708   1.912   0.030  0.00  0.00    +0.040 A 
ATOM     10  C   UNL     1      -3.718   3.308   0.039  0.00  0.00    +0.013 A 
ATOM     11  C   UNL     1      -2.527   4.003   0.037  0.00  0.00    +0.003 A 
ATOM     12  C   UNL     1      -1.323   3.320   0.032  0.00  0.00    +0.033 A 
ATOM     13  C   UNL     1      -1.306   1.936   0.019  0.00  0.00    +0.127 A 
ATOM     14  C   UNL     1      -2.491   1.229   0.021  0.00  0.00    +0.045 A 
BRANCH  13  15
ATOM     15  N   UNL     1      -0.014   1.214   0.009  0.00  0.00    +0.056 N 
ATOM     16  O   UNL     1       0.002  -0.004   0.002  0.00  0.00    -0.126 OA
ATOM     17  O   UNL     1       1.032   1.837   0.002  0.00  0.00    -0.126 OA
ENDBRANCH  13  15
ENDBRANCH   6   9
ENDBRANCH   3   5
BRANCH   1  19
ATOM     18  C   UNL     1     -10.971   1.693   0.064  0.00  0.00    +0.013 C 
ATOM     19  C   UNL     1      -9.794   1.029   0.054  0.00  0.00    +0.069 C 
BRANCH  18  29
ATOM     20  C   UNL     1     -15.979   2.920   0.113  0.00  0.00    +0.001 A 
ATOM     21  C   UNL     1     -14.802   3.663   0.113  0.00  0.00    +0.001 A 
ATOM     22  C   UNL     1     -13.585   3.048   0.097  0.00  0.00    +0.009 A 
ATOM     23  C   UNL     1     -13.517   1.650   0.082  0.00  0.00    -0.011 A 
ATOM     24  C   UNL     1     -14.713   0.891   0.076  0.00  0.00    -0.017 A 
ATOM     25  C   UNL     1     -15.950   1.558   0.085  0.00  0.00    +0.008 A 
ATOM     26  C   UNL     1     -14.640  -0.512   0.068  0.00  0.00    +0.008 A 
ATOM     27  C   UNL     1     -13.435  -1.147   0.058  0.00  0.00    +0.001 A 
ATOM     28  C   UNL     1     -12.238  -0.445   0.057  0.00  0.00    +0.008 A 
ATOM     29  C   UNL     1     -12.234   0.947   0.065  0.00  0.00    -0.017 A 
ENDBRANCH  18  29
ENDBRANCH   1  19
TORSDOF 5
