REMARK  Name = ZINC00923389
REMARK  11 active torsions:
REMARK  status: ('A' for Active; 'I' for Inactive)
REMARK    1  A    between atoms: C_1  and  C_2
REMARK    2  A    between atoms: C_4  and  C_39
REMARK    3  A    between atoms: C_5  and  S_9
REMARK    4  A    between atoms: C_6  and  C_8
REMARK    5  A    between atoms: S_9  and  N_12
REMARK    6  A    between atoms: N_12  and  C_13
REMARK    7  A    between atoms: N_12  and  C_22
REMARK    8  A    between atoms: C_13  and  C_14
REMARK    9  A    between atoms: C_17  and  O_20
REMARK   10  A    between atoms: O_20  and  C_21
REMARK   11  A    between atoms: C_22  and  C_23
REMARK                            x       y       z     vdW  Elec       q    Type
REMARK                         _______ _______ _______ _____ _____    ______ ____
ROOT
ATOM      1  N   UNL     1      -2.976   1.568   1.779  0.00  0.00    -0.168 NA
ENDROOT
BRANCH   1   2
ATOM      2  S   UNL     1      -2.934   1.756   0.134  0.00  0.00    +0.062 S 
ATOM      3  O   UNL     1      -2.346   0.576  -0.395  0.00  0.00    -0.153 OA
ATOM      4  O   UNL     1      -2.400   3.050  -0.113  0.00  0.00    -0.153 OA
BRANCH   2   9
ATOM      5  C   UNL     1      -8.653   1.855  -1.787  0.00  0.00    +0.044 C 
ATOM      6  C   UNL     1      -7.223   1.830  -1.310  0.00  0.00    -0.050 A 
ATOM      7  C   UNL     1      -6.639   0.633  -0.939  0.00  0.00    +0.008 A 
ATOM      8  C   UNL     1      -5.328   0.610  -0.502  0.00  0.00    -0.024 A 
ATOM      9  C   UNL     1      -4.603   1.784  -0.430  0.00  0.00    +0.111 A 
ATOM     10  C   UNL     1      -5.185   2.980  -0.807  0.00  0.00    -0.024 A 
ATOM     11  C   UNL     1      -6.496   3.003  -1.244  0.00  0.00    +0.008 A 
ATOM     12  C   UNL     1      -4.392   4.260  -0.736  0.00  0.00    +0.046 C 
ATOM     13  C   UNL     1      -4.692  -0.695  -0.097  0.00  0.00    +0.046 C 
ENDBRANCH   2   9
ENDBRANCH   1   2
BRANCH   1  14
ATOM     14  C   UNL     1      -3.337   2.699   2.636  0.00  0.00    +0.145 C 
BRANCH  14  15
ATOM     15  C   UNL     1      -4.744   2.514   3.146  0.00  0.00    -0.031 A 
ATOM     16  C   UNL     1      -5.810   3.023   2.428  0.00  0.00    +0.008 A 
ATOM     17  C   UNL     1      -7.101   2.850   2.889  0.00  0.00    +0.046 A 
ATOM     18  C   UNL     1      -7.325   2.176   4.081  0.00  0.00    +0.120 A 
ATOM     19  C   UNL     1      -6.253   1.671   4.802  0.00  0.00    +0.046 A 
ATOM     20  C   UNL     1      -4.965   1.841   4.333  0.00  0.00    +0.008 A 
BRANCH  18  21
ATOM     21  O   UNL     1      -8.593   2.009   4.540  0.00  0.00    -0.495 OA
ATOM     22  C   UNL     1      -9.648   2.555   3.745  0.00  0.00    +0.277 C 
ENDBRANCH  18  21
ENDBRANCH  14  15
ENDBRANCH   1  14
BRANCH   1  23
ATOM     23  C   UNL     1      -2.653   0.270   2.376  0.00  0.00    +0.150 C 
BRANCH  23  24
ATOM     24  C   UNL     1      -1.400   0.396   3.204  0.00  0.00    +0.033 A 
ATOM     25  C   UNL     1      -1.492   0.535   4.551  0.00  0.00    +0.020 A 
ATOM     26  C   UNL     1      -0.258   0.650   5.328  0.00  0.00    +0.003 A 
ATOM     27  C   UNL     1      -0.291   0.792   6.721  0.00  0.00    +0.059 A 
ATOM     28  C   UNL     1       0.888   0.903   7.426  0.00  0.00    +0.163 A 
ATOM     29  C   UNL     1       2.115   0.875   6.756  0.00  0.00    +0.164 A 
ATOM     30  C   UNL     1       2.157   0.736   5.379  0.00  0.00    +0.075 A 
ATOM     31  C   UNL     1       0.978   0.623   4.654  0.00  0.00    +0.053 A 
ATOM     32  N   UNL     1       1.002   0.485   3.280  0.00  0.00    -0.322 N 
ATOM     33  H   UNL     1       1.880   0.467   2.802  0.00  0.00    +0.169 HD
ATOM     34  C   UNL     1      -0.138   0.375   2.577  0.00  0.00    +0.254 A 
ATOM     35  O   UNL     1      -0.079   0.255   1.365  0.00  0.00    -0.268 OA
ATOM     36  O   UNL     1       3.283   0.979   7.445  0.00  0.00    -0.485 OA
ATOM     37  C   UNL     1       3.201   1.492   8.778  0.00  0.00    +0.270 C 
ATOM     38  C   UNL     1       2.049   0.778   9.498  0.00  0.00    +0.270 C 
ATOM     39  O   UNL     1       0.839   1.043   8.780  0.00  0.00    -0.485 OA
ENDBRANCH  23  24
ENDBRANCH   1  23
TORSDOF 7
