REMARK  Name = ZINC20990151
REMARK  12 active torsions:
REMARK  status: ('A' for Active; 'I' for Inactive)
REMARK    1  A    between atoms: C_1  and  C_2
REMARK    2  A    between atoms: C_8  and  N_10
REMARK    3  A    between atoms: C_11  and  C_13
REMARK    4  A    between atoms: C_13  and  C_15
REMARK    5  A    between atoms: C_13  and  S_16
REMARK    6  A    between atoms: S_16  and  C_17
REMARK    7  A    between atoms: C_20  and  C_23
REMARK    8  A    between atoms: N_21  and  N_22
REMARK    9  A    between atoms: C_26  and  C_29
REMARK   10  A    between atoms: C_29  and  C_30
REMARK   11  A    between atoms: C_29  and  C_31
REMARK   12  A    between atoms: C_29  and  C_32
REMARK                            x       y       z     vdW  Elec       q    Type
REMARK                         _______ _______ _______ _____ _____    ______ ____
ROOT
ATOM      1  C   UNL     1      -1.887  -0.750  -7.187  0.00  0.00    +0.209 A 
ATOM      2  N   UNL     1      -2.240   0.516  -7.189  0.00  0.00    -0.121 NA
ATOM      3  N   UNL     1      -2.943   0.777  -8.233  0.00  0.00    -0.127 NA
ATOM      4  C   UNL     1      -3.083  -0.306  -8.961  0.00  0.00    +0.182 A 
ATOM      5  N   UNL     1      -2.406  -1.316  -8.316  0.00  0.00    -0.224 N 
ENDROOT
BRANCH   4   6
ATOM      6  C   UNL     1      -3.823  -0.419 -10.236  0.00  0.00    +0.021 A 
ATOM      7  C   UNL     1      -4.152  -1.675 -10.746  0.00  0.00    +0.012 A 
ATOM      8  C   UNL     1      -4.848  -1.773 -11.934  0.00  0.00    +0.005 A 
ATOM      9  C   UNL     1      -5.210  -0.630 -12.623  0.00  0.00    -0.042 A 
ATOM     10  C   UNL     1      -4.882   0.619 -12.125  0.00  0.00    +0.005 A 
ATOM     11  C   UNL     1      -4.191   0.731 -10.936  0.00  0.00    +0.012 A 
BRANCH   9  12
ATOM     12  C   UNL     1      -5.965  -0.744 -13.922  0.00  0.00    -0.013 C 
ATOM     13  C   UNL     1      -5.151  -0.099 -15.045  0.00  0.00    +0.015 C 
ATOM     14  C   UNL     1      -6.200  -2.221 -14.247  0.00  0.00    +0.015 C 
ATOM     15  C   UNL     1      -7.312  -0.030 -13.794  0.00  0.00    +0.015 C 
ENDBRANCH   9  12
ENDBRANCH   4   6
BRANCH   5  16
ATOM     16  N   UNL     1      -2.281  -2.615  -8.721  0.00  0.00    -0.295 N 
ATOM     17  H   UNL     1      -2.751  -2.947  -9.658  0.00  0.00    +0.163 HD
ATOM     18  H   UNL     1      -1.710  -3.329  -8.109  0.00  0.00    +0.163 HD
ENDBRANCH   5  16
BRANCH   1  19
ATOM     19  S   UNL     1      -0.918  -1.563  -5.961  0.00  0.00    -0.072 S 
BRANCH  19  20
ATOM     20  C   UNL     1      -0.618  -0.182  -4.830  0.00  0.00    +0.137 C 
ATOM     21  C   UNL     1       0.232   0.878  -5.534  0.00  0.00    +0.029 C 
BRANCH  20  23
ATOM     22  N   UNL     1       0.010  -0.012  -2.444  0.00  0.00    -0.311 N 
ATOM     23  C   UNL     1       0.111  -0.681  -3.609  0.00  0.00    +0.226 C 
ATOM     24  O   UNL     1       0.788  -1.685  -3.676  0.00  0.00    -0.275 OA
ATOM     25  H   UNL     1      -0.605   0.898  -2.384  0.00  0.00    +0.149 HD
BRANCH  22  32
ATOM     26  C   UNL     1      -1.433  -0.534   0.013  0.00  0.00    +0.009 C 
ATOM     27  C   UNL     1       0.002  -0.004   0.002  0.00  0.00    +0.006 C 
ATOM     28  C   UNL     1      -0.019   1.526   0.010  0.00  0.00    +0.005 C 
ATOM     29  C   UNL     1       1.417   2.055  -0.000  0.00  0.00    +0.000 C 
ATOM     30  C   UNL     1       2.133   1.562  -1.259  0.00  0.00    +0.002 C 
ATOM     31  C   UNL     1       2.154   0.032  -1.268  0.00  0.00    +0.022 C 
ATOM     32  C   UNL     1       0.718  -0.497  -1.257  0.00  0.00    +0.076 C 
ENDBRANCH  22  32
ENDBRANCH  20  23
ENDBRANCH  19  20
ENDBRANCH   1  19
TORSDOF 7
