REMARK  Name = ZINC23037355
REMARK  11 active torsions:
REMARK  status: ('A' for Active; 'I' for Inactive)
REMARK    1  A    between atoms: C_1  and  C_2
REMARK    2  A    between atoms: C_5  and  N_9
REMARK    3  A    between atoms: C_6  and  C_8
REMARK    4  A    between atoms: C_13  and  C_15
REMARK    5  A    between atoms: C_15  and  O_16
REMARK    6  A    between atoms: O_16  and  C_17
REMARK    7  A    between atoms: C_17  and  C_19
REMARK    8  A    between atoms: C_19  and  C_20
REMARK    9  A    between atoms: C_20  and  C_22
REMARK   10  A    between atoms: C_20  and  N_29
REMARK   11  A    between atoms: C_30  and  C_32
REMARK                            x       y       z     vdW  Elec       q    Type
REMARK                         _______ _______ _______ _____ _____    ______ ____
ROOT
ATOM      1  C   UNL     1       0.367  -4.375   2.905  0.00  0.00    +0.328 C 
ENDROOT
BRANCH   1   6
ATOM      2  N   UNL     1       0.454  -8.035   6.021  0.00  0.00    -0.269 N 
ATOM      3  C   UNL     1       0.273  -6.720   5.787  0.00  0.00    +0.310 C 
ATOM      4  O   UNL     1      -0.006  -5.972   6.704  0.00  0.00    -0.252 OA
ATOM      5  N   UNL     1       0.403  -6.234   4.536  0.00  0.00    -0.237 N 
ATOM      6  C   UNL     1       0.223  -4.918   4.303  0.00  0.00    +0.258 C 
ATOM      7  O   UNL     1      -0.056  -4.173   5.217  0.00  0.00    -0.272 OA
ATOM      8  H   UNL     1       0.774  -8.700   5.205  0.00  0.00    +0.156 HD
ATOM      9  H   UNL     1       0.656  -6.910   3.707  0.00  0.00    +0.159 HD
BRANCH   2  14
ATOM     10  C   UNL     1      -0.438 -10.141  11.212  0.00  0.00    +0.044 C 
ATOM     11  C   UNL     1      -0.200  -9.582   9.833  0.00  0.00    -0.050 A 
ATOM     12  C   UNL     1       0.317  -8.307   9.685  0.00  0.00    +0.005 A 
ATOM     13  C   UNL     1       0.534  -7.792   8.422  0.00  0.00    +0.024 A 
ATOM     14  C   UNL     1       0.234  -8.554   7.301  0.00  0.00    +0.038 A 
ATOM     15  C   UNL     1      -0.289  -9.831   7.454  0.00  0.00    -0.029 A 
ATOM     16  C   UNL     1      -0.500 -10.343   8.719  0.00  0.00    +0.008 A 
ATOM     17  C   UNL     1      -0.622 -10.660   6.239  0.00  0.00    +0.045 C 
ENDBRANCH   2  14
ENDBRANCH   1   6
BRANCH   1  18
ATOM     18  O   UNL     1       0.126  -2.943   2.915  0.00  0.00    -0.455 OA
BRANCH  18  19
ATOM     19  C   UNL     1       0.217  -2.302   1.739  0.00  0.00    +0.310 C 
ATOM     20  O   UNL     1       0.489  -2.916   0.735  0.00  0.00    -0.251 OA
BRANCH  19  21
ATOM     21  C   UNL     1      -0.020  -0.815   1.672  0.00  0.00    +0.147 C 
BRANCH  21  22
ATOM     22  C   UNL     1       0.143  -0.337   0.227  0.00  0.00    +0.114 C 
BRANCH  22  23
ATOM     23  C   UNL     1       0.028   1.165   0.179  0.00  0.00    -0.027 A 
ATOM     24  C   UNL     1      -1.218   1.760   0.102  0.00  0.00    +0.007 A 
ATOM     25  C   UNL     1      -1.324   3.137   0.063  0.00  0.00    +0.020 A 
ATOM     26  C   UNL     1      -0.184   3.920   0.090  0.00  0.00    +0.041 A 
ATOM     27  C   UNL     1       1.062   3.324   0.161  0.00  0.00    +0.020 A 
ATOM     28  C   UNL     1       1.168   1.946   0.205  0.00  0.00    +0.007 A 
ATOM     29 CL   UNL     1      -0.317   5.650   0.033  0.00  0.00    -0.084 Cl
ENDBRANCH  22  23
BRANCH  22  30
ATOM     30  N   UNL     1      -0.903  -0.935  -0.606  0.00  0.00    -0.308 N 
ATOM     31  C   UNL     1      -0.670  -1.174  -1.912  0.00  0.00    +0.210 C 
ATOM     32  O   UNL     1       0.434  -0.981  -2.376  0.00  0.00    -0.276 OA
ATOM     33  C   UNL     1      -1.780  -1.683  -2.794  0.00  0.00    +0.109 C 
ATOM     34  H   UNL     1      -1.879  -1.188  -0.166  0.00  0.00    +0.149 HD
ENDBRANCH  22  30
ENDBRANCH  21  22
ENDBRANCH  19  21
ENDBRANCH  18  19
ENDBRANCH   1  18
TORSDOF 8
