REMARK  Name = ZINC35427404
REMARK  7 active torsions:
REMARK  status: ('A' for Active; 'I' for Inactive)
REMARK    1  A    between atoms: C_1  and  C_2
REMARK    2  A    between atoms: C_2  and  C_3
REMARK    3  A    between atoms: C_3  and  N_4
REMARK    4  A    between atoms: C_19  and  C_21
REMARK    5  A    between atoms: C_24  and  C_27
REMARK    6  A    between atoms: N_29  and  C_32
REMARK    7  A    between atoms: C_32  and  C_33
REMARK                            x       y       z     vdW  Elec       q    Type
REMARK                         _______ _______ _______ _____ _____    ______ ____
ROOT
ATOM      1  N   UNL     1       1.189  -1.352  -2.094  0.00  0.00    -0.299 N 
ATOM      2  C   UNL     1       1.608  -2.336  -2.914  0.00  0.00    +0.303 C 
ATOM      3  O   UNL     1       2.064  -2.063  -4.008  0.00  0.00    -0.253 OA
ATOM      4  N   UNL     1       1.521  -3.623  -2.522  0.00  0.00    -0.269 N 
ATOM      5  C   UNL     1       0.969  -3.994  -1.207  0.00  0.00    +0.148 C 
ATOM      6  C   UNL     1       1.729  -5.126  -0.552  0.00  0.00    +0.004 A 
ATOM      7  C   UNL     1       2.527  -4.954   0.594  0.00  0.00    -0.034 A 
ATOM      8  C   UNL     1       3.150  -6.051   1.104  0.00  0.00    -0.021 A 
ATOM      9  S   UNL     1       2.655  -7.362   0.018  0.00  0.00    -0.077 S 
ATOM     10  C   UNL     1       1.662  -6.383  -1.068  0.00  0.00    +0.090 A 
ATOM     11  N   UNL     1       0.957  -6.717  -2.217  0.00  0.00    -0.312 N 
ATOM     12  C   UNL     1       0.114  -7.741  -2.486  0.00  0.00    +0.092 A 
ATOM     13  C   UNL     1      -0.366  -7.569  -3.739  0.00  0.00    +0.020 A 
ATOM     14  C   UNL     1       0.225  -6.399  -4.265  0.00  0.00    +0.025 A 
ATOM     15  C   UNL     1       1.049  -5.909  -3.327  0.00  0.00    +0.049 A 
ATOM     16  C   UNL     1       1.971  -4.733  -3.396  0.00  0.00    +0.155 C 
ATOM     17  C   UNL     1       4.041  -6.100   2.302  0.00  0.00    -0.035 C 
ATOM     18  N   UNL     1       4.444  -4.721   2.636  0.00  0.00    +0.383 N 
ATOM     19  C   UNL     1       3.252  -3.864   2.693  0.00  0.00    -0.074 C 
ATOM     20  C   UNL     1       2.716  -3.604   1.283  0.00  0.00    +0.018 C 
ATOM     21  H   UNL     1       0.826  -1.570  -1.221  0.00  0.00    +0.150 HD
ATOM     22  H   UNL     1       5.074  -4.374   1.929  0.00  0.00    -0.081 HD
ENDROOT
BRANCH  16  23
ATOM     23  C   UNL     1       3.348  -5.168  -2.967  0.00  0.00    -0.021 A 
ATOM     24  C   UNL     1       3.812  -6.426  -3.304  0.00  0.00    +0.006 A 
ATOM     25  C   UNL     1       5.075  -6.825  -2.911  0.00  0.00    +0.004 A 
ATOM     26  C   UNL     1       5.875  -5.967  -2.180  0.00  0.00    -0.050 A 
ATOM     27  C   UNL     1       5.412  -4.709  -1.843  0.00  0.00    +0.004 A 
ATOM     28  C   UNL     1       4.150  -4.308  -2.240  0.00  0.00    +0.006 A 
ATOM     29  C   UNL     1       7.252  -6.403  -1.750  0.00  0.00    +0.044 C 
ENDBRANCH  16  23
BRANCH  18  30
ATOM     30  C   UNL     1       5.117  -4.710   3.941  0.00  0.00    -0.082 C 
ATOM     31  C   UNL     1       6.423  -5.502   3.847  0.00  0.00    -0.017 C 
ENDBRANCH  18  30
BRANCH   1  32
ATOM     32  C   UNL     1       1.284   0.047  -2.519  0.00  0.00    +0.105 C 
BRANCH  32  34
ATOM     33  C   UNL     1       0.844   2.415  -1.856  0.00  0.00    +0.005 C 
ATOM     34  C   UNL     1       0.746   0.954  -1.412  0.00  0.00    +0.015 C 
ENDBRANCH  32  34
ENDBRANCH   1  32
TORSDOF 4
