REMARK  Name = ZINC28607656
REMARK  9 active torsions:
REMARK  status: ('A' for Active; 'I' for Inactive)
REMARK    1  A    between atoms: C_1  and  N_2
REMARK    2  A    between atoms: C_6  and  C_28
REMARK    3  A    between atoms: C_11  and  S_12
REMARK    4  A    between atoms: S_12  and  C_13
REMARK    5  A    between atoms: C_13  and  C_14
REMARK    6  A    between atoms: N_16  and  C_17
REMARK    7  A    between atoms: C_20  and  N_25
REMARK    8  A    between atoms: C_22  and  O_23
REMARK    9  A    between atoms: O_23  and  C_24
REMARK                            x       y       z     vdW  Elec       q    Type
REMARK                         _______ _______ _______ _____ _____    ______ ____
ROOT
ATOM      1  S   UNL     1       5.049   7.470   3.625  0.00  0.00    -0.078 S 
ENDROOT
BRANCH   1  12
ATOM      2  C   UNL     1       4.225   4.627   3.784  0.00  0.00    +0.154 C 
ATOM      3  N   UNL     1       3.548   5.397   2.737  0.00  0.00    -0.290 N 
ATOM      4  C   UNL     1       2.639   4.789   1.954  0.00  0.00    +0.263 A 
ATOM      5  O   UNL     1       2.380   3.608   2.111  0.00  0.00    -0.267 OA
ATOM      6  C   UNL     1       1.977   5.545   0.939  0.00  0.00    +0.080 A 
ATOM      7  C   UNL     1       0.971   5.111  -0.026  0.00  0.00    +0.010 A 
ATOM      8  C   UNL     1       0.483   6.015  -0.911  0.00  0.00    +0.057 A 
ATOM      9  S   UNL     1       1.361   7.511  -0.499  0.00  0.00    -0.076 S 
ATOM     10  C   UNL     1       2.353   6.896   0.838  0.00  0.00    +0.117 A 
ATOM     11  N   UNL     1       3.259   7.437   1.643  0.00  0.00    -0.216 NA
ATOM     12  C   UNL     1       3.851   6.718   2.575  0.00  0.00    +0.173 A 
BRANCH   7  13
ATOM     13  C   UNL     1       0.489   3.714  -0.035  0.00  0.00    +0.021 A 
ATOM     14  C   UNL     1      -0.798   3.245  -0.033  0.00  0.00    +0.016 A 
ATOM     15  C   UNL     1      -1.006   1.881  -0.049  0.00  0.00    +0.008 A 
ATOM     16  C   UNL     1       0.066   1.050  -0.054  0.00  0.00    +0.046 A 
ATOM     17  S   UNL     1       1.432   2.198  -0.050  0.00  0.00    -0.097 S 
ENDBRANCH   7  13
ENDBRANCH   1  12
BRANCH   1  18
ATOM     18  C   UNL     1       5.031   9.156   2.966  0.00  0.00    +0.173 C 
BRANCH  18  19
ATOM     19  C   UNL     1       6.009  10.006   3.734  0.00  0.00    +0.228 C 
ATOM     20  O   UNL     1       6.656   9.521   4.638  0.00  0.00    -0.275 OA
ATOM     21  N   UNL     1       6.166  11.307   3.416  0.00  0.00    -0.282 N 
ATOM     22  H   UNL     1       5.635  11.729   2.550  0.00  0.00    +0.155 HD
BRANCH  21  23
ATOM     23  C   UNL     1       7.006  12.120   4.188  0.00  0.00    +0.076 A 
ATOM     24  C   UNL     1       8.158  11.594   4.753  0.00  0.00    +0.029 A 
ATOM     25  C   UNL     1       8.984  12.398   5.514  0.00  0.00    +0.035 A 
ATOM     26  C   UNL     1       8.666  13.729   5.715  0.00  0.00    +0.130 A 
ATOM     27  C   UNL     1       7.519  14.261   5.155  0.00  0.00    +0.080 A 
ATOM     28  C   UNL     1       6.688  13.462   4.386  0.00  0.00    +0.143 A 
BRANCH  26  29
ATOM     29  N   UNL     1       9.555  14.585   6.531  0.00  0.00    +0.057 N 
ATOM     30  O   UNL     1      10.566  14.118   7.024  0.00  0.00    -0.126 OA
ATOM     31  O   UNL     1       9.277  15.758   6.708  0.00  0.00    -0.126 OA
ENDBRANCH  26  29
BRANCH  28  32
ATOM     32  O   UNL     1       5.563  13.986   3.830  0.00  0.00    -0.493 OA
ATOM     33  C   UNL     1       5.301  15.369   4.076  0.00  0.00    +0.277 C 
ENDBRANCH  28  32
ENDBRANCH  21  23
ENDBRANCH  18  19
ENDBRANCH   1  18
TORSDOF 7
