REMARK  Name = ZINC13601857
REMARK  6 active torsions:
REMARK  status: ('A' for Active; 'I' for Inactive)
REMARK    1  A    between atoms: C_1  and  C_2
REMARK    2  A    between atoms: N_4  and  C_21
REMARK    3  A    between atoms: C_5  and  O_6
REMARK    4  A    between atoms: C_7  and  C_8
REMARK    5  A    between atoms: N_9  and  C_10
REMARK    6  A    between atoms: C_13  and  C_15
REMARK                            x       y       z     vdW  Elec       q    Type
REMARK                         _______ _______ _______ _____ _____    ______ ____
ROOT
ATOM      1  C   UNL     1      -0.018   1.503   0.010  0.00  0.00    +0.068 C 
ATOM      2  C   UNL     1       0.002  -0.004   0.002  0.00  0.00    +0.073 A 
ATOM      3  N   UNL     1       0.008  -0.763  -1.058  0.00  0.00    -0.168 NA
ATOM      4  N   UNL     1       0.028  -2.105  -0.664  0.00  0.00    -0.200 N 
ATOM      5  C   UNL     1       0.034  -2.155   0.685  0.00  0.00    +0.225 A 
ATOM      6  C   UNL     1       0.024  -0.841   1.144  0.00  0.00    +0.077 A 
ENDROOT
BRANCH   4   7
ATOM      7  C   UNL     1       0.039  -3.211  -1.525  0.00  0.00    +0.069 A 
ATOM      8  C   UNL     1       0.740  -4.357  -1.175  0.00  0.00    +0.029 A 
ATOM      9  C   UNL     1       0.750  -5.446  -2.025  0.00  0.00    +0.022 A 
ATOM     10  C   UNL     1       0.061  -5.395  -3.224  0.00  0.00    +0.041 A 
ATOM     11  C   UNL     1      -0.638  -4.253  -3.575  0.00  0.00    +0.022 A 
ATOM     12  C   UNL     1      -0.656  -3.165  -2.726  0.00  0.00    +0.029 A 
ATOM     13 CL   UNL     1       0.075  -6.765  -4.291  0.00  0.00    -0.084 Cl
ENDBRANCH   4   7
BRANCH   5  14
ATOM     14  O   UNL     1       0.053  -3.273   1.448  0.00  0.00    -0.492 OA
ATOM     15  H   UNL     1       0.942  -3.586   1.667  0.00  0.00    +0.294 HD
ENDBRANCH   5  14
BRANCH   6  16
ATOM     16  C   UNL     1       0.032  -0.406   2.543  0.00  0.00    +0.128 C 
ATOM     17  N   UNL     1       0.053  -1.294   3.504  0.00  0.00    -0.228 NA
BRANCH  17  18
ATOM     18  C   UNL     1       0.060  -0.891   4.802  0.00  0.00    +0.215 A 
ATOM     19  N   UNL     1       0.042   0.340   5.317  0.00  0.00    -0.121 NA
ATOM     20  N   UNL     1       0.052   0.537   6.562  0.00  0.00    -0.139 NA
ATOM     21  C   UNL     1       0.081  -0.467   7.433  0.00  0.00    +0.134 A 
ATOM     22  S   UNL     1       0.087  -1.859   6.307  0.00  0.00    -0.026 S 
BRANCH  21  23
ATOM     23  C   UNL     1       0.097  -0.441   8.910  0.00  0.00    +0.009 A 
ATOM     24  C   UNL     1       0.134  -1.636   9.632  0.00  0.00    +0.010 A 
ATOM     25  C   UNL     1       0.149  -1.604  11.011  0.00  0.00    +0.001 A 
ATOM     26  C   UNL     1       0.127  -0.393  11.679  0.00  0.00    +0.000 A 
ATOM     27  C   UNL     1       0.089   0.795  10.970  0.00  0.00    +0.001 A 
ATOM     28  C   UNL     1       0.081   0.778   9.590  0.00  0.00    +0.010 A 
ENDBRANCH  21  23
ENDBRANCH  17  18
ENDBRANCH   6  16
TORSDOF 5
