REMARK  Name = ZINC12309667
REMARK  10 active torsions:
REMARK  status: ('A' for Active; 'I' for Inactive)
REMARK    1  A    between atoms: C_1  and  C_2
REMARK    2  A    between atoms: C_2  and  C_3
REMARK    3  A    between atoms: C_3  and  C_4
REMARK    4  A    between atoms: C_10  and  N_11
REMARK    5  A    between atoms: N_11  and  O_12
REMARK    6  A    between atoms: O_12  and  C_13
REMARK    7  A    between atoms: C_13  and  C_14
REMARK    8  A    between atoms: C_14  and  N_15
REMARK    9  A    between atoms: N_23  and  C_28
REMARK   10  A    between atoms: N_26  and  C_27
REMARK                            x       y       z     vdW  Elec       q    Type
REMARK                         _______ _______ _______ _____ _____    ______ ____
ROOT
ATOM      1  C   UNL     1       1.202   5.850  -0.450  0.00  0.00    -0.005 A 
ATOM      2  C   UNL     1       2.275   5.044  -0.498  0.00  0.00    +0.090 A 
ATOM      3  N   UNL     1       2.183   3.703  -0.237  0.00  0.00    -0.347 N 
ATOM      4  H   UNL     1       3.095   3.114  -0.056  0.00  0.00    +0.167 HD
ATOM      5  C   UNL     1       0.988   3.056  -0.194  0.00  0.00    +0.129 A 
ATOM      6  C   UNL     1      -0.194   3.788  -0.125  0.00  0.00    +0.106 A 
ATOM      7  C   UNL     1      -0.108   5.260  -0.112  0.00  0.00    +0.082 A 
ATOM      8  C   UNL     1      -1.432   3.107  -0.070  0.00  0.00    +0.268 A 
ATOM      9  O   UNL     1      -2.478   3.727  -0.006  0.00  0.00    -0.267 OA
ATOM     10  N   UNL     1      -1.433   1.756  -0.095  0.00  0.00    -0.263 N 
ATOM     11  C   UNL     1      -0.279   1.070  -0.160  0.00  0.00    +0.333 A 
ATOM     12  O   UNL     1      -0.317  -0.145  -0.178  0.00  0.00    -0.246 OA
ATOM     13  N   UNL     1       0.916   1.687  -0.211  0.00  0.00    -0.282 N 
ATOM     14  C   UNL     1       2.144   0.892  -0.286  0.00  0.00    +0.155 C 
ATOM     15  C   UNL     1      -2.705   1.032  -0.045  0.00  0.00    +0.157 C 
ENDROOT
BRANCH   7  16
ATOM     16  N   UNL     1      -1.146   6.009   0.184  0.00  0.00    -0.265 N 
ATOM     17  H   UNL     1      -1.192   7.050  -0.168  0.00  0.00    +0.194 HD
BRANCH  16  18
ATOM     18  O   UNL     1      -2.206   5.476   0.958  0.00  0.00    -0.276 OA
BRANCH  18  19
ATOM     19  C   UNL     1      -3.314   6.365   1.117  0.00  0.00    +0.174 C 
BRANCH  19  20
ATOM     20  C   UNL     1      -4.337   5.740   2.067  0.00  0.00    -0.048 C 
BRANCH  20  21
ATOM     21  N   UNL     1      -3.737   5.585   3.399  0.00  0.00    +0.381 N 
ATOM     22  C   UNL     1      -4.470   4.591   4.194  0.00  0.00    -0.079 C 
ATOM     23  C   UNL     1      -3.735   4.349   5.514  0.00  0.00    -0.019 C 
ATOM     24  C   UNL     1      -3.631   5.669   6.284  0.00  0.00    -0.004 C 
ATOM     25  C   UNL     1      -2.906   6.701   5.415  0.00  0.00    -0.019 C 
ATOM     26  C   UNL     1      -3.665   6.874   4.098  0.00  0.00    -0.079 C 
ATOM     27  H   UNL     1      -2.709   5.216   3.268  0.00  0.00    -0.082 HD
ENDBRANCH  20  21
ENDBRANCH  19  20
ENDBRANCH  18  19
ENDBRANCH  16  18
ENDBRANCH   7  16
BRANCH   1  28
ATOM     28  C   UNL     1       1.333   7.324  -0.735  0.00  0.00    +0.038 C 
BRANCH  28  30
ATOM     29  C   UNL     1       2.861   9.297  -0.613  0.00  0.00    +0.004 C 
ATOM     30  C   UNL     1       2.728   7.801  -0.324  0.00  0.00    +0.001 C 
ENDBRANCH  28  30
ENDBRANCH   1  28
TORSDOF 7
