REMARK  Name = ZINC64640468
REMARK  6 active torsions:
REMARK  status: ('A' for Active; 'I' for Inactive)
REMARK    1  A    between atoms: C_1  and  C_2
REMARK    2  A    between atoms: C_2  and  N_3
REMARK    3  A    between atoms: C_7  and  C_8
REMARK    4  A    between atoms: C_8  and  N_9
REMARK    5  A    between atoms: C_22  and  C_24
REMARK    6  A    between atoms: C_28  and  C_30
REMARK                            x       y       z     vdW  Elec       q    Type
REMARK                         _______ _______ _______ _____ _____    ______ ____
ROOT
ATOM      1  N   UNL     1       2.980   1.162  -0.338  0.00  0.00    -0.286 NA
ATOM      2  C   UNL     1       1.707   1.868  -0.172  0.00  0.00    +0.090 C 
ATOM      3  C   UNL     1       1.880   3.362  -0.504  0.00  0.00    +0.049 C 
ATOM      4  C   UNL     1       3.079   3.831   0.282  0.00  0.00    -0.035 C 
ATOM      5  C   UNL     1       3.272   4.871   1.079  0.00  0.00    -0.001 A 
ATOM      6  C   UNL     1       2.432   6.038   1.393  0.00  0.00    +0.010 A 
ATOM      7  C   UNL     1       2.941   6.920   2.294  0.00  0.00    +0.001 A 
ATOM      8  C   UNL     1       4.187   6.759   2.908  0.00  0.00    +0.002 A 
ATOM      9  C   UNL     1       5.031   5.723   2.671  0.00  0.00    +0.026 A 
ATOM     10  C   UNL     1       4.610   4.736   1.733  0.00  0.00    +0.043 A 
ATOM     11  N   UNL     1       5.221   3.671   1.302  0.00  0.00    -0.376 N 
ATOM     12  C   UNL     1       4.388   3.047   0.277  0.00  0.00    +0.128 C 
ATOM     13  C   UNL     1       4.019   1.600   0.608  0.00  0.00    +0.114 C 
ATOM     14  H   UNL     1       6.083   3.347   1.609  0.00  0.00    +0.160 HD
ENDROOT
BRANCH  13  15
ATOM     15  C   UNL     1       5.235   0.721   0.471  0.00  0.00    -0.027 A 
ATOM     16  C   UNL     1       5.756   0.452  -0.781  0.00  0.00    +0.005 A 
ATOM     17  C   UNL     1       6.872  -0.354  -0.907  0.00  0.00    +0.001 A 
ATOM     18  C   UNL     1       7.466  -0.892   0.220  0.00  0.00    +0.012 A 
ATOM     19  C   UNL     1       6.946  -0.623   1.471  0.00  0.00    +0.055 A 
ATOM     20  C   UNL     1       5.832   0.188   1.597  0.00  0.00    +0.017 A 
BRANCH  19  21
ATOM     21  C   UNL     1       7.593  -1.209   2.699  0.00  0.00    +0.417 C 
ATOM     22  F   UNL     1       8.695  -1.984   2.320  0.00  0.00    -0.166 F 
ATOM     23  F   UNL     1       8.018  -0.176   3.541  0.00  0.00    -0.166 F 
ATOM     24  F   UNL     1       6.669  -2.012   3.376  0.00  0.00    -0.166 F 
ENDBRANCH  19  21
ENDBRANCH  13  15
BRANCH   1  25
ATOM     25  C   UNL     1       2.787  -0.293  -0.271  0.00  0.00    +0.157 C 
BRANCH  25  30
ATOM     26  N   UNL     1       2.117  -0.982  -2.626  0.00  0.00    -0.335 N 
ATOM     27  C   UNL     1       0.955  -1.339  -3.254  0.00  0.00    +0.104 A 
ATOM     28  C   UNL     1      -0.022  -1.279  -2.329  0.00  0.00    +0.101 A 
ATOM     29  N   UNL     1       0.529  -0.895  -1.168  0.00  0.00    -0.349 N 
ATOM     30  C   UNL     1       1.811  -0.720  -1.337  0.00  0.00    +0.101 A 
ATOM     31  H   UNL     1       0.051  -0.771  -0.333  0.00  0.00    +0.166 HD
BRANCH  26  33
ATOM     32  C   UNL     1       4.191  -2.220  -3.008  0.00  0.00    +0.027 C 
ATOM     33  C   UNL     1       3.447  -0.903  -3.237  0.00  0.00    +0.119 C 
ENDBRANCH  26  33
ENDBRANCH  25  30
ENDBRANCH   1  25
TORSDOF 5
