REMARK  Name = ZINC40292791
REMARK  3 active torsions:
REMARK  status: ('A' for Active; 'I' for Inactive)
REMARK    1  A    between atoms: C_1  and  C_2
REMARK    2  A    between atoms: C_3  and  N_16
REMARK    3  A    between atoms: C_5  and  C_7
REMARK                            x       y       z     vdW  Elec       q    Type
REMARK                         _______ _______ _______ _____ _____    ______ ____
ROOT
ATOM      1  C   UNL     1       1.047  -4.020  -0.024  0.00  0.00    +0.254 C 
ATOM      2  O   UNL     1       0.280  -4.965  -0.025  0.00  0.00    -0.269 OA
ATOM      3  N   UNL     1       2.374  -4.229  -0.133  0.00  0.00    -0.287 N 
ATOM      4  C   UNL     1       2.928  -5.588  -0.261  0.00  0.00    +0.127 C 
ATOM      5  C   UNL     1       3.657  -5.681  -1.603  0.00  0.00    +0.123 C 
ATOM      6  N   UNL     1       4.519  -4.524  -1.804  0.00  0.00    -0.313 N 
ATOM      7  C   UNL     1       4.367  -3.351  -1.188  0.00  0.00    +0.230 C 
ATOM      8  O   UNL     1       5.101  -2.436  -1.498  0.00  0.00    -0.274 OA
ATOM      9  C   UNL     1       3.328  -3.109  -0.134  0.00  0.00    +0.203 C 
ATOM     10  H   UNL     1       5.255  -4.614  -2.430  0.00  0.00    +0.149 HD
ENDROOT
BRANCH   1  15
ATOM     11  C   UNL     1       0.014   1.481   0.531  0.00  0.00    +0.053 C 
ATOM     12  C   UNL     1       0.026  -0.016   0.361  0.00  0.00    +0.008 A 
ATOM     13  C   UNL     1      -1.028  -0.867   0.189  0.00  0.00    +0.035 A 
ATOM     14  C   UNL     1      -0.786  -2.214   0.052  0.00  0.00    +0.043 A 
ATOM     15  C   UNL     1       0.528  -2.655   0.095  0.00  0.00    +0.076 A 
ATOM     16  S   UNL     1       1.423  -1.127   0.325  0.00  0.00    -0.087 S 
BRANCH  13  17
ATOM     17  N   UNL     1      -2.345  -0.372   0.152  0.00  0.00    -0.357 N 
ATOM     18  H   UNL     1      -2.508   0.579   0.250  0.00  0.00    +0.142 HD
ATOM     19  H   UNL     1      -3.089  -0.982   0.029  0.00  0.00    +0.142 HD
ENDBRANCH  13  17
ENDBRANCH   1  15
TORSDOF 2
