REMARK  Name = ZINC34669849
REMARK  4 active torsions:
REMARK  status: ('A' for Active; 'I' for Inactive)
REMARK    1  A    between atoms: C_1  and  C_2
REMARK    2  A    between atoms: C_2  and  C_3
REMARK    3  A    between atoms: C_2  and  C_4
REMARK    4  A    between atoms: C_2  and  C_5
REMARK                            x       y       z     vdW  Elec       q    Type
REMARK                         _______ _______ _______ _____ _____    ______ ____
ROOT
ATOM      1  C   UNL     1       0.718  -0.497  -1.257  0.00  0.00    -0.000 C 
ATOM      2  C   UNL     1      -0.016   0.015  -2.500  0.00  0.00    +0.010 C 
ATOM      3  C   UNL     1       0.547  -0.659  -3.752  0.00  0.00    +0.054 C 
ATOM      4  C   UNL     1       2.060  -0.494  -3.761  0.00  0.00    +0.029 A 
ATOM      5  C   UNL     1       2.724  -0.183  -2.640  0.00  0.00    +0.014 A 
ATOM      6  S   UNL     1       4.414  -0.107  -3.165  0.00  0.00    -0.032 S 
ATOM      7  C   UNL     1       4.179  -0.478  -4.790  0.00  0.00    +0.288 A 
ATOM      8  O   UNL     1       5.014  -0.574  -5.672  0.00  0.00    -0.260 OA
ATOM      9  N   UNL     1       2.845  -0.644  -4.879  0.00  0.00    -0.320 N 
ATOM     10  H   UNL     1       2.439  -0.870  -5.730  0.00  0.00    +0.169 HD
ATOM     11  C   UNL     1       2.158   0.039  -1.274  0.00  0.00    +0.048 C 
ENDROOT
BRANCH   1  13
ATOM     12  C   UNL     1      -0.019   1.526   0.010  0.00  0.00    +0.011 C 
ATOM     13  C   UNL     1       0.002  -0.004   0.002  0.00  0.00    -0.035 C 
ATOM     14  C   UNL     1       0.742  -0.511   1.242  0.00  0.00    +0.011 C 
ATOM     15  C   UNL     1      -1.433  -0.534   0.013  0.00  0.00    +0.011 C 
ENDBRANCH   1  13
TORSDOF 1
