REMARK  Name = ZINC15078082
REMARK  10 active torsions:
REMARK  status: ('A' for Active; 'I' for Inactive)
REMARK    1  A    between atoms: C_1  and  O_2
REMARK    2  A    between atoms: O_2  and  C_3
REMARK    3  A    between atoms: C_3  and  C_4
REMARK    4  A    between atoms: C_7  and  C_9
REMARK    5  A    between atoms: C_9  and  N_10
REMARK    6  A    between atoms: N_10  and  C_11
REMARK    7  A    between atoms: N_10  and  C_18
REMARK    8  A    between atoms: C_11  and  C_12
REMARK    9  A    between atoms: C_18  and  C_19
REMARK   10  A    between atoms: N_22  and  C_25
REMARK                            x       y       z     vdW  Elec       q    Type
REMARK                         _______ _______ _______ _____ _____    ______ ____
ROOT
ATOM      1  N   UNL     1      -2.228  -5.845  -2.217  0.00  0.00    +0.386 N 
ATOM      2  H   UNL     1      -2.792  -6.014  -1.398  0.00  0.00    -0.081 HD
ENDROOT
BRANCH   1   3
ATOM      3  C   UNL     1      -0.902  -5.362  -1.809  0.00  0.00    -0.003 C 
BRANCH   3   7
ATOM      4  C   UNL     1      -1.236  -2.012  -0.394  0.00  0.00    +0.131 A 
ATOM      5  C   UNL     1      -1.305  -2.731   0.741  0.00  0.00    +0.047 A 
ATOM      6  C   UNL     1      -1.190  -4.091   0.372  0.00  0.00    +0.043 A 
ATOM      7  C   UNL     1      -1.058  -4.122  -0.967  0.00  0.00    +0.089 A 
ATOM      8  O   UNL     1      -1.091  -2.860  -1.425  0.00  0.00    -0.464 OA
BRANCH   4   9
ATOM      9  C   UNL     1      -1.313  -0.510  -0.491  0.00  0.00    +0.233 C 
BRANCH   9  11
ATOM     10  C   UNL     1       0.041   1.468  -0.479  0.00  0.00    +0.194 C 
ATOM     11  O   UNL     1       0.002   0.041  -0.398  0.00  0.00    -0.375 OA
ENDBRANCH   9  11
ENDBRANCH   4   9
ENDBRANCH   3   7
ENDBRANCH   1   3
BRANCH   1  12
ATOM     12  C   UNL     1      -2.880  -4.834  -3.060  0.00  0.00    -0.046 C 
BRANCH  12  13
ATOM     13  C   UNL     1      -2.105  -4.685  -4.370  0.00  0.00    +0.102 C 
ATOM     14  C   UNL     1      -2.822  -3.682  -5.309  0.00  0.00    +0.032 C 
ATOM     15  C   UNL     1      -1.636  -3.203  -6.190  0.00  0.00    +0.030 C 
ATOM     16  C   UNL     1      -0.458  -3.225  -5.193  0.00  0.00    +0.160 C 
ATOM     17  O   UNL     1      -0.812  -4.111  -4.123  0.00  0.00    -0.378 OA
ENDBRANCH  12  13
ENDBRANCH   1  12
BRANCH   1  18
ATOM     18  C   UNL     1      -2.081  -7.094  -2.977  0.00  0.00    -0.075 C 
BRANCH  18  19
ATOM     19  C   UNL     1      -3.466  -7.658  -3.303  0.00  0.00    -0.031 C 
ATOM     20  C   UNL     1      -4.195  -8.009  -2.003  0.00  0.00    -0.017 C 
ATOM     21  C   UNL     1      -5.546  -8.645  -2.339  0.00  0.00    -0.078 C 
ATOM     22  N   UNL     1      -5.333  -9.865  -3.127  0.00  0.00    +0.382 N 
ATOM     23  C   UNL     1      -4.698  -9.528  -4.406  0.00  0.00    -0.078 C 
ATOM     24  C   UNL     1      -3.315  -8.925  -4.151  0.00  0.00    -0.017 C 
ATOM     25  H   UNL     1      -4.737 -10.497  -2.613  0.00  0.00    -0.081 HD
BRANCH  22  26
ATOM     26  C   UNL     1      -6.627 -10.514  -3.380  0.00  0.00    -0.060 C 
ATOM     27  C   UNL     1      -6.429 -11.885  -4.062  0.00  0.00    +0.020 C 
ATOM     28  C   UNL     1      -6.359 -12.885  -2.928  0.00  0.00    -0.046 A 
ATOM     29  C   UNL     1      -5.888 -14.187  -2.908  0.00  0.00    +0.004 A 
ATOM     30  C   UNL     1      -5.925 -14.922  -1.738  0.00  0.00    +0.000 A 
ATOM     31  C   UNL     1      -6.434 -14.356  -0.584  0.00  0.00    +0.000 A 
ATOM     32  C   UNL     1      -6.905 -13.058  -0.603  0.00  0.00    +0.004 A 
ATOM     33  C   UNL     1      -6.869 -12.320  -1.774  0.00  0.00    -0.046 A 
ATOM     34  C   UNL     1      -7.315 -10.901  -2.054  0.00  0.00    +0.020 C 
ENDBRANCH  22  26
ENDBRANCH  18  19
ENDBRANCH   1  18
TORSDOF 9
