REMARK  Name = ZINC11859251
REMARK  10 active torsions:
REMARK  status: ('A' for Active; 'I' for Inactive)
REMARK    1  A    between atoms: C_1  and  C_2
REMARK    2  A    between atoms: C_2  and  N_3
REMARK    3  A    between atoms: N_3  and  C_4
REMARK    4  A    between atoms: N_3  and  C_11
REMARK    5  A    between atoms: C_4  and  C_5
REMARK    6  A    between atoms: C_14  and  C_17
REMARK    7  A    between atoms: C_19  and  C_31
REMARK    8  A    between atoms: C_21  and  C_26
REMARK    9  A    between atoms: C_21  and  O_30
REMARK   10  A    between atoms: C_31  and  C_33
REMARK                            x       y       z     vdW  Elec       q    Type
REMARK                         _______ _______ _______ _____ _____    ______ ____
ROOT
ATOM      1  C   UNL     1      -1.228   7.403  -0.660  0.00  0.00    +0.120 C 
ATOM      2  C   UNL     1      -1.385   6.053   0.047  0.00  0.00    +0.144 C 
ATOM      3  C   UNL     1      -1.817   6.304   1.496  0.00  0.00    +0.243 C 
ATOM      4  N   UNL     1      -3.034   7.117   1.501  0.00  0.00    -0.264 N 
ATOM      5  C   UNL     1      -3.296   7.987   0.513  0.00  0.00    +0.302 C 
ATOM      6  O   UNL     1      -4.316   8.645   0.571  0.00  0.00    -0.253 OA
ATOM      7  N   UNL     1      -2.476   8.159  -0.535  0.00  0.00    -0.292 N 
ATOM      8  H   UNL     1      -3.664   7.025   2.232  0.00  0.00    +0.153 HD
ATOM      9  H   UNL     1      -2.716   8.795  -1.226  0.00  0.00    +0.151 HD
ENDROOT
BRANCH   1  13
ATOM     10  C   UNL     1      -0.345   6.757  -4.792  0.00  0.00    +0.030 A 
ATOM     11  C   UNL     1       0.676   7.064  -3.901  0.00  0.00    +0.023 A 
ATOM     12  C   UNL     1       0.387   7.272  -2.567  0.00  0.00    +0.007 A 
ATOM     13  C   UNL     1      -0.917   7.175  -2.117  0.00  0.00    -0.026 A 
ATOM     14  C   UNL     1      -1.935   6.864  -2.999  0.00  0.00    +0.007 A 
ATOM     15  C   UNL     1      -1.654   6.660  -4.336  0.00  0.00    +0.023 A 
BRANCH  10  16
ATOM     16  N   UNL     1      -0.056   6.546  -6.142  0.00  0.00    -0.326 N 
BRANCH  16  18
ATOM     17  C   UNL     1       2.000   5.279  -6.526  0.00  0.00    +0.024 C 
ATOM     18  C   UNL     1       1.325   6.649  -6.620  0.00  0.00    +0.102 C 
ENDBRANCH  16  18
BRANCH  16  19
ATOM     19  C   UNL     1      -1.134   6.223  -7.080  0.00  0.00    +0.140 C 
BRANCH  19  20
ATOM     20  C   UNL     1      -1.696   7.496  -7.658  0.00  0.00    -0.030 A 
ATOM     21  C   UNL     1      -2.752   8.132  -7.032  0.00  0.00    +0.005 A 
ATOM     22  C   UNL     1      -3.264   9.303  -7.561  0.00  0.00    +0.000 A 
ATOM     23  C   UNL     1      -2.727   9.831  -8.720  0.00  0.00    +0.000 A 
ATOM     24  C   UNL     1      -1.674   9.192  -9.348  0.00  0.00    +0.000 A 
ATOM     25  C   UNL     1      -1.159   8.024  -8.817  0.00  0.00    +0.005 A 
ENDBRANCH  19  20
ENDBRANCH  16  19
ENDBRANCH  10  16
ENDBRANCH   1  13
BRANCH   3  26
ATOM     26  C   UNL     1      -2.091   4.967   2.187  0.00  0.00    +0.436 C 
ATOM     27  F   UNL     1      -0.929   4.189   2.175  0.00  0.00    -0.166 F 
ATOM     28  F   UNL     1      -2.485   5.197   3.509  0.00  0.00    -0.166 F 
ATOM     29  F   UNL     1      -3.111   4.291   1.508  0.00  0.00    -0.166 F 
ENDBRANCH   3  26
BRANCH   3  30
ATOM     30  O   UNL     1      -0.777   6.996   2.191  0.00  0.00    -0.364 OA
ATOM     31  H   UNL     1      -0.983   7.188   3.116  0.00  0.00    +0.212 HD
ENDBRANCH   3  30
BRANCH   2  32
ATOM     32  C   UNL     1      -0.070   5.317   0.031  0.00  0.00    +0.173 C 
ATOM     33  O   UNL     1       0.972   5.938   0.025  0.00  0.00    -0.292 OA
BRANCH  32  34
ATOM     34  C   UNL     1      -0.050   3.846   0.023  0.00  0.00    +0.018 A 
ATOM     35  C   UNL     1       1.168   3.159   0.008  0.00  0.00    +0.011 A 
ATOM     36  C   UNL     1       1.179   1.780   0.000  0.00  0.00    +0.001 A 
ATOM     37  C   UNL     1      -0.013   1.076   0.008  0.00  0.00    +0.000 A 
ATOM     38  C   UNL     1      -1.222   1.748   0.017  0.00  0.00    +0.001 A 
ATOM     39  C   UNL     1      -1.250   3.126   0.030  0.00  0.00    +0.011 A 
ENDBRANCH  32  34
ENDBRANCH   2  32
TORSDOF 9
