REMARK  Name = ZINC01805625
REMARK  3 active torsions:
REMARK  status: ('A' for Active; 'I' for Inactive)
REMARK    1  A    between atoms: C_10  and  O_11
REMARK    2  A    between atoms: O_11  and  S_12
REMARK    3  A    between atoms: S_12  and  C_15
REMARK                            x       y       z     vdW  Elec       q    Type
REMARK                         _______ _______ _______ _____ _____    ______ ____
ROOT
ATOM      1  S   UNL     1       5.381   0.391   1.343  0.00  0.00    +0.151 S 
ATOM      2  O   UNL     1       6.469   1.287   1.161  0.00  0.00    -0.131 OA
ATOM      3  O   UNL     1       4.261   0.708   2.158  0.00  0.00    -0.131 OA
ENDROOT
BRANCH   1   4
ATOM      4  C   UNL     1       6.062  -1.103   1.983  0.00  0.00    +0.130 A 
ATOM      5  C   UNL     1       5.263  -1.969   2.709  0.00  0.00    +0.033 A 
ATOM      6  C   UNL     1       5.787  -3.143   3.214  0.00  0.00    +0.030 A 
ATOM      7  C   UNL     1       7.120  -3.454   2.994  0.00  0.00    +0.067 A 
ATOM      8  C   UNL     1       7.927  -2.580   2.261  0.00  0.00    +0.069 A 
ATOM      9  C   UNL     1       7.390  -1.407   1.753  0.00  0.00    +0.058 A 
ATOM     10  N   UNL     1       9.195  -3.153   2.207  0.00  0.00    -0.306 N 
ATOM     11  H   UNL     1       9.970  -2.775   1.763  0.00  0.00    +0.170 HD
ATOM     12  C   UNL     1       9.162  -4.322   2.875  0.00  0.00    +0.325 A 
ATOM     13  O   UNL     1      10.107  -5.074   3.017  0.00  0.00    -0.247 OA
ATOM     14  N   UNL     1       7.924  -4.531   3.361  0.00  0.00    -0.306 N 
ATOM     15  H   UNL     1       7.640  -5.301   3.879  0.00  0.00    +0.170 HD
ENDBRANCH   1   4
BRANCH   1  16
ATOM     16  O   UNL     1       4.837   0.080  -0.043  0.00  0.00    -0.342 OA
BRANCH  16  26
ATOM     17  C   UNL     1      -0.016   1.357   0.009  0.00  0.00    +0.001 A 
ATOM     18  C   UNL     1       1.169   2.090   0.002  0.00  0.00    +0.001 A 
ATOM     19  C   UNL     1       2.379   1.467  -0.013  0.00  0.00    +0.012 A 
ATOM     20  C   UNL     1       2.437   0.064  -0.021  0.00  0.00    +0.027 A 
ATOM     21  C   UNL     1       1.233  -0.683  -0.013  0.00  0.00    -0.014 A 
ATOM     22  C   UNL     1       0.002  -0.004   0.002  0.00  0.00    +0.008 A 
ATOM     23  C   UNL     1       1.292  -2.087  -0.021  0.00  0.00    +0.009 A 
ATOM     24  C   UNL     1       2.501  -2.713  -0.035  0.00  0.00    +0.004 A 
ATOM     25  C   UNL     1       3.687  -1.984  -0.043  0.00  0.00    +0.049 A 
ATOM     26  C   UNL     1       3.671  -0.617  -0.036  0.00  0.00    +0.164 A 
ENDBRANCH  16  26
ENDBRANCH   1  16
TORSDOF 3
