REMARK  Name = ZINC39674776
REMARK  12 active torsions:
REMARK  status: ('A' for Active; 'I' for Inactive)
REMARK    1  A    between atoms: C_1  and  C_2
REMARK    2  A    between atoms: C_2  and  C_3
REMARK    3  A    between atoms: C_3  and  C_4
REMARK    4  A    between atoms: C_4  and  C_5
REMARK    5  A    between atoms: C_5  and  C_6
REMARK    6  A    between atoms: C_6  and  C_7
REMARK    7  A    between atoms: C_11  and  C_20
REMARK    8  A    between atoms: N_22  and  C_23
REMARK    9  A    between atoms: C_23  and  C_24
REMARK   10  A    between atoms: C_24  and  C_25
REMARK   11  A    between atoms: C_28  and  C_36
REMARK   12  A    between atoms: C_33  and  C_35
REMARK                            x       y       z     vdW  Elec       q    Type
REMARK                         _______ _______ _______ _____ _____    ______ ____
ROOT
ATOM      1  C   UNL     1       2.291  -4.554  -3.895  0.00  0.00    +0.216 C 
ATOM      2  O   UNL     1       2.695  -3.780  -4.736  0.00  0.00    -0.276 OA
ATOM      3  N   UNL     1       2.381  -5.882  -4.102  0.00  0.00    -0.300 N 
ATOM      4  C   UNL     1       1.940  -6.974  -3.203  0.00  0.00    +0.121 C 
ATOM      5  C   UNL     1       1.337  -8.038  -4.147  0.00  0.00    +0.100 C 
ATOM      6  C   UNL     1       2.001  -7.776  -5.509  0.00  0.00    -0.004 C 
ATOM      7  C   UNL     1       2.939  -6.581  -5.285  0.00  0.00    +0.115 C 
ATOM      8  C   UNL     1       0.946  -7.422  -6.552  0.00  0.00    -0.010 C 
ATOM      9  C   UNL     1       1.625  -7.222  -7.910  0.00  0.00    -0.082 C 
ATOM     10  N   UNL     1       2.327  -8.453  -8.294  0.00  0.00    +0.379 N 
ATOM     11  C   UNL     1       3.402  -8.735  -7.335  0.00  0.00    -0.082 C 
ATOM     12  C   UNL     1       2.798  -8.999  -5.952  0.00  0.00    -0.010 C 
ATOM     13  H   UNL     1       1.675  -9.222  -8.303  0.00  0.00    -0.086 HD
ATOM     14  H   UNL     1       2.722  -8.339  -9.215  0.00  0.00    -0.086 HD
ENDROOT
BRANCH   5  15
ATOM     15  C   UNL     1       1.668  -9.424  -3.656  0.00  0.00    +0.218 C 
ATOM     16  O   UNL     1       2.701  -9.622  -3.052  0.00  0.00    -0.275 OA
ATOM     17  N   UNL     1       0.818 -10.443  -3.889  0.00  0.00    -0.315 N 
ATOM     18  H   UNL     1      -0.008 -10.284  -4.373  0.00  0.00    +0.149 HD
BRANCH  17  19
ATOM     19  C   UNL     1       1.140 -11.790  -3.413  0.00  0.00    +0.108 C 
BRANCH  19  20
ATOM     20  C   UNL     1       0.018 -12.752  -3.806  0.00  0.00    +0.052 C 
BRANCH  20  21
ATOM     21  C   UNL     1       0.349 -14.138  -3.316  0.00  0.00    -0.037 C 
ATOM     22  C   UNL     1       1.455 -14.517  -2.624  0.00  0.00    +0.000 A 
ATOM     23  C   UNL     1       2.583 -13.786  -2.168  0.00  0.00    +0.028 A 
ATOM     24  C   UNL     1       3.586 -14.425  -1.476  0.00  0.00    +0.052 A 
ATOM     25  C   UNL     1       3.520 -15.855  -1.195  0.00  0.00    +0.021 A 
ATOM     26  C   UNL     1       2.472 -16.600  -1.604  0.00  0.00    +0.027 A 
ATOM     27  C   UNL     1       1.375 -15.968  -2.345  0.00  0.00    +0.043 A 
ATOM     28  N   UNL     1       0.269 -16.467  -2.841  0.00  0.00    -0.378 N 
ATOM     29  C   UNL     1      -0.484 -15.388  -3.488  0.00  0.00    +0.103 C 
ATOM     30  C   UNL     1      -0.671 -15.696  -4.975  0.00  0.00    +0.035 C 
ATOM     31  H   UNL     1      -0.007 -17.395  -2.787  0.00  0.00    +0.160 HD
BRANCH  24  32
ATOM     32  C   UNL     1       4.717 -13.672  -1.024  0.00  0.00    +0.099 C 
ATOM     33  N   UNL     1       5.614 -13.074  -0.665  0.00  0.00    -0.191 NA
ENDBRANCH  24  32
ENDBRANCH  20  21
ENDBRANCH  19  20
ENDBRANCH  17  19
ENDBRANCH   5  15
BRANCH   1  34
ATOM     34  C   UNL     1       1.687  -4.030  -2.617  0.00  0.00    +0.096 C 
BRANCH  34  35
ATOM     35  C   UNL     1       1.704  -2.500  -2.635  0.00  0.00    +0.009 C 
BRANCH  35  36
ATOM     36  C   UNL     1       1.091  -1.969  -1.337  0.00  0.00    +0.000 C 
BRANCH  36  37
ATOM     37  C   UNL     1       1.108  -0.439  -1.355  0.00  0.00    -0.000 C 
BRANCH  37  39
ATOM     38  C   UNL     1       0.512   1.623  -0.075  0.00  0.00    +0.004 C 
ATOM     39  C   UNL     1       0.495   0.093  -0.058  0.00  0.00    -0.003 C 
ENDBRANCH  37  39
ENDBRANCH  36  37
ENDBRANCH  35  36
ENDBRANCH  34  35
ENDBRANCH   1  34
TORSDOF 10
