REMARK  Name = ZINC23430873
REMARK  7 active torsions:
REMARK  status: ('A' for Active; 'I' for Inactive)
REMARK    1  A    between atoms: C_3  and  C_21
REMARK    2  A    between atoms: C_5  and  C_6
REMARK    3  A    between atoms: C_6  and  N_7
REMARK    4  A    between atoms: C_10  and  C_13
REMARK    5  A    between atoms: C_13  and  N_14
REMARK    6  A    between atoms: C_16  and  C_19
REMARK    7  A    between atoms: C_19  and  N_20
REMARK                            x       y       z     vdW  Elec       q    Type
REMARK                         _______ _______ _______ _____ _____    ______ ____
ROOT
ATOM      1  N   UNL     1       0.678   4.023  -1.262  0.00  0.00    +0.383 N 
ATOM      2  C   UNL     1       1.390   3.586  -0.053  0.00  0.00    -0.078 C 
ATOM      3  C   UNL     1       1.417   2.057  -0.000  0.00  0.00    -0.013 C 
ATOM      4  C   UNL     1      -0.019   1.526   0.010  0.00  0.00    +0.007 C 
ATOM      5  C   UNL     1      -0.752   2.034  -1.234  0.00  0.00    -0.013 C 
ATOM      6  C   UNL     1      -0.717   3.564  -1.251  0.00  0.00    -0.078 C 
ATOM      7  H   UNL     1       1.176   3.563  -2.128  0.00  0.00    -0.081 HD
ENDROOT
BRANCH   1   8
ATOM      8  C   UNL     1       0.752   5.481  -1.418  0.00  0.00    -0.036 C 
BRANCH   8  13
ATOM      9  C   UNL     1      -1.034   6.178  -3.151  0.00  0.00    +0.009 A 
ATOM     10  C   UNL     1      -1.282   6.507  -4.471  0.00  0.00    +0.014 A 
ATOM     11  C   UNL     1      -0.253   6.510  -5.353  0.00  0.00    +0.019 A 
ATOM     12  S   UNL     1       1.123   6.043  -4.315  0.00  0.00    -0.097 S 
ATOM     13  C   UNL     1       0.232   5.868  -2.778  0.00  0.00    -0.026 A 
BRANCH  11  14
ATOM     14  C   UNL     1      -0.265   6.829  -6.825  0.00  0.00    +0.155 C 
ATOM     15  C   UNL     1       0.226   8.262  -7.041  0.00  0.00    +0.037 C 
ATOM     16  C   UNL     1       0.268   8.559  -8.544  0.00  0.00    +0.005 C 
ATOM     17  C   UNL     1       1.166   7.526  -9.232  0.00  0.00    +0.028 C 
ATOM     18  C   UNL     1       0.639   6.121  -8.931  0.00  0.00    +0.160 C 
ATOM     19  O   UNL     1       0.596   5.922  -7.517  0.00  0.00    -0.371 OA
ENDBRANCH  11  14
ENDBRANCH   8  13
ENDBRANCH   1   8
BRANCH   4  20
ATOM     20  C   UNL     1       0.002  -0.004   0.002  0.00  0.00    +0.148 C 
BRANCH  20  21
ATOM     21  N   UNL     1      -1.366  -0.512   0.133  0.00  0.00    -0.251 N 
ATOM     22  C   UNL     1      -1.976  -1.373  -0.714  0.00  0.00    +0.131 A 
ATOM     23  C   UNL     1      -3.220  -1.570  -0.219  0.00  0.00    +0.066 A 
ATOM     24  N   UNL     1      -3.309  -0.831   0.892  0.00  0.00    -0.136 NA
ATOM     25  N   UNL     1      -2.192  -0.220   1.076  0.00  0.00    -0.066 NA
BRANCH  23  26
ATOM     26  C   UNL     1      -4.295  -2.451  -0.804  0.00  0.00    -0.027 C 
BRANCH  26  27
ATOM     27  N   UNL     1      -4.252  -3.770  -0.159  0.00  0.00    +0.382 N 
ATOM     28  H   UNL     1      -5.036  -4.412  -0.586  0.00  0.00    -0.090 HD
ATOM     29  H   UNL     1      -4.421  -3.655   0.922  0.00  0.00    -0.090 HD
ATOM     30  H   UNL     1      -3.268  -4.230  -0.330  0.00  0.00    -0.090 HD
ENDBRANCH  26  27
ENDBRANCH  23  26
ENDBRANCH  20  21
ENDBRANCH   4  20
TORSDOF 7
