REMARK  Name = ZINC43611724
REMARK  4 active torsions:
REMARK  status: ('A' for Active; 'I' for Inactive)
REMARK    1  A    between atoms: C_8  and  C_13
REMARK    2  A    between atoms: C_13  and  O_14
REMARK    3  A    between atoms: O_14  and  C_15
REMARK    4  A    between atoms: C_15  and  C_17
REMARK                            x       y       z     vdW  Elec       q    Type
REMARK                         _______ _______ _______ _____ _____    ______ ____
ROOT
ATOM      1  O   UNL     1      -0.642  -3.981  -1.071  0.00  0.00    -0.464 OA
ENDROOT
BRANCH   1   2
ATOM      2  C   UNL     1      -1.832  -4.601  -1.093  0.00  0.00    +0.313 C 
ATOM      3  O   UNL     1      -2.845  -3.959  -1.243  0.00  0.00    -0.250 OA
BRANCH   2   4
ATOM      4  C   UNL     1      -1.906  -6.097  -0.929  0.00  0.00    +0.070 C 
ATOM      5  C   UNL     1      -1.308  -6.492   0.423  0.00  0.00    +0.021 C 
ATOM      6  C   UNL     1      -1.383  -8.011   0.590  0.00  0.00    -0.008 C 
ATOM      7  C   UNL     1      -2.844  -8.459   0.528  0.00  0.00    +0.007 C 
ATOM      8  C   UNL     1      -3.442  -8.064  -0.824  0.00  0.00    -0.008 C 
ATOM      9  C   UNL     1      -3.368  -6.545  -0.990  0.00  0.00    +0.021 C 
ATOM     10  C   UNL     1      -2.654  -8.740  -1.947  0.00  0.00    +0.026 C 
ATOM     11  C   UNL     1      -1.193  -8.291  -1.886  0.00  0.00    +0.047 C 
ATOM     12  C   UNL     1      -0.594  -8.687  -0.534  0.00  0.00    +0.026 C 
ATOM     13  C   UNL     1      -1.118  -6.772  -2.052  0.00  0.00    +0.041 C 
ATOM     14 CL   UNL     1      -0.264  -9.088  -3.210  0.00  0.00    -0.118 Cl
ENDBRANCH   2   4
ENDBRANCH   1   2
BRANCH   1  15
ATOM     15  C   UNL     1      -0.646  -2.561  -1.233  0.00  0.00    +0.234 C 
BRANCH  15  23
ATOM     16  C   UNL     1      -0.019   1.526   0.010  0.00  0.00    -0.003 C 
ATOM     17  C   UNL     1       1.426   2.035  -0.001  0.00  0.00    -0.019 C 
ATOM     18  C   UNL     1       2.135   1.482  -1.236  0.00  0.00    -0.078 C 
ATOM     19  N   UNL     1       2.146   0.012  -1.198  0.00  0.00    +0.382 N 
ATOM     20  C   UNL     1       2.890  -0.468  -2.373  0.00  0.00    -0.078 C 
ATOM     21  C   UNL     1       2.987  -1.993  -2.348  0.00  0.00    -0.018 C 
ATOM     22  C   UNL     1       1.572  -2.579  -2.380  0.00  0.00    +0.003 C 
ATOM     23  C   UNL     1       0.790  -2.037  -1.182  0.00  0.00    +0.013 C 
ATOM     24  C   UNL     1       0.774  -0.505  -1.223  0.00  0.00    -0.062 C 
ATOM     25  C   UNL     1       0.002  -0.004   0.002  0.00  0.00    -0.015 C 
ATOM     26  H   UNL     1       2.608  -0.299  -0.357  0.00  0.00    -0.081 HD
ENDBRANCH  15  23
ENDBRANCH   1  15
TORSDOF 4
