REMARK  Name = ZINC39580235
REMARK  9 active torsions:
REMARK  status: ('A' for Active; 'I' for Inactive)
REMARK    1  A    between atoms: C_1  and  C_2
REMARK    2  A    between atoms: C_7  and  C_9
REMARK    3  A    between atoms: C_7  and  C_10
REMARK    4  A    between atoms: N_13  and  C_17
REMARK    5  A    between atoms: C_17  and  C_18
REMARK    6  A    between atoms: C_18  and  O_20
REMARK    7  A    between atoms: O_20  and  C_21
REMARK    8  A    between atoms: C_21  and  C_22
REMARK    9  A    between atoms: N_27  and  C_30
REMARK                            x       y       z     vdW  Elec       q    Type
REMARK                         _______ _______ _______ _____ _____    ______ ____
ROOT
ATOM      1  C   UNL     1      -4.920  -3.421  -2.440  0.00  0.00    +0.326 C 
ATOM      2  O   UNL     1      -4.597  -2.280  -2.677  0.00  0.00    -0.249 OA
ENDROOT
BRANCH   1   3
ATOM      3  C   UNL     1      -4.052  -4.281  -1.558  0.00  0.00    +0.238 C 
BRANCH   3  15
ATOM      4  C   UNL     1      -0.211   1.474  -0.016  0.00  0.00    +0.007 C 
ATOM      5  C   UNL     1      -0.130  -0.054   0.008  0.00  0.00    -0.011 C 
ATOM      6  C   UNL     1      -1.544  -0.640   0.001  0.00  0.00    +0.038 C 
ATOM      7  C   UNL     1      -1.465  -2.162   0.047  0.00  0.00    +0.113 C 
ATOM      8  C   UNL     1      -0.719  -2.627   1.293  0.00  0.00    +0.041 C 
ATOM      9  C   UNL     1       0.692  -2.033   1.295  0.00  0.00    -0.032 C 
ATOM     10  C   UNL     1       0.602  -0.506   1.273  0.00  0.00    +0.009 C 
ATOM     11  C   UNL     1       1.433  -2.483   2.556  0.00  0.00    +0.011 C 
ATOM     12  C   UNL     1       1.451  -2.517   0.057  0.00  0.00    +0.011 C 
ATOM     13  C   UNL     1      -2.851  -2.764   0.006  0.00  0.00    +0.247 C 
ATOM     14  O   UNL     1      -3.742  -2.610   0.813  0.00  0.00    -0.273 OA
ATOM     15  N   UNL     1      -2.886  -3.510  -1.118  0.00  0.00    -0.213 N 
ATOM     16  C   UNL     1      -1.725  -3.458  -1.781  0.00  0.00    +0.310 C 
ATOM     17  O   UNL     1      -1.514  -4.048  -2.823  0.00  0.00    -0.252 OA
ATOM     18  N   UNL     1      -0.815  -2.680  -1.165  0.00  0.00    -0.285 N 
ATOM     19  H   UNL     1       0.090  -2.497  -1.461  0.00  0.00    +0.151 HD
ENDBRANCH   3  15
ENDBRANCH   1   3
BRANCH   1  20
ATOM     20  O   UNL     1      -6.050  -3.921  -2.962  0.00  0.00    -0.454 OA
BRANCH  20  21
ATOM     21  C   UNL     1      -6.824  -3.049  -3.789  0.00  0.00    +0.327 C 
BRANCH  21  22
ATOM     22  C   UNL     1      -8.047  -3.779  -4.282  0.00  0.00    +0.253 C 
ATOM     23  O   UNL     1      -8.238  -4.931  -3.957  0.00  0.00    -0.272 OA
ATOM     24  N   UNL     1      -8.930  -3.150  -5.083  0.00  0.00    -0.296 N 
ATOM     25  C   UNL     1      -8.709  -1.755  -5.490  0.00  0.00    +0.127 C 
ATOM     26  C   UNL     1      -8.735  -1.682  -7.022  0.00  0.00    +0.124 C 
ATOM     27  N   UNL     1      -9.935  -2.379  -7.505  0.00  0.00    -0.327 N 
ATOM     28  C   UNL     1     -10.156  -3.773  -7.098  0.00  0.00    +0.124 C 
ATOM     29  C   UNL     1     -10.127  -3.849  -5.571  0.00  0.00    +0.127 C 
BRANCH  27  30
ATOM     30  C   UNL     1     -10.850  -1.727  -8.337  0.00  0.00    +0.030 A 
ATOM     31  C   UNL     1     -12.041  -2.350  -8.684  0.00  0.00    +0.026 A 
ATOM     32  C   UNL     1     -12.944  -1.704  -9.506  0.00  0.00    +0.040 A 
ATOM     33  C   UNL     1     -12.662  -0.435  -9.983  0.00  0.00    +0.124 A 
ATOM     34  C   UNL     1     -11.476   0.189  -9.638  0.00  0.00    +0.040 A 
ATOM     35  C   UNL     1     -10.572  -0.452  -8.812  0.00  0.00    +0.026 A 
ATOM     36  F   UNL     1     -13.547   0.195 -10.787  0.00  0.00    -0.205 F 
ENDBRANCH  27  30
ENDBRANCH  21  22
ENDBRANCH  20  21
ENDBRANCH   1  20
TORSDOF 6
