REMARK  Name = ZINC05443876
REMARK  8 active torsions:
REMARK  status: ('A' for Active; 'I' for Inactive)
REMARK    1  A    between atoms: C_1  and  C_2
REMARK    2  A    between atoms: C_7  and  C_9
REMARK    3  A    between atoms: C_7  and  C_10
REMARK    4  A    between atoms: N_13  and  C_17
REMARK    5  A    between atoms: C_17  and  C_18
REMARK    6  A    between atoms: N_20  and  C_21
REMARK    7  A    between atoms: C_21  and  C_23
REMARK    8  A    between atoms: C_21  and  C_24
REMARK                            x       y       z     vdW  Elec       q    Type
REMARK                         _______ _______ _______ _____ _____    ______ ____
ROOT
ATOM      1  C   UNL     1      -1.572  -4.133  -3.310  0.00  0.00    +0.213 C 
ENDROOT
BRANCH   1  13
ATOM      2  C   UNL     1      -0.019   1.528   0.010  0.00  0.00    +0.007 C 
ATOM      3  C   UNL     1       0.002  -0.004   0.002  0.00  0.00    -0.011 C 
ATOM      4  C   UNL     1       0.727  -0.492  -1.254  0.00  0.00    +0.038 C 
ATOM      5  C   UNL     1       0.711  -2.014  -1.298  0.00  0.00    +0.113 C 
ATOM      6  C   UNL     1       1.263  -2.646  -0.036  0.00  0.00    +0.041 C 
ATOM      7  C   UNL     1       0.787  -2.030   1.268  0.00  0.00    -0.032 C 
ATOM      8  C   UNL     1       0.763  -0.507   1.227  0.00  0.00    +0.009 C 
ATOM      9  C   UNL     1       1.769  -2.455   2.382  0.00  0.00    +0.011 C 
ATOM     10  C   UNL     1      -0.596  -2.567   1.648  0.00  0.00    +0.011 C 
ATOM     11  C   UNL     1      -0.666  -2.529  -1.638  0.00  0.00    +0.247 C 
ATOM     12  O   UNL     1      -1.717  -2.280  -1.086  0.00  0.00    -0.273 OA
ATOM     13  N   UNL     1      -0.505  -3.321  -2.720  0.00  0.00    -0.215 N 
ATOM     14  C   UNL     1       0.748  -3.270  -3.183  0.00  0.00    +0.310 C 
ATOM     15  O   UNL     1       1.136  -3.886  -4.157  0.00  0.00    -0.252 OA
ATOM     16  N   UNL     1       1.531  -2.463  -2.446  0.00  0.00    -0.285 N 
ATOM     17  H   UNL     1       2.451  -2.215  -2.619  0.00  0.00    +0.151 HD
ENDBRANCH   1  13
BRANCH   1  18
ATOM     18  C   UNL     1      -2.295  -3.328  -4.359  0.00  0.00    +0.231 C 
ATOM     19  O   UNL     1      -1.953  -2.188  -4.591  0.00  0.00    -0.274 OA
ATOM     20  N   UNL     1      -3.321  -3.876  -5.040  0.00  0.00    -0.311 N 
ATOM     21  H   UNL     1      -3.595  -4.788  -4.855  0.00  0.00    +0.149 HD
BRANCH  20  22
ATOM     22  C   UNL     1      -4.024  -3.093  -6.060  0.00  0.00    +0.076 C 
ATOM     23  C   UNL     1      -3.276  -3.201  -7.390  0.00  0.00    +0.028 C 
BRANCH  22  24
ATOM     24  C   UNL     1      -5.445  -3.634  -6.228  0.00  0.00    -0.010 C 
ATOM     25  C   UNL     1      -5.385  -5.100  -6.662  0.00  0.00    +0.012 C 
ATOM     26  C   UNL     1      -6.806  -5.641  -6.831  0.00  0.00    -0.010 C 
ATOM     27  C   UNL     1      -7.540  -4.824  -7.896  0.00  0.00    +0.007 C 
ATOM     28  C   UNL     1      -7.600  -3.358  -7.462  0.00  0.00    -0.010 C 
ATOM     29  C   UNL     1      -6.179  -2.817  -7.293  0.00  0.00    +0.012 C 
ATOM     30  C   UNL     1      -8.348  -3.250  -6.131  0.00  0.00    +0.007 C 
ATOM     31  C   UNL     1      -7.614  -4.067  -5.066  0.00  0.00    -0.010 C 
ATOM     32  C   UNL     1      -7.553  -5.533  -5.500  0.00  0.00    +0.007 C 
ATOM     33  C   UNL     1      -6.193  -3.526  -4.898  0.00  0.00    +0.012 C 
ENDBRANCH  22  24
ENDBRANCH  20  22
ENDBRANCH   1  18
TORSDOF 4
