REMARK  Name = ZINC21603433
REMARK  7 active torsions:
REMARK  status: ('A' for Active; 'I' for Inactive)
REMARK    1  A    between atoms: C_1  and  C_2
REMARK    2  A    between atoms: C_2  and  C_4
REMARK    3  A    between atoms: C_2  and  S_12
REMARK    4  A    between atoms: S_12  and  C_13
REMARK    5  A    between atoms: N_27  and  C_28
REMARK    6  A    between atoms: C_32  and  O_34
REMARK    7  A    between atoms: O_34  and  C_35
REMARK                            x       y       z     vdW  Elec       q    Type
REMARK                         _______ _______ _______ _____ _____    ______ ____
ROOT
ATOM      1  C   UNL     1       3.786   2.838  -0.707  0.00  0.00    +0.178 A 
ATOM      2  N   UNL     1       2.471   2.929  -0.711  0.00  0.00    -0.215 NA
ATOM      3  C   UNL     1       1.727   2.042  -0.062  0.00  0.00    +0.117 A 
ATOM      4  C   UNL     1       2.290   0.976   0.656  0.00  0.00    +0.076 A 
ATOM      5  C   UNL     1       1.344   0.077   1.327  0.00  0.00    -0.023 A 
ATOM      6  C   UNL     1       0.034   0.359   1.181  0.00  0.00    -0.004 A 
ATOM      7  S   UNL     1      -0.018   1.816   0.170  0.00  0.00    -0.073 S 
ATOM      8  C   UNL     1      -1.134  -0.396   1.736  0.00  0.00    +0.043 C 
ATOM      9  C   UNL     1      -0.904  -0.662   3.230  0.00  0.00    +0.005 C 
ATOM     10  C   UNL     1      -0.169  -1.991   3.372  0.00  0.00    +0.001 C 
ATOM     11  C   UNL     1       0.769  -2.200   2.184  0.00  0.00    +0.005 C 
ATOM     12  C   UNL     1       1.834  -1.111   2.150  0.00  0.00    +0.037 C 
ATOM     13  C   UNL     1       3.719   0.900   0.644  0.00  0.00    +0.268 A 
ATOM     14  O   UNL     1       4.296   0.006   1.240  0.00  0.00    -0.267 OA
ATOM     15  N   UNL     1       4.417   1.829  -0.034  0.00  0.00    -0.255 N 
ENDROOT
BRANCH  15  16
ATOM     16  C   UNL     1       5.816   1.762  -0.051  0.00  0.00    +0.055 A 
ATOM     17  C   UNL     1       6.466   1.041  -1.044  0.00  0.00    +0.026 A 
ATOM     18  C   UNL     1       7.846   0.979  -1.063  0.00  0.00    +0.006 A 
ATOM     19  C   UNL     1       8.583   1.625  -0.089  0.00  0.00    +0.046 A 
ATOM     20  C   UNL     1       7.939   2.343   0.909  0.00  0.00    +0.122 A 
ATOM     21  C   UNL     1       6.554   2.412   0.928  0.00  0.00    +0.072 A 
BRANCH  20  22
ATOM     22  O   UNL     1       8.665   2.978   1.866  0.00  0.00    -0.495 OA
ATOM     23  C   UNL     1      10.087   2.864   1.784  0.00  0.00    +0.277 C 
ENDBRANCH  20  22
ENDBRANCH  15  16
BRANCH   1  24
ATOM     24  S   UNL     1       4.743   4.033  -1.580  0.00  0.00    -0.075 S 
BRANCH  24  26
ATOM     25  C   UNL     1       2.583   4.262  -3.236  0.00  0.00    +0.029 C 
ATOM     26  C   UNL     1       3.418   5.073  -2.243  0.00  0.00    +0.137 C 
BRANCH  26  27
ATOM     27  C   UNL     1       4.019   6.263  -2.946  0.00  0.00    +0.236 C 
ATOM     28  O   UNL     1       5.143   6.198  -3.396  0.00  0.00    -0.274 OA
ATOM     29  N   UNL     1       3.305   7.399  -3.075  0.00  0.00    -0.224 N 
ATOM     30  C   UNL     1       3.774   8.629  -3.731  0.00  0.00    +0.136 C 
ATOM     31  C   UNL     1       2.580   9.595  -3.600  0.00  0.00    +0.125 C 
ATOM     32  N   UNL     1       1.569   8.810  -2.877  0.00  0.00    -0.297 N 
ATOM     33  C   UNL     1       2.060   7.590  -2.622  0.00  0.00    +0.309 C 
ATOM     34  O   UNL     1       1.431   6.733  -2.033  0.00  0.00    -0.252 OA
ATOM     35  H   UNL     1       0.594   9.258  -2.635  0.00  0.00    +0.150 HD
ENDBRANCH  26  27
ENDBRANCH  24  26
ENDBRANCH   1  24
TORSDOF 5
