REMARK  Name = ZINC54947131
REMARK  12 active torsions:
REMARK  status: ('A' for Active; 'I' for Inactive)
REMARK    1  A    between atoms: C_1  and  C_2
REMARK    2  A    between atoms: C_5  and  C_29
REMARK    3  A    between atoms: N_8  and  C_10
REMARK    4  A    between atoms: C_10  and  C_11
REMARK    5  A    between atoms: C_10  and  C_12
REMARK    6  A    between atoms: C_10  and  C_13
REMARK    7  A    between atoms: C_13  and  N_14
REMARK    8  A    between atoms: C_15  and  C_17
REMARK    9  A    between atoms: C_23  and  C_25
REMARK   10  A    between atoms: C_25  and  C_26
REMARK   11  A    between atoms: C_26  and  C_27
REMARK   12  A    between atoms: C_26  and  C_28
REMARK                            x       y       z     vdW  Elec       q    Type
REMARK                         _______ _______ _______ _____ _____    ______ ____
ROOT
ATOM      1  N   UNL     1       3.474  -2.390   0.904  0.00  0.00    -0.309 N 
ATOM      2  C   UNL     1       4.768  -2.196   0.578  0.00  0.00    +0.299 C 
ATOM      3  O   UNL     1       5.534  -1.721   1.391  0.00  0.00    -0.265 OA
ATOM      4  H   UNL     1       2.862  -2.769   0.254  0.00  0.00    +0.149 HD
ENDROOT
BRANCH   2   5
ATOM      5  C   UNL     1       5.258  -2.564  -0.783  0.00  0.00    +0.305 C 
ATOM      6  O   UNL     1       4.492  -3.039  -1.597  0.00  0.00    -0.265 OA
ATOM      7  N   UNL     1       6.552  -2.370  -1.109  0.00  0.00    -0.255 N 
ATOM      8  C   UNL     1       7.008  -2.713  -2.375  0.00  0.00    +0.188 A 
ATOM      9  N   UNL     1       6.354  -3.232  -3.406  0.00  0.00    -0.126 NA
ATOM     10  N   UNL     1       6.930  -3.485  -4.499  0.00  0.00    -0.145 NA
ATOM     11  C   UNL     1       8.214  -3.252  -4.686  0.00  0.00    +0.104 A 
ATOM     12  S   UNL     1       8.645  -2.575  -3.086  0.00  0.00    -0.035 S 
ATOM     13  H   UNL     1       7.164  -1.991  -0.459  0.00  0.00    +0.157 HD
BRANCH  11  14
ATOM     14  C   UNL     1       9.073  -3.484  -5.903  0.00  0.00    +0.068 C 
BRANCH  14  15
ATOM     15  C   UNL     1       9.054  -2.234  -6.786  0.00  0.00    -0.011 C 
ATOM     16  C   UNL     1       9.713  -1.073  -6.040  0.00  0.00    +0.007 C 
ATOM     17  C   UNL     1       9.823  -2.512  -8.079  0.00  0.00    +0.007 C 
ENDBRANCH  14  15
ENDBRANCH  11  14
ENDBRANCH   2   5
BRANCH   1  18
ATOM     18  C   UNL     1       2.993  -2.028   2.239  0.00  0.00    +0.092 C 
BRANCH  18  19
ATOM     19  C   UNL     1       1.478  -2.227   2.306  0.00  0.00    -0.055 C 
ATOM     20  C   UNL     1       0.963  -1.768   3.672  0.00  0.00    -0.008 C 
ATOM     21  C   UNL     1       1.148  -3.708   2.108  0.00  0.00    -0.008 C 
BRANCH  19  27
ATOM     22  C   UNL     1       0.932   2.275   0.460  0.00  0.00    +0.005 C 
ATOM     23  C   UNL     1       0.574   0.798   0.277  0.00  0.00    -0.031 C 
ATOM     24  C   UNL     1      -0.949   0.636   0.287  0.00  0.00    +0.003 C 
ATOM     25  C   UNL     1      -1.294  -0.852   0.182  0.00  0.00    -0.031 C 
ATOM     26  C   UNL     1      -0.623  -1.609   1.330  0.00  0.00    -0.075 C 
ATOM     27  N   UNL     1       0.833  -1.436   1.250  0.00  0.00    +0.384 N 
ATOM     28  C   UNL     1       1.177  -0.019   1.421  0.00  0.00    -0.075 C 
ATOM     29  C   UNL     1      -2.811  -1.032   0.269  0.00  0.00    +0.005 C 
ATOM     30  H   UNL     1       1.159  -1.753   0.349  0.00  0.00    -0.081 HD
ENDBRANCH  19  27
ENDBRANCH  18  19
ENDBRANCH   1  18
TORSDOF 6
