REMARK  Name = ZINC63730040
REMARK  5 active torsions:
REMARK  status: ('A' for Active; 'I' for Inactive)
REMARK    1  A    between atoms: C_1  and  C_2
REMARK    2  A    between atoms: C_7  and  N_8
REMARK    3  A    between atoms: C_9  and  C_15
REMARK    4  A    between atoms: C_18  and  C_26
REMARK    5  A    between atoms: C_19  and  C_25
REMARK                            x       y       z     vdW  Elec       q    Type
REMARK                         _______ _______ _______ _____ _____    ______ ____
ROOT
ATOM      1  N   UNL     1       0.025  -0.016   2.416  0.00  0.00    -0.253 N 
ATOM      2  C   UNL     1      -1.140   0.408   3.215  0.00  0.00    +0.247 C 
ATOM      3  N   UNL     1      -0.543   1.083   4.378  0.00  0.00    -0.191 NA
ATOM      4  N   UNL     1       0.684   1.044   4.255  0.00  0.00    -0.220 N 
ATOM      5  C   UNL     1       1.094   0.407   3.126  0.00  0.00    +0.159 C 
ATOM      6  S   UNL     1       2.728   0.177   2.668  0.00  0.00    -0.017 S 
ATOM      7  H   UNL     1       1.296   1.428   4.903  0.00  0.00    +0.176 HD
ENDROOT
BRANCH   2   8
ATOM      8  C   UNL     1      -1.947  -0.788   3.650  0.00  0.00    -0.003 C 
ATOM      9  C   UNL     1      -3.254  -0.907   3.266  0.00  0.00    +0.013 C 
ATOM     10  C   UNL     1      -3.893  -2.090   3.679  0.00  0.00    -0.014 C 
ATOM     11  C   UNL     1      -5.166  -2.382   3.990  0.00  0.00    -0.024 C 
ATOM     12  C   UNL     1      -5.215  -3.642   4.628  0.00  0.00    +0.037 C 
ATOM     13  N   UNL     1      -4.054  -4.234   4.632  0.00  0.00    -0.276 NA
ATOM     14  C   UNL     1      -3.124  -3.382   3.908  0.00  0.00    +0.159 C 
ATOM     15  C   UNL     1      -1.867  -3.034   4.647  0.00  0.00    +0.004 C 
ATOM     16  C   UNL     1      -1.331  -1.822   4.477  0.00  0.00    +0.005 C 
ATOM     17  C   UNL     1      -6.463  -4.232   5.231  0.00  0.00    +0.065 C 
ATOM     18  C   UNL     1      -6.356  -1.502   3.706  0.00  0.00    +0.046 C 
ENDBRANCH   2   8
BRANCH   1  25
ATOM     19  C   UNL     1      -0.018   1.503   0.010  0.00  0.00    +0.045 C 
ATOM     20  C   UNL     1       0.002  -0.004   0.002  0.00  0.00    -0.029 A 
ATOM     21  C   UNL     1       0.006  -0.689  -1.198  0.00  0.00    +0.005 A 
ATOM     22  C   UNL     1       0.025  -2.071  -1.206  0.00  0.00    +0.000 A 
ATOM     23  C   UNL     1       0.041  -2.773  -0.014  0.00  0.00    +0.002 A 
ATOM     24  C   UNL     1       0.036  -2.095   1.188  0.00  0.00    +0.024 A 
ATOM     25  C   UNL     1       0.023  -0.706   1.201  0.00  0.00    +0.041 A 
ENDBRANCH   1  25
TORSDOF 2
