REMARK  Name = ZINC05504485
REMARK  5 active torsions:
REMARK  status: ('A' for Active; 'I' for Inactive)
REMARK    1  A    between atoms: C_1  and  C_2
REMARK    2  A    between atoms: C_5  and  O_8
REMARK    3  A    between atoms: O_8  and  C_9
REMARK    4  A    between atoms: C_9  and  C_10
REMARK    5  A    between atoms: N_12  and  N_13
REMARK                            x       y       z     vdW  Elec       q    Type
REMARK                         _______ _______ _______ _____ _____    ______ ____
ROOT
ATOM      1  C   UNL     1      -0.044  -6.277   1.059  0.00  0.00    +0.270 C 
ATOM      2  O   UNL     1      -0.302  -6.734  -0.034  0.00  0.00    -0.270 OA
ATOM      3  N   UNL     1       0.184  -7.104   2.099  0.00  0.00    -0.203 N 
ATOM      4  H   UNL     1       0.391  -6.739   2.973  0.00  0.00    +0.177 HD
ENDROOT
BRANCH   3   5
ATOM      5  N   UNL     1       0.123  -8.492   1.916  0.00  0.00    -0.174 NA
ATOM      6  C   UNL     1       0.237  -9.294   2.947  0.00  0.00    +0.153 C 
ATOM      7  C   UNL     1       0.251  -8.924   4.381  0.00  0.00    +0.029 A 
ATOM      8  C   UNL     1       0.155  -7.710   5.052  0.00  0.00    +0.027 A 
ATOM      9  C   UNL     1       0.201  -7.684   6.432  0.00  0.00    +0.019 A 
ATOM     10  C   UNL     1       0.342  -8.865   7.144  0.00  0.00    +0.017 A 
ATOM     11  C   UNL     1       0.438 -10.075   6.486  0.00  0.00    +0.025 A 
ATOM     12  C   UNL     1       0.393 -10.120   5.097  0.00  0.00    +0.043 A 
ATOM     13  N   UNL     1       0.467 -11.184   4.204  0.00  0.00    -0.280 N 
ATOM     14  C   UNL     1       0.375 -10.765   2.931  0.00  0.00    +0.269 C 
ATOM     15  O   UNL     1       0.403 -11.471   1.940  0.00  0.00    -0.268 OA
ATOM     16 BR   UNL     1       0.072  -6.037   7.352  0.00  0.00    -0.050 Br
ATOM     17  H   UNL     1       0.567 -12.112   4.468  0.00  0.00    +0.155 HD
ENDBRANCH   3   5
BRANCH   1  18
ATOM     18  C   UNL     1       0.022  -4.785   1.256  0.00  0.00    +0.326 C 
BRANCH  18  19
ATOM     19  O   UNL     1      -0.255  -4.128   0.017  0.00  0.00    -0.483 OA
BRANCH  19  24
ATOM     20  C   UNL     1      -0.176   1.503   0.032  0.00  0.00    +0.044 C 
ATOM     21  C   UNL     1      -0.196  -0.004   0.028  0.00  0.00    -0.050 A 
ATOM     22  C   UNL     1      -0.474  -0.687  -1.142  0.00  0.00    +0.007 A 
ATOM     23  C   UNL     1      -0.494  -2.068  -1.148  0.00  0.00    +0.046 A 
ATOM     24  C   UNL     1      -0.235  -2.770   0.020  0.00  0.00    +0.121 A 
ATOM     25  C   UNL     1       0.044  -2.082   1.192  0.00  0.00    +0.046 A 
ATOM     26  C   UNL     1       0.068  -0.701   1.192  0.00  0.00    +0.007 A 
ENDBRANCH  19  24
ENDBRANCH  18  19
ENDBRANCH   1  18
TORSDOF 4
