REMARK  Name = ZINC20120469
REMARK  4 active torsions:
REMARK  status: ('A' for Active; 'I' for Inactive)
REMARK    1  A    between atoms: C_1  and  C_2
REMARK    2  A    between atoms: C_5  and  C_7
REMARK    3  A    between atoms: C_9  and  N_14
REMARK    4  A    between atoms: C_12  and  O_13
REMARK                            x       y       z     vdW  Elec       q    Type
REMARK                         _______ _______ _______ _____ _____    ______ ____
ROOT
ATOM      1  C   UNL     1       1.634   3.150   0.002  0.00  0.00    +0.082 A 
ATOM      2  C   UNL     1       0.674   4.162   0.017  0.00  0.00    +0.039 A 
ATOM      3  C   UNL     1       1.071   5.489   0.019  0.00  0.00    +0.025 A 
ATOM      4  C   UNL     1       2.423   5.812   0.008  0.00  0.00    +0.026 A 
ATOM      5  C   UNL     1       3.378   4.814  -0.006  0.00  0.00    +0.048 A 
ATOM      6  C   UNL     1       2.994   3.483  -0.003  0.00  0.00    +0.129 A 
ENDROOT
BRANCH   1  11
ATOM      7  C   UNL     1       1.687  -1.861  -0.024  0.00  0.00    +0.111 C 
ATOM      8  C   UNL     1       1.236  -0.423  -0.012  0.00  0.00    +0.215 A 
ATOM      9  N   UNL     1       0.002  -0.004   0.002  0.00  0.00    -0.112 NA
ATOM     10  N   UNL     1      -0.015   1.282   0.009  0.00  0.00    -0.107 NA
ATOM     11  C   UNL     1       1.218   1.732  -0.000  0.00  0.00    +0.252 A 
ATOM     12  O   UNL     1       2.034   0.659  -0.014  0.00  0.00    -0.420 OA
ENDBRANCH   1  11
BRANCH   3  13
ATOM     13  N   UNL     1       0.110   6.506   0.034  0.00  0.00    -0.358 N 
ATOM     14  H   UNL     1       0.424   7.560   0.036  0.00  0.00    +0.142 HD
ATOM     15  H   UNL     1      -0.960   6.251   0.043  0.00  0.00    +0.142 HD
ENDBRANCH   3  13
BRANCH   6  16
ATOM     16  O   UNL     1       3.935   2.503  -0.012  0.00  0.00    -0.506 OA
ATOM     17  H   UNL     1       5.003   2.766  -0.016  0.00  0.00    +0.292 HD
ENDBRANCH   6  16
TORSDOF 3
