REMARK  Name = ZINC62827261
REMARK  4 active torsions:
REMARK  status: ('A' for Active; 'I' for Inactive)
REMARK    1  A    between atoms: C_1  and  N_2
REMARK    2  A    between atoms: C_5  and  N_8
REMARK    3  A    between atoms: N_11  and  C_12
REMARK    4  A    between atoms: C_13  and  C_19
REMARK                            x       y       z     vdW  Elec       q    Type
REMARK                         _______ _______ _______ _____ _____    ______ ____
ROOT
ATOM      1  N   UNL     1       0.047  -2.061   3.222  0.00  0.00    -0.298 N 
ATOM      2  C   UNL     1       0.230  -3.332   3.630  0.00  0.00    +0.304 C 
ATOM      3  O   UNL     1       1.125  -4.002   3.150  0.00  0.00    -0.253 OA
ATOM      4  N   UNL     1      -0.578  -3.861   4.569  0.00  0.00    -0.268 N 
ATOM      5  H   UNL     1      -0.667  -1.527   3.604  0.00  0.00    +0.150 HD
ATOM      6  H   UNL     1      -1.257  -3.312   4.991  0.00  0.00    +0.156 HD
ENDROOT
BRANCH   1  11
ATOM      7  C   UNL     1       0.467   1.881   0.748  0.00  0.00    -0.096 C 
ATOM      8  N   UNL     1       0.981   0.510   0.873  0.00  0.00    +0.379 N 
ATOM      9  C   UNL     1       0.105  -0.442   0.142  0.00  0.00    -0.077 C 
ATOM     10  C   UNL     1       0.394  -1.813   0.790  0.00  0.00    +0.002 C 
ATOM     11  C   UNL     1       0.926  -1.485   2.200  0.00  0.00    +0.056 C 
ATOM     12  C   UNL     1       0.913   0.056   2.286  0.00  0.00    -0.057 C 
ATOM     13  H   UNL     1       1.928   0.456   0.529  0.00  0.00    -0.082 HD
ENDBRANCH   1  11
BRANCH   4  14
ATOM     14  C   UNL     1      -0.439  -5.197   4.935  0.00  0.00    +0.063 A 
ATOM     15  C   UNL     1      -0.127  -5.537   6.261  0.00  0.00    +0.085 A 
ATOM     16  C   UNL     1       0.010  -6.884   6.614  0.00  0.00    +0.017 A 
ATOM     17  C   UNL     1      -0.162  -7.865   5.663  0.00  0.00    +0.002 A 
ATOM     18  C   UNL     1      -0.469  -7.526   4.355  0.00  0.00    +0.017 A 
ATOM     19  C   UNL     1      -0.613  -6.201   3.991  0.00  0.00    +0.040 A 
ATOM     20 BR   UNL     1      -1.041  -5.754   2.204  0.00  0.00    -0.048 Br
BRANCH  15  21
ATOM     21  C   UNL     1       0.056  -4.484   7.272  0.00  0.00    +0.388 C 
ATOM     22  O   UNL     1       0.204  -4.785   8.449  0.00  0.00    -0.241 OA
ATOM     23  O   UNL     1       0.060  -3.308   6.936  0.00  0.00    -0.241 OA
ENDBRANCH  15  21
ENDBRANCH   4  14
TORSDOF 3
