REMARK  Name = ZINC44730872
REMARK  7 active torsions:
REMARK  status: ('A' for Active; 'I' for Inactive)
REMARK    1  A    between atoms: C_1  and  C_2
REMARK    2  A    between atoms: C_9  and  N_11
REMARK    3  A    between atoms: N_11  and  C_12
REMARK    4  A    between atoms: C_12  and  C_14
REMARK    5  A    between atoms: C_12  and  C_15
REMARK    6  A    between atoms: C_17  and  C_21
REMARK    7  A    between atoms: C_19  and  C_20
REMARK                            x       y       z     vdW  Elec       q    Type
REMARK                         _______ _______ _______ _____ _____    ______ ____
ROOT
ATOM      1  N   UNL     1       0.050  -2.771   2.395  0.00  0.00    -0.322 N 
ATOM      2  H   UNL     1       0.064  -3.740   2.393  0.00  0.00    +0.148 HD
ENDROOT
BRANCH   1  11
ATOM      3  C   UNL     1      -0.018   1.503   0.010  0.00  0.00    +0.044 C 
ATOM      4  C   UNL     1       0.002  -0.004   0.002  0.00  0.00    -0.044 A 
ATOM      5  C   UNL     1       0.006  -0.683  -1.182  0.00  0.00    +0.051 A 
ATOM      6  C   UNL     1       0.025  -2.087  -1.172  0.00  0.00    +0.158 A 
ATOM      7  N   UNL     1       0.033  -2.998  -2.140  0.00  0.00    -0.215 NA
ATOM      8  C   UNL     1       0.052  -4.213  -1.609  0.00  0.00    +0.246 A 
ATOM      9  N   UNL     1       0.057  -4.123  -0.301  0.00  0.00    -0.152 NA
ATOM     10  N   UNL     1       0.040  -2.758   0.019  0.00  0.00    -0.199 N 
ATOM     11  C   UNL     1       0.035  -2.076   1.199  0.00  0.00    +0.123 A 
ATOM     12  C   UNL     1       0.023  -0.712   1.207  0.00  0.00    +0.047 A 
ENDBRANCH   1  11
BRANCH   1  13
ATOM     13  C   UNL     1       0.046  -2.041   3.666  0.00  0.00    +0.102 C 
ATOM     14  C   UNL     1       1.480  -1.659   4.039  0.00  0.00    +0.033 C 
BRANCH  13  15
ATOM     15  C   UNL     1      -0.537  -2.916   4.745  0.00  0.00    +0.013 A 
ATOM     16  C   UNL     1      -0.558  -4.330   4.764  0.00  0.00    +0.050 A 
ATOM     17  C   UNL     1      -1.170  -4.695   5.905  0.00  0.00    +0.103 A 
ATOM     18  O   UNL     1      -1.519  -3.584   6.574  0.00  0.00    -0.465 OA
ATOM     19  C   UNL     1      -1.133  -2.502   5.878  0.00  0.00    +0.107 A 
ATOM     20  C   UNL     1      -1.337  -1.068   6.293  0.00  0.00    +0.086 C 
ATOM     21  C   UNL     1      -1.422  -6.111   6.356  0.00  0.00    +0.086 C 
ENDBRANCH  13  15
ENDBRANCH   1  13
TORSDOF 3
