REMARK  Name = ZINC45724502
REMARK  7 active torsions:
REMARK  status: ('A' for Active; 'I' for Inactive)
REMARK    1  A    between atoms: C_1  and  N_2
REMARK    2  A    between atoms: N_2  and  C_3
REMARK    3  A    between atoms: C_3  and  C_5
REMARK    4  A    between atoms: C_3  and  C_11
REMARK    5  A    between atoms: N_20  and  C_21
REMARK    6  A    between atoms: C_26  and  C_27
REMARK    7  A    between atoms: C_27  and  C_28
REMARK                            x       y       z     vdW  Elec       q    Type
REMARK                         _______ _______ _______ _____ _____    ______ ____
ROOT
ATOM      1  C   UNL     1      -0.624   1.328   0.049  0.00  0.00    +0.134 C 
ATOM      2  N   UNL     1      -0.253  -0.089   0.029  0.00  0.00    -0.277 N 
ATOM      3  C   UNL     1      -0.250  -0.768  -1.135  0.00  0.00    +0.307 C 
ATOM      4  O   UNL     1       0.058  -1.944  -1.152  0.00  0.00    -0.252 OA
ATOM      5  N   UNL     1      -0.590  -0.144  -2.281  0.00  0.00    -0.269 N 
ATOM      6  H   UNL     1      -0.776   0.808  -2.277  0.00  0.00    +0.156 HD
ENDROOT
BRANCH   5   7
ATOM      7  C   UNL     1      -0.673  -0.869  -3.474  0.00  0.00    +0.038 A 
ATOM      8  C   UNL     1       0.070  -2.031  -3.636  0.00  0.00    +0.023 A 
ATOM      9  C   UNL     1      -0.015  -2.745  -4.816  0.00  0.00    +0.002 A 
ATOM     10  C   UNL     1      -0.839  -2.303  -5.835  0.00  0.00    +0.000 A 
ATOM     11  C   UNL     1      -1.579  -1.147  -5.677  0.00  0.00    +0.006 A 
ATOM     12  C   UNL     1      -1.504  -0.432  -4.498  0.00  0.00    -0.017 A 
BRANCH  12  13
ATOM     13  C   UNL     1      -2.316   0.826  -4.324  0.00  0.00    +0.132 C 
BRANCH  13  14
ATOM     14  C   UNL     1      -1.476   2.022  -4.691  0.00  0.00    +0.215 C 
ATOM     15  O   UNL     1      -0.330   1.868  -5.056  0.00  0.00    -0.276 OA
ATOM     16  N   UNL     1      -1.998   3.262  -4.611  0.00  0.00    -0.329 N 
ATOM     17  H   UNL     1      -2.915   3.384  -4.319  0.00  0.00    +0.145 HD
ATOM     18  H   UNL     1      -1.457   4.032  -4.847  0.00  0.00    +0.145 HD
ENDBRANCH  13  14
ENDBRANCH  12  13
ENDBRANCH   5   7
BRANCH   2  19
ATOM     19  C   UNL     1       0.117  -0.767   1.274  0.00  0.00    +0.138 C 
BRANCH  19  20
ATOM     20  C   UNL     1      -0.021   0.192   2.428  0.00  0.00    -0.022 A 
ATOM     21  C   UNL     1       0.659   1.395   2.411  0.00  0.00    +0.008 A 
ATOM     22  C   UNL     1       0.533   2.276   3.469  0.00  0.00    +0.038 A 
ATOM     23  C   UNL     1      -0.273   1.952   4.546  0.00  0.00    +0.123 A 
ATOM     24  C   UNL     1      -0.954   0.746   4.562  0.00  0.00    +0.038 A 
ATOM     25  C   UNL     1      -0.831  -0.131   3.501  0.00  0.00    +0.008 A 
ATOM     26  F   UNL     1      -0.396   2.811   5.581  0.00  0.00    -0.205 F 
ENDBRANCH  19  20
BRANCH  19  27
ATOM     27  C   UNL     1       1.544  -1.243   1.182  0.00  0.00    -0.023 A 
ATOM     28  C   UNL     1       2.521  -0.403   0.681  0.00  0.00    +0.006 A 
ATOM     29  C   UNL     1       3.830  -0.840   0.598  0.00  0.00    +0.000 A 
ATOM     30  C   UNL     1       4.162  -2.115   1.016  0.00  0.00    +0.000 A 
ATOM     31  C   UNL     1       3.184  -2.954   1.518  0.00  0.00    +0.000 A 
ATOM     32  C   UNL     1       1.876  -2.516   1.605  0.00  0.00    +0.006 A 
ENDBRANCH  19  27
ENDBRANCH   2  19
TORSDOF 6
