REMARK  Name = ZINC59302688
REMARK  5 active torsions:
REMARK  status: ('A' for Active; 'I' for Inactive)
REMARK    1  A    between atoms: C_3  and  N_24
REMARK    2  A    between atoms: C_6  and  C_7
REMARK    3  A    between atoms: N_9  and  N_10
REMARK    4  A    between atoms: C_11  and  C_12
REMARK    5  A    between atoms: C_15  and  N_17
REMARK                            x       y       z     vdW  Elec       q    Type
REMARK                         _______ _______ _______ _____ _____    ______ ____
ROOT
ATOM      1  N   UNL     1      -2.349  -2.784   0.249  0.00  0.00    -0.184 NA
ATOM      2  C   UNL     1      -2.327  -4.106   0.133  0.00  0.00    +0.176 C 
ENDROOT
BRANCH   2   3
ATOM      3  C   UNL     1      -3.517  -4.816   0.070  0.00  0.00    +0.151 A 
ATOM      4  C   UNL     1      -3.643  -6.276  -0.052  0.00  0.00    +0.068 A 
ATOM      5  C   UNL     1      -4.969  -6.551  -0.078  0.00  0.00    +0.079 A 
ATOM      6  C   UNL     1      -5.672  -5.265   0.027  0.00  0.00    +0.204 A 
ATOM      7  O   UNL     1      -4.758  -4.285   0.117  0.00  0.00    -0.439 OA
ATOM      8 BR   UNL     1      -5.763  -8.261  -0.224  0.00  0.00    -0.045 Br
BRANCH   6   9
ATOM      9  N   UNL     1      -7.000  -5.098   0.038  0.00  0.00    -0.296 N 
ATOM     10  C   UNL     1      -7.755  -5.109   1.301  0.00  0.00    +0.136 C 
ATOM     11  C   UNL     1      -8.648  -3.863   1.341  0.00  0.00    +0.179 C 
ATOM     12  O   UNL     1      -9.421  -3.800   0.140  0.00  0.00    -0.377 OA
ATOM     13  C   UNL     1      -8.642  -3.664  -1.051  0.00  0.00    +0.179 C 
ATOM     14  C   UNL     1      -7.748  -4.894  -1.213  0.00  0.00    +0.136 C 
ENDBRANCH   6   9
ENDBRANCH   2   3
BRANCH   1  17
ATOM     15  C   UNL     1      -1.264  -0.782   0.426  0.00  0.00    +0.263 C 
ATOM     16  O   UNL     1      -2.325  -0.194   0.477  0.00  0.00    -0.268 OA
ATOM     17  N   UNL     1      -1.242  -2.124   0.308  0.00  0.00    -0.203 N 
ATOM     18  H   UNL     1      -0.394  -2.594   0.267  0.00  0.00    +0.178 HD
BRANCH  15  24
ATOM     19  C   UNL     1      -0.015   1.365   0.615  0.00  0.00    +0.015 A 
ATOM     20  C   UNL     1       1.172   2.065   0.677  0.00  0.00    +0.033 A 
ATOM     21  C   UNL     1       2.379   1.392   0.619  0.00  0.00    +0.126 A 
ATOM     22  C   UNL     1       2.405   0.013   0.497  0.00  0.00    +0.033 A 
ATOM     23  C   UNL     1       1.226  -0.699   0.434  0.00  0.00    +0.015 A 
ATOM     24  C   UNL     1       0.003  -0.026   0.493  0.00  0.00    +0.038 A 
BRANCH  21  25
ATOM     25  N   UNL     1       3.649   2.149   0.687  0.00  0.00    +0.056 N 
ATOM     26  O   UNL     1       3.628   3.461   0.802  0.00  0.00    -0.126 OA
ATOM     27  O   UNL     1       4.800   1.512   0.631  0.00  0.00    -0.126 OA
ENDBRANCH  21  25
ENDBRANCH  15  24
ENDBRANCH   1  17
TORSDOF 5
