REMARK  Name = ZINC03151776
REMARK  3 active torsions:
REMARK  status: ('A' for Active; 'I' for Inactive)
REMARK    1  A    between atoms: C_2  and  N_9
REMARK    2  A    between atoms: C_10  and  C_12
REMARK    3  A    between atoms: C_16  and  N_18
REMARK                            x       y       z     vdW  Elec       q    Type
REMARK                         _______ _______ _______ _____ _____    ______ ____
ROOT
ATOM      1  N   UNL     1      -0.069   5.242   0.030  0.00  0.00    -0.281 N 
ATOM      2  C   UNL     1      -1.242   5.901  -0.057  0.00  0.00    +0.252 C 
ATOM      3  O   UNL     1      -2.288   5.282  -0.050  0.00  0.00    -0.270 OA
ATOM      4  H   UNL     1       0.761   5.738   0.102  0.00  0.00    +0.155 HD
ENDROOT
BRANCH   1   6
ATOM      5  C   UNL     1       0.908   3.155   0.750  0.00  0.00    +0.043 A 
ATOM      6  C   UNL     1      -0.050   3.844   0.017  0.00  0.00    +0.036 A 
ATOM      7  C   UNL     1      -0.988   3.143  -0.728  0.00  0.00    +0.043 A 
ATOM      8  C   UNL     1      -0.967   1.760  -0.739  0.00  0.00    +0.044 A 
ATOM      9  C   UNL     1      -0.012   1.076  -0.008  0.00  0.00    +0.040 A 
ATOM     10  C   UNL     1       0.921   1.773   0.740  0.00  0.00    +0.044 A 
ATOM     11 CL   UNL     1       2.113   0.910   1.661  0.00  0.00    -0.083 Cl
ATOM     12 CL   UNL     1      -2.140   0.882  -1.670  0.00  0.00    -0.083 Cl
ENDBRANCH   1   6
BRANCH   2  13
ATOM     13  C   UNL     1      -1.256   7.372  -0.160  0.00  0.00    +0.087 A 
ATOM     14  C   UNL     1      -0.055   8.087  -0.169  0.00  0.00    +0.032 A 
ATOM     15  C   UNL     1      -0.075   9.462  -0.266  0.00  0.00    +0.021 A 
ATOM     16  C   UNL     1      -1.281  10.139  -0.356  0.00  0.00    +0.052 A 
ATOM     17  C   UNL     1      -2.474   9.444  -0.349  0.00  0.00    +0.174 A 
ATOM     18  C   UNL     1      -2.473   8.061  -0.257  0.00  0.00    +0.221 A 
ATOM     19 BR   UNL     1       1.550  10.429  -0.277  0.00  0.00    -0.050 Br
ATOM     20  O   UNL     1      -3.644   7.377  -0.255  0.00  0.00    -0.285 OA
BRANCH  17  21
ATOM     21  N   UNL     1      -3.757  10.177  -0.446  0.00  0.00    +0.060 N 
ATOM     22  O   UNL     1      -3.759  11.392  -0.532  0.00  0.00    -0.126 OA
ATOM     23  O   UNL     1      -4.810   9.565  -0.440  0.00  0.00    -0.126 OA
ENDBRANCH  17  21
ENDBRANCH   2  13
TORSDOF 3
