REMARK  Name = ZINC39923405
REMARK  8 active torsions:
REMARK  status: ('A' for Active; 'I' for Inactive)
REMARK    1  A    between atoms: C_1  and  C_2
REMARK    2  A    between atoms: C_5  and  C_8
REMARK    3  A    between atoms: C_8  and  N_9
REMARK    4  A    between atoms: C_17  and  S_19
REMARK    5  A    between atoms: S_19  and  C_20
REMARK    6  A    between atoms: C_20  and  C_21
REMARK    7  A    between atoms: N_23  and  N_24
REMARK    8  A    between atoms: C_25  and  C_26
REMARK                            x       y       z     vdW  Elec       q    Type
REMARK                         _______ _______ _______ _____ _____    ______ ____
ROOT
ATOM      1  N   UNL     1       1.447  -4.746  -0.032  0.00  0.00    -0.297 N 
ATOM      2  C   UNL     1       2.229  -5.000  -1.167  0.00  0.00    +0.053 A 
ATOM      3  C   UNL     1       1.924  -4.885  -2.518  0.00  0.00    +0.025 A 
ATOM      4  C   UNL     1       2.872  -5.199  -3.473  0.00  0.00    +0.002 A 
ATOM      5  C   UNL     1       4.128  -5.629  -3.088  0.00  0.00    +0.002 A 
ATOM      6  C   UNL     1       4.441  -5.747  -1.747  0.00  0.00    +0.025 A 
ATOM      7  C   UNL     1       3.494  -5.433  -0.780  0.00  0.00    +0.050 A 
ATOM      8  N   UNL     1       3.574  -5.473   0.619  0.00  0.00    -0.316 N 
ATOM      9  C   UNL     1       2.277  -5.031   1.145  0.00  0.00    +0.220 C 
ATOM     10  H   UNL     1       4.346  -5.740   1.143  0.00  0.00    +0.149 HD
ENDROOT
BRANCH   1  11
ATOM     11  C   UNL     1       0.059  -4.275  -0.021  0.00  0.00    +0.143 C 
BRANCH  11  16
ATOM     12  C   UNL     1      -0.018   1.503   0.010  0.00  0.00    +0.044 C 
ATOM     13  C   UNL     1       0.002  -0.004   0.002  0.00  0.00    -0.050 A 
ATOM     14  C   UNL     1       0.006  -0.689  -1.199  0.00  0.00    +0.003 A 
ATOM     15  C   UNL     1       0.025  -2.071  -1.206  0.00  0.00    +0.005 A 
ATOM     16  C   UNL     1       0.040  -2.768  -0.013  0.00  0.00    -0.030 A 
ATOM     17  C   UNL     1       0.037  -2.084   1.188  0.00  0.00    +0.005 A 
ATOM     18  C   UNL     1       0.023  -0.702   1.195  0.00  0.00    +0.003 A 
ENDBRANCH  11  16
ENDBRANCH   1  11
BRANCH   9  19
ATOM     19  S   UNL     1       1.525  -6.351   2.136  0.00  0.00    -0.110 S 
BRANCH  19  20
ATOM     20  C   UNL     1       1.452  -7.765   1.002  0.00  0.00    +0.170 C 
BRANCH  20  21
ATOM     21  C   UNL     1       0.839  -8.946   1.710  0.00  0.00    +0.242 C 
ATOM     22  O   UNL     1       0.486  -8.844   2.865  0.00  0.00    -0.273 OA
ATOM     23  N   UNL     1       0.683 -10.116   1.059  0.00  0.00    -0.206 N 
ATOM     24  H   UNL     1       0.966 -10.197   0.135  0.00  0.00    +0.177 HD
BRANCH  23  25
ATOM     25  N   UNL     1       0.114 -11.213   1.717  0.00  0.00    -0.188 NA
ATOM     26  C   UNL     1      -0.038 -12.349   1.084  0.00  0.00    +0.136 C 
BRANCH  26  27
ATOM     27  C   UNL     1      -0.608 -13.448   1.743  0.00  0.00    +0.000 C 
ATOM     28  C   UNL     1      -0.833 -14.719   1.220  0.00  0.00    +0.004 A 
ATOM     29  C   UNL     1      -0.583 -15.288  -0.049  0.00  0.00    +0.010 A 
ATOM     30  C   UNL     1      -0.914 -16.582  -0.282  0.00  0.00    +0.001 A 
ATOM     31  C   UNL     1      -1.500 -17.379   0.705  0.00  0.00    +0.002 A 
ATOM     32  C   UNL     1      -1.769 -16.901   1.944  0.00  0.00    +0.026 A 
ATOM     33  C   UNL     1      -1.451 -15.555   2.265  0.00  0.00    +0.043 A 
ATOM     34  N   UNL     1      -1.608 -14.863   3.374  0.00  0.00    -0.380 N 
ATOM     35  C   UNL     1      -1.102 -13.502   3.172  0.00  0.00    +0.150 C 
ATOM     36  H   UNL     1      -1.994 -15.202   4.197  0.00  0.00    +0.160 HD
ENDBRANCH  26  27
ENDBRANCH  23  25
ENDBRANCH  20  21
ENDBRANCH  19  20
ENDBRANCH   9  19
TORSDOF 7
