REMARK  Name = ZINC38676931
REMARK  7 active torsions:
REMARK  status: ('A' for Active; 'I' for Inactive)
REMARK    1  A    between atoms: C_1  and  N_2
REMARK    2  A    between atoms: C_6  and  C_7
REMARK    3  A    between atoms: C_7  and  C_9
REMARK    4  A    between atoms: C_7  and  N_21
REMARK    5  A    between atoms: C_9  and  N_10
REMARK    6  A    between atoms: N_13  and  C_14
REMARK    7  A    between atoms: N_24  and  C_27
REMARK                            x       y       z     vdW  Elec       q    Type
REMARK                         _______ _______ _______ _____ _____    ______ ____
ROOT
ATOM      1  C   UNL     1       0.009  -0.309   2.537  0.00  0.00    +0.121 C 
ENDROOT
BRANCH   1   2
ATOM      2  N   UNL     1       0.330  -1.367   3.504  0.00  0.00    -0.296 NA
ATOM      3  C   UNL     1      -0.773  -2.332   3.615  0.00  0.00    +0.066 C 
ATOM      4  C   UNL     1      -0.424  -3.381   4.673  0.00  0.00    -0.064 C 
ATOM      5  N   UNL     1       0.814  -4.071   4.289  0.00  0.00    +0.379 N 
ATOM      6  C   UNL     1       1.912  -3.098   4.206  0.00  0.00    -0.064 C 
ATOM      7  C   UNL     1       1.583  -2.046   3.144  0.00  0.00    +0.066 C 
ATOM      8  C   UNL     1       1.139  -5.091   5.295  0.00  0.00    -0.096 C 
ATOM      9  H   UNL     1       0.689  -4.513   3.390  0.00  0.00    -0.082 HD
ENDBRANCH   1   2
BRANCH   1  15
ATOM     10  C   UNL     1      -0.560   1.227  -0.096  0.00  0.00    +0.148 C 
ATOM     11  N   UNL     1      -0.388  -0.224   0.013  0.00  0.00    -0.352 N 
ATOM     12  C   UNL     1      -0.447  -1.110  -1.022  0.00  0.00    +0.085 A 
ATOM     13  C   UNL     1      -0.240  -2.348  -0.528  0.00  0.00    +0.019 A 
ATOM     14  C   UNL     1      -0.048  -2.222   0.861  0.00  0.00    +0.024 A 
ATOM     15  C   UNL     1      -0.138  -0.911   1.164  0.00  0.00    +0.037 A 
ENDBRANCH   1  15
BRANCH   1  16
ATOM     16  C   UNL     1       1.135   0.727   2.522  0.00  0.00    +0.130 C 
BRANCH  16  17
ATOM     17  N   UNL     1       1.361   1.222   3.882  0.00  0.00    -0.297 N 
ATOM     18  C   UNL     1       2.377   2.072   4.130  0.00  0.00    +0.304 C 
ATOM     19  O   UNL     1       3.107   2.428   3.225  0.00  0.00    -0.253 OA
ATOM     20  N   UNL     1       2.586   2.528   5.381  0.00  0.00    -0.269 N 
ATOM     21  H   UNL     1       0.779   0.939   4.605  0.00  0.00    +0.150 HD
ATOM     22  H   UNL     1       2.048   2.191   6.116  0.00  0.00    +0.156 HD
BRANCH  20  23
ATOM     23  C   UNL     1       3.576   3.486   5.621  0.00  0.00    +0.036 A 
ATOM     24  C   UNL     1       4.290   3.466   6.813  0.00  0.00    +0.023 A 
ATOM     25  C   UNL     1       5.268   4.413   7.047  0.00  0.00    +0.003 A 
ATOM     26  C   UNL     1       5.537   5.381   6.097  0.00  0.00    +0.020 A 
ATOM     27  C   UNL     1       4.828   5.404   4.909  0.00  0.00    +0.043 A 
ATOM     28  C   UNL     1       3.853   4.455   4.667  0.00  0.00    +0.043 A 
ATOM     29 CL   UNL     1       5.169   6.622   3.720  0.00  0.00    -0.083 Cl
ENDBRANCH  20  23
ENDBRANCH  16  17
ENDBRANCH   1  16
TORSDOF 5
