REMARK  Name = ZINC49273979
REMARK  8 active torsions:
REMARK  status: ('A' for Active; 'I' for Inactive)
REMARK    1  A    between atoms: C_1  and  C_2
REMARK    2  A    between atoms: C_5  and  O_28
REMARK    3  A    between atoms: C_6  and  C_8
REMARK    4  A    between atoms: C_8  and  C_10
REMARK    5  A    between atoms: C_8  and  N_11
REMARK    6  A    between atoms: C_12  and  C_14
REMARK    7  A    between atoms: N_16  and  C_17
REMARK    8  A    between atoms: O_28  and  C_29
REMARK                            x       y       z     vdW  Elec       q    Type
REMARK                         _______ _______ _______ _____ _____    ______ ____
ROOT
ATOM      1  N   UNL     1       0.637  -1.998   3.538  0.00  0.00    -0.301 N 
ATOM      2  C   UNL     1       1.308  -2.561   4.562  0.00  0.00    +0.300 C 
ATOM      3  O   UNL     1       1.445  -3.766   4.609  0.00  0.00    -0.265 OA
ATOM      4  H   UNL     1       0.528  -1.034   3.501  0.00  0.00    +0.150 HD
ENDROOT
BRANCH   2   5
ATOM      5  C   UNL     1       1.883  -1.702   5.640  0.00  0.00    +0.303 C 
ATOM      6  O   UNL     1       1.746  -0.496   5.594  0.00  0.00    -0.265 OA
ATOM      7  N   UNL     1       2.554  -2.265   6.665  0.00  0.00    -0.278 N 
ATOM      8  H   UNL     1       2.717  -3.221   6.670  0.00  0.00    +0.155 HD
BRANCH   7   9
ATOM      9  C   UNL     1       3.015  -1.470   7.720  0.00  0.00    +0.038 A 
ATOM     10  C   UNL     1       3.029  -1.975   9.014  0.00  0.00    +0.027 A 
ATOM     11  C   UNL     1       3.484  -1.193  10.059  0.00  0.00    +0.051 A 
ATOM     12  C   UNL     1       3.926   0.096   9.812  0.00  0.00    +0.162 A 
ATOM     13  C   UNL     1       3.913   0.603   8.521  0.00  0.00    +0.164 A 
ATOM     14  C   UNL     1       3.464  -0.179   7.471  0.00  0.00    +0.072 A 
ATOM     15  O   UNL     1       4.354   1.875   8.291  0.00  0.00    -0.488 OA
ATOM     16  C   UNL     1       3.541   2.923   8.823  0.00  0.00    +0.232 C 
ATOM     17  C   UNL     1       3.885   3.187  10.280  0.00  0.00    +0.082 C 
ATOM     18  C   UNL     1       3.563   2.000  11.175  0.00  0.00    +0.232 C 
ATOM     19  O   UNL     1       4.378   0.876  10.838  0.00  0.00    -0.488 OA
ENDBRANCH   7   9
ENDBRANCH   2   5
BRANCH   1  20
ATOM     20  C   UNL     1       0.074  -2.840   2.480  0.00  0.00    +0.104 C 
ATOM     21  C   UNL     1      -1.351  -3.249   2.859  0.00  0.00    +0.033 C 
BRANCH  20  27
ATOM     22  C   UNL     1      -0.102   1.522   0.036  0.00  0.00    +0.044 C 
ATOM     23  C   UNL     1      -0.036   0.017   0.014  0.00  0.00    -0.050 A 
ATOM     24  C   UNL     1      -0.000  -0.655  -1.194  0.00  0.00    +0.007 A 
ATOM     25  C   UNL     1       0.059  -2.035  -1.216  0.00  0.00    +0.046 A 
ATOM     26  C   UNL     1       0.084  -2.747  -0.025  0.00  0.00    +0.125 A 
ATOM     27  C   UNL     1       0.048  -2.070   1.185  0.00  0.00    +0.014 A 
ATOM     28  C   UNL     1      -0.007  -0.690   1.202  0.00  0.00    +0.012 A 
BRANCH  26  29
ATOM     29  O   UNL     1       0.142  -4.104  -0.045  0.00  0.00    -0.495 OA
ATOM     30  C   UNL     1       0.175  -4.734  -1.327  0.00  0.00    +0.277 C 
ENDBRANCH  26  29
ENDBRANCH  20  27
ENDBRANCH   1  20
TORSDOF 5
