REMARK  Name = ZINC13522305
REMARK  6 active torsions:
REMARK  status: ('A' for Active; 'I' for Inactive)
REMARK    1  A    between atoms: C_1  and  O_2
REMARK    2  A    between atoms: O_2  and  C_3
REMARK    3  A    between atoms: C_5  and  C_13
REMARK    4  A    between atoms: C_7  and  N_10
REMARK    5  A    between atoms: C_8  and  O_9
REMARK    6  A    between atoms: N_17  and  C_21
REMARK                            x       y       z     vdW  Elec       q    Type
REMARK                         _______ _______ _______ _____ _____    ______ ____
ROOT
ATOM      1  C   UNL     1      -4.863   0.217   0.157  0.00  0.00    +0.028 C 
ATOM      2  C   UNL     1      -6.054  -0.416   0.005  0.00  0.00    +0.080 C 
ATOM      3  C   UNL     1      -7.413   0.150  -0.106  0.00  0.00    +0.265 C 
ATOM      4  O   UNL     1      -7.610   1.350  -0.070  0.00  0.00    -0.269 OA
ATOM      5  N   UNL     1      -8.404  -0.714  -0.248  0.00  0.00    -0.197 N 
ATOM      6  C   UNL     1      -8.181  -2.043  -0.288  0.00  0.00    +0.290 C 
ATOM      7  O   UNL     1      -8.991  -2.942  -0.413  0.00  0.00    -0.262 OA
ATOM      8  S   UNL     1      -6.407  -2.164  -0.121  0.00  0.00    -0.025 S 
ENDROOT
BRANCH   5   9
ATOM      9  C   UNL     1      -9.718  -0.236  -0.359  0.00  0.00    +0.045 A 
ATOM     10  C   UNL     1     -10.109   0.467  -1.490  0.00  0.00    +0.025 A 
ATOM     11  C   UNL     1     -11.404   0.936  -1.597  0.00  0.00    +0.022 A 
ATOM     12  C   UNL     1     -12.311   0.706  -0.577  0.00  0.00    +0.041 A 
ATOM     13  C   UNL     1     -11.923   0.006   0.552  0.00  0.00    +0.022 A 
ATOM     14  C   UNL     1     -10.631  -0.470   0.660  0.00  0.00    +0.025 A 
ATOM     15 CL   UNL     1     -13.937   1.298  -0.714  0.00  0.00    -0.084 Cl
ENDBRANCH   5   9
BRANCH   1  18
ATOM     16  C   UNL     1      -1.243  -0.711   0.477  0.00  0.00    +0.164 A 
ATOM     17  C   UNL     1      -2.386   0.027   0.237  0.00  0.00    +0.057 A 
ATOM     18  C   UNL     1      -3.644  -0.562   0.410  0.00  0.00    -0.018 A 
ATOM     19  C   UNL     1      -3.737  -1.896   0.824  0.00  0.00    +0.044 A 
ATOM     20  C   UNL     1      -2.592  -2.624   1.061  0.00  0.00    +0.172 A 
ATOM     21  C   UNL     1      -1.344  -2.041   0.884  0.00  0.00    +0.189 A 
BRANCH  20  22
ATOM     22  N   UNL     1      -2.692  -4.035   1.500  0.00  0.00    +0.060 N 
ATOM     23  O   UNL     1      -3.777  -4.546   1.650  0.00  0.00    -0.126 OA
ATOM     24  O   UNL     1      -1.688  -4.675   1.709  0.00  0.00    -0.126 OA
ENDBRANCH  20  22
BRANCH  16  26
ATOM     25  C   UNL     1       0.010   1.224  -0.108  0.00  0.00    +0.277 C 
ATOM     26  O   UNL     1      -0.019  -0.142   0.311  0.00  0.00    -0.491 OA
ENDBRANCH  16  26
BRANCH  21  27
ATOM     27  O   UNL     1      -0.219  -2.766   1.115  0.00  0.00    -0.502 OA
ATOM     28  H   UNL     1       0.101  -2.717   2.026  0.00  0.00    +0.292 HD
ENDBRANCH  21  27
ENDBRANCH   1  18
TORSDOF 5
