REMARK  Name = ZINC40182360
REMARK  11 active torsions:
REMARK  status: ('A' for Active; 'I' for Inactive)
REMARK    1  A    between atoms: C_1  and  C_2
REMARK    2  A    between atoms: C_2  and  C_3
REMARK    3  A    between atoms: C_3  and  C_5
REMARK    4  A    between atoms: C_3  and  C_6
REMARK    5  A    between atoms: C_9  and  O_12
REMARK    6  A    between atoms: O_12  and  C_13
REMARK    7  A    between atoms: C_13  and  C_14
REMARK    8  A    between atoms: C_14  and  C_15
REMARK    9  A    between atoms: C_15  and  N_16
REMARK   10  A    between atoms: C_24  and  C_25
REMARK   11  A    between atoms: N_30  and  C_32
REMARK                            x       y       z     vdW  Elec       q    Type
REMARK                         _______ _______ _______ _____ _____    ______ ____
ROOT
ATOM      1  N   UNL     1       3.823 -10.249   0.850  0.00  0.00    -0.327 N 
ATOM      2  C   UNL     1       3.745 -11.125   1.914  0.00  0.00    +0.069 A 
ATOM      3  C   UNL     1       3.717 -10.971   3.293  0.00  0.00    +0.028 A 
ATOM      4  C   UNL     1       3.632 -12.083   4.103  0.00  0.00    +0.002 A 
ATOM      5  C   UNL     1       3.574 -13.354   3.549  0.00  0.00    +0.002 A 
ATOM      6  C   UNL     1       3.600 -13.525   2.194  0.00  0.00    +0.030 A 
ATOM      7  C   UNL     1       3.685 -12.412   1.353  0.00  0.00    +0.089 A 
ATOM      8  N   UNL     1       3.729 -12.258   0.005  0.00  0.00    -0.232 NA
ATOM      9  C   UNL     1       3.804 -10.993  -0.289  0.00  0.00    +0.116 A 
ENDROOT
BRANCH   9  10
ATOM     10  C   UNL     1       3.865 -10.433  -1.687  0.00  0.00    +0.082 C 
ATOM     11  C   UNL     1       2.662 -10.917  -2.530  0.00  0.00    +0.109 C 
ATOM     12  C   UNL     1       3.240 -11.132  -3.911  0.00  0.00    +0.221 C 
ATOM     13  O   UNL     1       2.587 -11.240  -4.928  0.00  0.00    -0.275 OA
ATOM     14  N   UNL     1       4.582 -11.183  -3.849  0.00  0.00    -0.271 N 
ATOM     15  C   UNL     1       5.058 -11.026  -2.469  0.00  0.00    +0.125 C 
BRANCH  14  16
ATOM     16  C   UNL     1       5.418 -11.364  -4.957  0.00  0.00    +0.040 A 
ATOM     17  C   UNL     1       6.797 -11.291  -4.807  0.00  0.00    +0.027 A 
ATOM     18  C   UNL     1       7.622 -11.468  -5.900  0.00  0.00    +0.051 A 
ATOM     19  C   UNL     1       7.078 -11.719  -7.151  0.00  0.00    +0.162 A 
ATOM     20  C   UNL     1       5.699 -11.795  -7.304  0.00  0.00    +0.164 A 
ATOM     21  C   UNL     1       4.870 -11.621  -6.206  0.00  0.00    +0.073 A 
ATOM     22  O   UNL     1       5.146 -12.048  -8.523  0.00  0.00    -0.485 OA
ATOM     23  C   UNL     1       5.987 -11.852  -9.664  0.00  0.00    +0.270 C 
ATOM     24  C   UNL     1       7.345 -12.508  -9.379  0.00  0.00    +0.270 C 
ATOM     25  O   UNL     1       7.908 -11.887  -8.218  0.00  0.00    -0.485 OA
ENDBRANCH  14  16
ENDBRANCH   9  10
BRANCH   1  26
ATOM     26  C   UNL     1       3.905  -8.789   0.932  0.00  0.00    +0.127 C 
BRANCH  26  27
ATOM     27  C   UNL     1       2.494  -8.197   0.931  0.00  0.00    +0.062 C 
BRANCH  27  28
ATOM     28  C   UNL     1       2.580  -6.672   1.016  0.00  0.00    +0.231 C 
BRANCH  28  29
ATOM     29  O   UNL     1       1.262  -6.120   1.015  0.00  0.00    -0.492 OA
BRANCH  29  33
ATOM     30  C   UNL     1       0.952  -2.012   1.234  0.00  0.00    -0.044 A 
ATOM     31  C   UNL     1      -0.190  -2.788   1.163  0.00  0.00    +0.007 A 
ATOM     32  C   UNL     1      -0.089  -4.164   1.090  0.00  0.00    +0.046 A 
ATOM     33  C   UNL     1       1.160  -4.767   1.087  0.00  0.00    +0.121 A 
ATOM     34  C   UNL     1       2.305  -3.986   1.157  0.00  0.00    +0.046 A 
ATOM     35  C   UNL     1       2.198  -2.611   1.226  0.00  0.00    +0.007 A 
BRANCH  30  36
ATOM     36  C   UNL     1       0.839  -0.512   1.315  0.00  0.00    +0.016 C 
ATOM     37  C   UNL     1       0.057  -0.126   2.572  0.00  0.00    +0.012 C 
BRANCH  36  39
ATOM     38  C   UNL     1       0.100   1.542   0.098  0.00  0.00    +0.004 C 
ATOM     39  C   UNL     1       0.106   0.012   0.078  0.00  0.00    +0.004 C 
ENDBRANCH  36  39
ENDBRANCH  30  36
ENDBRANCH  29  33
ENDBRANCH  28  29
ENDBRANCH  27  28
ENDBRANCH  26  27
ENDBRANCH   1  26
TORSDOF 9
