REMARK  Name = ZINC51990524
REMARK  3 active torsions:
REMARK  status: ('A' for Active; 'I' for Inactive)
REMARK    1  A    between atoms: C_8  and  C_9
REMARK    2  A    between atoms: N_11  and  C_12
REMARK    3  A    between atoms: C_18  and  O_20
REMARK                            x       y       z     vdW  Elec       q    Type
REMARK                         _______ _______ _______ _____ _____    ______ ____
ROOT
ATOM      1  C   UNL     1      -1.261  -0.764   0.011  0.00  0.00    +0.246 C 
ATOM      2  O   UNL     1      -1.239  -1.980   0.004  0.00  0.00    -0.270 OA
ATOM      3  N   UNL     1      -2.441  -0.112   0.026  0.00  0.00    -0.306 N 
ATOM      4  H   UNL     1      -2.458   0.858   0.031  0.00  0.00    +0.149 HD
ENDROOT
BRANCH   1  12
ATOM      5  C   UNL     1      -0.017   1.412   0.010  0.00  0.00    +0.020 A 
ATOM      6  C   UNL     1       1.163   2.087   0.002  0.00  0.00    +0.071 A 
ATOM      7  C   UNL     1       2.373   1.369  -0.013  0.00  0.00    +0.249 A 
ATOM      8  O   UNL     1       3.434   1.970  -0.020  0.00  0.00    -0.268 OA
ATOM      9  N   UNL     1       2.368   0.023  -0.020  0.00  0.00    -0.328 N 
ATOM     10  H   UNL     1       3.211  -0.457  -0.031  0.00  0.00    +0.168 HD
ATOM     11  C   UNL     1       1.212  -0.667  -0.013  0.00  0.00    +0.099 A 
ATOM     12  C   UNL     1       0.002  -0.004   0.002  0.00  0.00    +0.053 A 
ENDBRANCH   1  12
BRANCH   3  13
ATOM     13  C   UNL     1      -3.696  -0.867   0.034  0.00  0.00    +0.102 C 
ATOM     14  C   UNL     1      -4.054  -1.246   1.473  0.00  0.00    +0.025 C 
ATOM     15  C   UNL     1      -5.364  -2.034   1.482  0.00  0.00    +0.002 C 
ATOM     16  C   UNL     1      -6.481  -1.174   0.888  0.00  0.00    +0.003 C 
ATOM     17  C   UNL     1      -6.124  -0.795  -0.551  0.00  0.00    +0.033 C 
ATOM     18  C   UNL     1      -4.813  -0.007  -0.560  0.00  0.00    +0.135 C 
BRANCH  18  19
ATOM     19  O   UNL     1      -4.478   0.347  -1.903  0.00  0.00    -0.390 OA
ATOM     20  H   UNL     1      -5.144   0.894  -2.343  0.00  0.00    +0.210 HD
ENDBRANCH  18  19
ENDBRANCH   3  13
TORSDOF 3
