REMARK  Name = ZINC11214877
REMARK  5 active torsions:
REMARK  status: ('A' for Active; 'I' for Inactive)
REMARK    1  A    between atoms: C_1  and  C_2
REMARK    2  A    between atoms: C_3  and  C_20
REMARK    3  A    between atoms: C_4  and  C_10
REMARK    4  A    between atoms: C_20  and  O_22
REMARK    5  A    between atoms: O_22  and  C_23
REMARK                            x       y       z     vdW  Elec       q    Type
REMARK                         _______ _______ _______ _____ _____    ______ ____
ROOT
ATOM      1  C   UNL     1       6.108  -0.125   2.957  0.00  0.00    +0.061 C 
ATOM      2  C   UNL     1       5.501  -0.152   1.577  0.00  0.00    +0.019 C 
ATOM      3  C   UNL     1       4.306  -0.754   1.389  0.00  0.00    +0.078 C 
ATOM      4  C   UNL     1       3.733  -0.759  -0.014  0.00  0.00    +0.141 C 
ATOM      5  N   UNL     1       4.531  -0.103  -1.063  0.00  0.00    -0.315 N 
ATOM      6  C   UNL     1       5.708   0.455  -0.718  0.00  0.00    +0.135 C 
ATOM      7  S   UNL     1       6.647   1.222  -1.927  0.00  0.00    -0.019 S 
ATOM      8  N   UNL     1       6.168   0.430   0.539  0.00  0.00    -0.300 N 
ATOM      9  H   UNL     1       4.218  -0.074  -1.980  0.00  0.00    +0.149 HD
ATOM     10  H   UNL     1       7.023   0.850   0.722  0.00  0.00    +0.154 HD
ENDROOT
BRANCH   4  11
ATOM     11  C   UNL     1       2.385  -0.087   0.033  0.00  0.00    -0.018 A 
ATOM     12  C   UNL     1       1.234  -0.852   0.063  0.00  0.00    +0.055 A 
ATOM     13  C   UNL     1      -0.007  -0.236   0.105  0.00  0.00    +0.168 A 
ATOM     14  C   UNL     1      -0.091   1.154   0.117  0.00  0.00    +0.184 A 
ATOM     15  C   UNL     1       1.067   1.915   0.087  0.00  0.00    +0.087 A 
ATOM     16  C   UNL     1       2.303   1.293   0.045  0.00  0.00    +0.029 A 
ATOM     17 CL   UNL     1       0.968   3.648   0.102  0.00  0.00    -0.080 Cl
ATOM     18  O   UNL     1      -1.408   1.511   0.155  0.00  0.00    -0.451 OA
ATOM     19  C   UNL     1      -2.138   0.336  -0.238  0.00  0.00    +0.466 C 
ATOM     20  O   UNL     1      -1.271  -0.750   0.140  0.00  0.00    -0.453 OA
ENDBRANCH   4  11
BRANCH   3  21
ATOM     21  C   UNL     1       3.614  -1.358   2.464  0.00  0.00    +0.338 C 
ATOM     22  O   UNL     1       4.136  -1.429   3.561  0.00  0.00    -0.245 OA
BRANCH  21  23
ATOM     23  O   UNL     1       2.374  -1.856   2.274  0.00  0.00    -0.465 OA
ATOM     24  C   UNL     1       1.734  -2.452   3.404  0.00  0.00    +0.280 C 
ENDBRANCH  21  23
ENDBRANCH   3  21
TORSDOF 3
