REMARK  Name = ZINC42526608
REMARK  12 active torsions:
REMARK  status: ('A' for Active; 'I' for Inactive)
REMARK    1  A    between atoms: C_1  and  C_2
REMARK    2  A    between atoms: C_2  and  C_3
REMARK    3  A    between atoms: C_3  and  C_4
REMARK    4  A    between atoms: C_3  and  N_6
REMARK    5  A    between atoms: C_4  and  C_5
REMARK    6  A    between atoms: N_6  and  C_7
REMARK    7  A    between atoms: N_6  and  S_10
REMARK    8  A    between atoms: C_7  and  C_8
REMARK    9  A    between atoms: C_8  and  O_9
REMARK   10  A    between atoms: S_10  and  C_13
REMARK   11  A    between atoms: C_18  and  N_19
REMARK   12  A    between atoms: N_19  and  N_20
REMARK                            x       y       z     vdW  Elec       q    Type
REMARK                         _______ _______ _______ _____ _____    ______ ____
ROOT
ATOM      1  S   UNL     1       0.578   0.848  -4.103  0.00  0.00    +0.065 S 
ATOM      2  O   UNL     1      -0.076   2.025  -4.558  0.00  0.00    -0.153 OA
ATOM      3  O   UNL     1       1.867   0.875  -3.505  0.00  0.00    -0.153 OA
ENDROOT
BRANCH   1   4
ATOM      4  C   UNL     1       0.687  -0.236  -5.487  0.00  0.00    +0.147 A 
ATOM      5  C   UNL     1      -0.003   0.045  -6.654  0.00  0.00    +0.048 A 
ATOM      6  C   UNL     1       0.112  -0.838  -7.720  0.00  0.00    +0.038 A 
ATOM      7  C   UNL     1       0.905  -1.961  -7.586  0.00  0.00    +0.128 A 
ATOM      8  N   UNL     1       1.551  -2.203  -6.461  0.00  0.00    -0.236 NA
ATOM      9  C   UNL     1       1.471  -1.383  -5.425  0.00  0.00    +0.159 A 
ATOM     10 BR   UNL     1      -0.807  -0.505  -9.339  0.00  0.00    -0.049 Br
BRANCH   9  11
ATOM     11  N   UNL     1       2.174  -1.674  -4.261  0.00  0.00    -0.266 N 
ATOM     12  H   UNL     1       2.057  -1.121  -3.472  0.00  0.00    +0.167 HD
BRANCH  11  13
ATOM     13  N   UNL     1       3.029  -2.738  -4.227  0.00  0.00    -0.255 NA
ATOM     14  H   UNL     1       3.723  -2.668  -4.957  0.00  0.00    +0.140 HD
ATOM     15  H   UNL     1       3.465  -2.824  -3.321  0.00  0.00    +0.140 HD
ENDBRANCH  11  13
ENDBRANCH   9  11
ENDBRANCH   1   4
BRANCH   1  16
ATOM     16  N   UNL     1      -0.438   0.138  -3.004  0.00  0.00    -0.171 NA
BRANCH  16  17
ATOM     17  C   UNL     1       0.115  -0.602  -1.867  0.00  0.00    +0.079 C 
BRANCH  17  19
ATOM     18  C   UNL     1       0.374   1.515  -0.565  0.00  0.00    +0.005 C 
ATOM     19  C   UNL     1      -0.248   0.117  -0.566  0.00  0.00    +0.017 C 
ENDBRANCH  17  19
BRANCH  17  20
ATOM     20  C   UNL     1      -0.468  -2.017  -1.847  0.00  0.00    +0.017 C 
ATOM     21  C   UNL     1      -0.022  -2.769  -3.103  0.00  0.00    +0.005 C 
ENDBRANCH  17  20
ENDBRANCH  16  17
BRANCH  16  22
ATOM     22  C   UNL     1      -1.889   0.250  -3.169  0.00  0.00    +0.137 C 
BRANCH  22  23
ATOM     23  C   UNL     1      -2.410   1.418  -2.328  0.00  0.00    +0.173 C 
BRANCH  23  24
ATOM     24  O   UNL     1      -1.844   2.639  -2.807  0.00  0.00    -0.394 OA
ATOM     25  H   UNL     1      -2.130   3.424  -2.319  0.00  0.00    +0.209 HD
ENDBRANCH  23  24
ENDBRANCH  22  23
ENDBRANCH  16  22
ENDBRANCH   1  16
TORSDOF 10
