REMARK  Name = ZINC64430460
REMARK  5 active torsions:
REMARK  status: ('A' for Active; 'I' for Inactive)
REMARK    1  A    between atoms: C_4  and  N_20
REMARK    2  A    between atoms: C_6  and  C_7
REMARK    3  A    between atoms: N_8  and  O_9
REMARK    4  A    between atoms: O_9  and  C_10
REMARK    5  A    between atoms: C_10  and  C_11
REMARK                            x       y       z     vdW  Elec       q    Type
REMARK                         _______ _______ _______ _____ _____    ______ ____
ROOT
ATOM      1  C   UNL     1      -1.324  -0.730   0.026  0.00  0.00    +0.163 C 
ATOM      2  N   UNL     1      -2.442  -0.075  -0.071  0.00  0.00    -0.069 NA
ATOM      3  N   UNL     1      -1.335  -2.112   0.114  0.00  0.00    -0.340 N 
ATOM      4  H   UNL     1      -0.501  -2.601   0.187  0.00  0.00    +0.144 HD
ATOM      5  H   UNL     1      -2.179  -2.592   0.103  0.00  0.00    +0.144 HD
ENDROOT
BRANCH   1  11
ATOM      6  C   UNL     1       0.032   1.326   0.494  0.00  0.00    +0.029 A 
ATOM      7  C   UNL     1       1.249   1.974   0.495  0.00  0.00    +0.085 A 
ATOM      8  N   UNL     1       2.343   1.365   0.079  0.00  0.00    -0.350 N 
ATOM      9  C   UNL     1       2.327   0.115  -0.356  0.00  0.00    +0.099 A 
ATOM     10  C   UNL     1       1.142  -0.609  -0.390  0.00  0.00    +0.053 A 
ATOM     11  C   UNL     1      -0.036   0.002   0.043  0.00  0.00    +0.022 A 
ATOM     12  H   UNL     1       3.184   1.849   0.092  0.00  0.00    +0.166 HD
BRANCH   9  13
ATOM     13  N   UNL     1       3.509  -0.480  -0.784  0.00  0.00    -0.317 N 
ATOM     14  C   UNL     1       4.751   0.300  -0.869  0.00  0.00    +0.106 C 
ATOM     15  C   UNL     1       5.842  -0.424  -0.073  0.00  0.00    +0.019 C 
ATOM     16  C   UNL     1       5.967  -1.863  -0.579  0.00  0.00    +0.003 C 
ATOM     17  C   UNL     1       4.643  -2.599  -0.362  0.00  0.00    +0.019 C 
ATOM     18  C   UNL     1       3.540  -1.901  -1.155  0.00  0.00    +0.106 C 
ENDBRANCH   9  13
ENDBRANCH   1  11
BRANCH   2  19
ATOM     19  O   UNL     1      -2.428   1.323  -0.295  0.00  0.00    -0.383 OA
BRANCH  19  20
ATOM     20  C   UNL     1      -3.727   1.911  -0.381  0.00  0.00    +0.358 C 
BRANCH  20  21
ATOM     21  C   UNL     1      -3.592   3.393  -0.619  0.00  0.00    +0.256 C 
ATOM     22  O   UNL     1      -2.491   3.896  -0.707  0.00  0.00    -0.272 OA
ATOM     23  N   UNL     1      -4.694   4.160  -0.735  0.00  0.00    -0.299 N 
ATOM     24  C   UNL     1      -6.034   3.567  -0.625  0.00  0.00    +0.108 C 
ATOM     25  C   UNL     1      -6.826   4.332   0.441  0.00  0.00    +0.019 C 
ATOM     26  C   UNL     1      -6.825   5.824   0.098  0.00  0.00    +0.003 C 
ATOM     27  C   UNL     1      -5.387   6.348   0.096  0.00  0.00    +0.019 C 
ATOM     28  C   UNL     1      -4.579   5.606  -0.967  0.00  0.00    +0.108 C 
ENDBRANCH  20  21
ENDBRANCH  19  20
ENDBRANCH   2  19
TORSDOF 5
