REMARK  Name = ZINC44818477
REMARK  5 active torsions:
REMARK  status: ('A' for Active; 'I' for Inactive)
REMARK    1  A    between atoms: C_1  and  N_2
REMARK    2  A    between atoms: C_4  and  C_18
REMARK    3  A    between atoms: C_6  and  C_7
REMARK    4  A    between atoms: C_18  and  C_20
REMARK    5  A    between atoms: C_25  and  O_26
REMARK                            x       y       z     vdW  Elec       q    Type
REMARK                         _______ _______ _______ _____ _____    ______ ____
ROOT
ATOM      1  C   UNL     1       0.216   1.493  -0.075  0.00  0.00    +0.149 C 
ATOM      2  N   UNL     1      -0.017   0.047  -0.048  0.00  0.00    -0.347 N 
ATOM      3  C   UNL     1      -0.133  -0.744  -1.129  0.00  0.00    +0.097 A 
ATOM      4  C   UNL     1      -0.346  -2.041  -0.699  0.00  0.00    +0.041 A 
ATOM      5  C   UNL     1      -0.356  -2.012   0.716  0.00  0.00    +0.042 A 
ATOM      6  C   UNL     1      -0.146  -0.718   1.090  0.00  0.00    +0.085 A 
ENDROOT
BRANCH   6   7
ATOM      7  C   UNL     1      -0.074  -0.224   2.471  0.00  0.00    +0.159 A 
ATOM      8  N   UNL     1       0.304   1.072   2.707  0.00  0.00    -0.305 N 
ATOM      9  H   UNL     1       0.520   1.649   1.958  0.00  0.00    +0.170 HD
ATOM     10  C   UNL     1       0.381   1.558   3.960  0.00  0.00    +0.260 A 
ATOM     11  O   UNL     1       0.718   2.713   4.154  0.00  0.00    -0.267 OA
ATOM     12  C   UNL     1       0.060   0.700   5.061  0.00  0.00    +0.072 A 
ATOM     13  C   UNL     1       0.068   0.992   6.483  0.00  0.00    +0.023 A 
ATOM     14  C   UNL     1      -0.273   0.027   7.352  0.00  0.00    +0.048 A 
ATOM     15  S   UNL     1      -0.634  -1.368   6.302  0.00  0.00    -0.077 S 
ATOM     16  C   UNL     1      -0.318  -0.615   4.726  0.00  0.00    +0.116 A 
ATOM     17  N   UNL     1      -0.379  -1.031   3.469  0.00  0.00    -0.220 NA
ENDBRANCH   6   7
BRANCH   4  18
ATOM     18  C   UNL     1      -0.529  -3.228  -1.552  0.00  0.00    +0.198 C 
ATOM     19  O   UNL     1      -0.805  -4.301  -1.050  0.00  0.00    -0.286 OA
BRANCH  18  20
ATOM     20  C   UNL     1      -0.377  -3.115  -3.015  0.00  0.00    +0.066 A 
ATOM     21  C   UNL     1      -1.505  -3.103  -3.840  0.00  0.00    +0.053 A 
ATOM     22  C   UNL     1      -1.355  -2.997  -5.208  0.00  0.00    +0.124 A 
ATOM     23  C   UNL     1      -0.088  -2.902  -5.767  0.00  0.00    +0.042 A 
ATOM     24  C   UNL     1       1.033  -2.913  -4.962  0.00  0.00    +0.049 A 
ATOM     25  C   UNL     1       0.900  -3.013  -3.585  0.00  0.00    +0.128 A 
ATOM     26  F   UNL     1      -2.445  -2.986  -6.005  0.00  0.00    -0.205 F 
BRANCH  25  27
ATOM     27  O   UNL     1       2.002  -3.018  -2.793  0.00  0.00    -0.506 OA
ATOM     28  H   UNL     1       2.363  -3.900  -2.627  0.00  0.00    +0.292 HD
ENDBRANCH  25  27
ENDBRANCH  18  20
ENDBRANCH   4  18
TORSDOF 4
