REMARK  Name = ZINC39919807
REMARK  7 active torsions:
REMARK  status: ('A' for Active; 'I' for Inactive)
REMARK    1  A    between atoms: C_1  and  C_2
REMARK    2  A    between atoms: C_2  and  C_3
REMARK    3  A    between atoms: C_3  and  C_4
REMARK    4  A    between atoms: N_15  and  N_16
REMARK    5  A    between atoms: C_17  and  C_19
REMARK    6  A    between atoms: C_19  and  O_20
REMARK    7  A    between atoms: O_20  and  C_21
REMARK                            x       y       z     vdW  Elec       q    Type
REMARK                         _______ _______ _______ _____ _____    ______ ____
ROOT
ATOM      1  C   UNL     1       0.739  -2.027  -1.265  0.00  0.00    +0.180 C 
ATOM      2  N   UNL     1      -0.636  -2.531  -1.367  0.00  0.00    -0.324 N 
ATOM      3  C   UNL     1      -1.275  -2.473  -2.602  0.00  0.00    +0.041 A 
ATOM      4  C   UNL     1      -2.648  -2.334  -2.710  0.00  0.00    +0.025 A 
ATOM      5  C   UNL     1      -3.233  -2.278  -3.961  0.00  0.00    +0.022 A 
ATOM      6  C   UNL     1      -2.455  -2.358  -5.107  0.00  0.00    +0.042 A 
ATOM      7  C   UNL     1      -1.085  -2.497  -5.015  0.00  0.00    +0.035 A 
ATOM      8  C   UNL     1      -0.483  -2.557  -3.761  0.00  0.00    +0.061 A 
ATOM      9  C   UNL     1       0.974  -2.714  -3.606  0.00  0.00    +0.266 C 
ATOM     10  O   UNL     1       1.662  -3.038  -4.555  0.00  0.00    -0.268 OA
ATOM     11  N   UNL     1       1.533  -2.495  -2.401  0.00  0.00    -0.196 N 
ATOM     12 CL   UNL     1      -3.212  -2.283  -6.667  0.00  0.00    -0.084 Cl
ATOM     13  H   UNL     1      -1.089  -2.897  -0.592  0.00  0.00    +0.148 HD
ENDROOT
BRANCH  11  14
ATOM     14  N   UNL     1       2.906  -2.718  -2.235  0.00  0.00    -0.227 N 
ATOM     15  C   UNL     1       3.378  -3.978  -2.152  0.00  0.00    +0.267 C 
ATOM     16  O   UNL     1       2.615  -4.918  -2.220  0.00  0.00    -0.271 OA
ATOM     17  H   UNL     1       3.517  -1.967  -2.180  0.00  0.00    +0.173 HD
BRANCH  15  18
ATOM     18  C   UNL     1       4.855  -4.218  -1.973  0.00  0.00    +0.326 C 
BRANCH  18  19
ATOM     19  O   UNL     1       5.105  -5.624  -1.912  0.00  0.00    -0.483 OA
BRANCH  19  20
ATOM     20  C   UNL     1       6.397  -6.015  -1.752  0.00  0.00    +0.121 A 
ATOM     21  C   UNL     1       7.402  -5.064  -1.649  0.00  0.00    +0.047 A 
ATOM     22  C   UNL     1       8.715  -5.464  -1.486  0.00  0.00    +0.023 A 
ATOM     23  C   UNL     1       9.027  -6.810  -1.426  0.00  0.00    +0.041 A 
ATOM     24  C   UNL     1       8.025  -7.760  -1.529  0.00  0.00    +0.023 A 
ATOM     25  C   UNL     1       6.711  -7.364  -1.685  0.00  0.00    +0.047 A 
ATOM     26 CL   UNL     1      10.677  -7.309  -1.222  0.00  0.00    -0.084 Cl
ENDBRANCH  19  20
ENDBRANCH  18  19
ENDBRANCH  15  18
ENDBRANCH  11  14
BRANCH   1  27
ATOM     27  C   UNL     1       0.718  -0.497  -1.257  0.00  0.00    +0.043 C 
BRANCH  27  29
ATOM     28  C   UNL     1      -0.019   1.526   0.010  0.00  0.00    +0.004 C 
ATOM     29  C   UNL     1       0.002  -0.004   0.002  0.00  0.00    +0.000 C 
ENDBRANCH  27  29
ENDBRANCH   1  27
TORSDOF 6
