REMARK  Name = ZINC27527590
REMARK  6 active torsions:
REMARK  status: ('A' for Active; 'I' for Inactive)
REMARK    1  A    between atoms: C_1  and  O_2
REMARK    2  A    between atoms: O_2  and  C_3
REMARK    3  A    between atoms: C_5  and  C_12
REMARK    4  A    between atoms: C_13  and  C_14
REMARK    5  A    between atoms: C_13  and  N_32
REMARK    6  A    between atoms: C_33  and  C_35
REMARK                            x       y       z     vdW  Elec       q    Type
REMARK                         _______ _______ _______ _____ _____    ______ ____
ROOT
ATOM      1  C   UNL     1      -0.004   6.300  -0.564  0.00  0.00    +0.036 C 
ATOM      2  C   UNL     1       0.426   5.638  -1.664  0.00  0.00    +0.097 C 
ENDROOT
BRANCH   2   3
ATOM      3  C   UNL     1       1.046   6.379  -2.771  0.00  0.00    +0.261 C 
ATOM      4  O   UNL     1       0.350   6.857  -3.647  0.00  0.00    -0.269 OA
ATOM      5  N   UNL     1       2.384   6.529  -2.816  0.00  0.00    -0.296 N 
ATOM      6  C   UNL     1       3.012   7.357  -3.853  0.00  0.00    +0.113 C 
ATOM      7  C   UNL     1       3.981   8.348  -3.213  0.00  0.00    +0.027 C 
ATOM      8  C   UNL     1       4.940   7.637  -2.258  0.00  0.00    +0.018 C 
ATOM      9  C   UNL     1       4.114   6.949  -1.168  0.00  0.00    +0.054 C 
ATOM     10  C   UNL     1       3.249   5.863  -1.830  0.00  0.00    +0.117 C 
ATOM     11  C   UNL     1       3.183   7.951  -0.526  0.00  0.00    +0.027 A 
ATOM     12  C   UNL     1       2.814   7.726   0.763  0.00  0.00    +0.022 A 
ATOM     13  C   UNL     1       1.900   8.573   1.399  0.00  0.00    +0.007 A 
ATOM     14  C   UNL     1       1.366   9.614   0.697  0.00  0.00    +0.070 A 
ATOM     15  C   UNL     1       1.767   9.816  -0.632  0.00  0.00    +0.251 A 
ATOM     16  O   UNL     1       1.248  10.702  -1.292  0.00  0.00    -0.268 OA
ATOM     17  N   UNL     1       2.725   9.036  -1.190  0.00  0.00    -0.312 N 
ATOM     18  C   UNL     1       3.258   9.466  -2.484  0.00  0.00    +0.130 C 
ENDBRANCH   2   3
BRANCH   1  21
ATOM     19  C   UNL     1      -1.527   5.421   2.751  0.00  0.00    +0.166 A 
ATOM     20  C   UNL     1      -0.821   6.099   1.775  0.00  0.00    +0.057 A 
ATOM     21  C   UNL     1      -0.758   5.585   0.476  0.00  0.00    -0.016 A 
ATOM     22  C   UNL     1      -1.418   4.391   0.167  0.00  0.00    +0.057 A 
ATOM     23  C   UNL     1      -2.127   3.720   1.146  0.00  0.00    +0.170 A 
ATOM     24  C   UNL     1      -2.184   4.233   2.441  0.00  0.00    +0.208 A 
ATOM     25  O   UNL     1      -2.938   3.393   3.209  0.00  0.00    -0.449 OA
ATOM     26  C   UNL     1      -3.000   2.154   2.478  0.00  0.00    +0.467 C 
ATOM     27  O   UNL     1      -2.845   2.559   1.105  0.00  0.00    -0.452 OA
BRANCH  19  29
ATOM     28  C   UNL     1      -0.992   7.199   4.237  0.00  0.00    +0.277 C 
ATOM     29  O   UNL     1      -1.585   5.918   4.016  0.00  0.00    -0.491 OA
ENDBRANCH  19  29
ENDBRANCH   1  21
BRANCH   2  30
ATOM     30  N   UNL     1       0.281   4.250  -1.747  0.00  0.00    -0.277 N 
ATOM     31  C   UNL     1      -0.368   3.701  -2.793  0.00  0.00    +0.248 C 
ATOM     32  O   UNL     1      -0.744   4.404  -3.711  0.00  0.00    -0.270 OA
ATOM     33  H   UNL     1       0.696   3.605  -0.958  0.00  0.00    +0.155 HD
BRANCH  31  34
ATOM     34  C   UNL     1      -0.621   2.245  -2.824  0.00  0.00    +0.037 A 
ATOM     35  C   UNL     1      -0.283   1.451  -1.727  0.00  0.00    +0.013 A 
ATOM     36  C   UNL     1      -0.528   0.093  -1.761  0.00  0.00    +0.001 A 
ATOM     37  C   UNL     1      -1.097  -0.482  -2.883  0.00  0.00    +0.000 A 
ATOM     38  C   UNL     1      -1.429   0.298  -3.976  0.00  0.00    +0.001 A 
ATOM     39  C   UNL     1      -1.194   1.658  -3.954  0.00  0.00    +0.013 A 
ENDBRANCH  31  34
ENDBRANCH   2  30
TORSDOF 5
