REMARK  Name = ZINC63833986
REMARK  3 active torsions:
REMARK  status: ('A' for Active; 'I' for Inactive)
REMARK    1  A    between atoms: C_1  and  C_2
REMARK    2  A    between atoms: C_2  and  N_3
REMARK    3  A    between atoms: C_8  and  C_11
REMARK                            x       y       z     vdW  Elec       q    Type
REMARK                         _______ _______ _______ _____ _____    ______ ____
ROOT
ATOM      1  C   UNL     1      -3.817  -0.937  -3.720  0.00  0.00    +0.064 A 
ATOM      2  C   UNL     1      -4.117  -2.211  -3.397  0.00  0.00    +0.026 A 
ATOM      3  C   UNL     1      -4.304  -2.921  -4.601  0.00  0.00    +0.020 A 
ATOM      4  C   UNL     1      -4.111  -2.054  -5.615  0.00  0.00    +0.093 A 
ATOM      5  N   UNL     1      -3.817  -0.831  -5.082  0.00  0.00    -0.302 N 
ATOM      6  C   UNL     1      -3.557   0.334  -5.809  0.00  0.00    +0.138 A 
ATOM      7  C   UNL     1      -3.715   0.334  -7.190  0.00  0.00    +0.048 A 
ATOM      8  C   UNL     1      -3.454   1.494  -7.898  0.00  0.00    +0.025 A 
ATOM      9  C   UNL     1      -3.041   2.619  -7.197  0.00  0.00    +0.059 A 
ATOM     10  C   UNL     1      -2.905   2.547  -5.824  0.00  0.00    +0.133 A 
ATOM     11  N   UNL     1      -3.167   1.428  -5.176  0.00  0.00    -0.236 NA
ATOM     12 CL   UNL     1      -2.700   4.100  -8.037  0.00  0.00    -0.082 Cl
ENDROOT
BRANCH   1  17
ATOM     13  N   UNL     1      -1.468  -0.485   0.060  0.00  0.00    -0.233 N 
ATOM     14  C   UNL     1      -2.292  -0.801  -1.107  0.00  0.00    +0.211 C 
ATOM     15  C   UNL     1      -3.687  -0.471  -0.579  0.00  0.00    +0.094 C 
ATOM     16  N   UNL     1      -4.375   0.032  -1.545  0.00  0.00    -0.258 NA
ATOM     17  C   UNL     1      -3.536   0.179  -2.747  0.00  0.00    +0.222 C 
ATOM     18  N   UNL     1      -2.116   0.086  -2.263  0.00  0.00    -0.266 NA
ATOM     19  C   UNL     1      -3.556  -0.752   0.850  0.00  0.00    +0.156 C 
ATOM     20  N   UNL     1      -2.289  -0.786   1.167  0.00  0.00    -0.189 NA
ATOM     21  H   UNL     1      -1.773   0.990  -1.975  0.00  0.00    +0.126 HD
BRANCH  13  23
ATOM     22  C   UNL     1      -0.117   1.553   0.076  0.00  0.00    +0.026 C 
ATOM     23  C   UNL     1      -0.094   0.024   0.076  0.00  0.00    +0.125 C 
ENDBRANCH  13  23
ENDBRANCH   1  17
TORSDOF 2
