REMARK  Name = ZINC25449395
REMARK  10 active torsions:
REMARK  status: ('A' for Active; 'I' for Inactive)
REMARK    1  A    between atoms: C_1  and  C_2
REMARK    2  A    between atoms: C_2  and  N_3
REMARK    3  A    between atoms: N_3  and  C_4
REMARK    4  A    between atoms: C_4  and  C_5
REMARK    5  A    between atoms: C_6  and  C_8
REMARK    6  A    between atoms: C_8  and  C_10
REMARK    7  A    between atoms: C_8  and  N_16
REMARK    8  A    between atoms: C_19  and  C_22
REMARK    9  A    between atoms: C_22  and  C_24
REMARK   10  A    between atoms: C_27  and  O_30
REMARK                            x       y       z     vdW  Elec       q    Type
REMARK                         _______ _______ _______ _____ _____    ______ ____
ROOT
ATOM      1  N   UNL     1      -7.056   1.543   0.741  0.00  0.00    +0.390 N 
ATOM      2  C   UNL     1      -7.057   1.286  -0.705  0.00  0.00    -0.077 C 
ATOM      3  C   UNL     1      -6.088   0.145  -1.022  0.00  0.00    -0.007 C 
ATOM      4  C   UNL     1      -4.682   0.530  -0.553  0.00  0.00    +0.057 C 
ATOM      5  C   UNL     1      -4.718   0.841   0.946  0.00  0.00    -0.007 C 
ATOM      6  C   UNL     1      -5.727   1.961   1.206  0.00  0.00    -0.077 C 
ATOM      7  H   UNL     1      -7.308   0.601   1.249  0.00  0.00    -0.080 HD
ENDROOT
BRANCH   4   8
ATOM      8  C   UNL     1      -3.736  -0.614  -0.809  0.00  0.00    +0.166 C 
ATOM      9  O   UNL     1      -4.159  -1.748  -0.877  0.00  0.00    -0.292 OA
BRANCH   8  10
ATOM     10  C   UNL     1      -2.299  -0.355  -0.975  0.00  0.00    +0.018 A 
ATOM     11  C   UNL     1      -1.417  -1.417  -1.212  0.00  0.00    +0.015 A 
ATOM     12  C   UNL     1      -0.078  -1.170  -1.373  0.00  0.00    +0.046 A 
ATOM     13  C   UNL     1       0.405   0.132  -1.294  0.00  0.00    +0.117 A 
ATOM     14  C   UNL     1      -0.466   1.189  -1.053  0.00  0.00    +0.046 A 
ATOM     15  C   UNL     1      -1.807   0.953  -0.891  0.00  0.00    +0.015 A 
BRANCH  13  16
ATOM     16  O   UNL     1       1.731   0.371  -1.454  0.00  0.00    -0.507 OA
ATOM     17  H   UNL     1       2.115   1.400  -1.392  0.00  0.00    +0.292 HD
ENDBRANCH  13  16
ENDBRANCH   8  10
ENDBRANCH   4   8
BRANCH   1  18
ATOM     18  C   UNL     1      -8.076   2.538   1.100  0.00  0.00    +0.050 C 
BRANCH  18  19
ATOM     19  C   UNL     1      -8.021   2.802   2.583  0.00  0.00    -0.052 A 
ATOM     20  C   UNL     1      -9.021   2.321   3.407  0.00  0.00    +0.002 A 
ATOM     21  C   UNL     1      -8.969   2.559   4.768  0.00  0.00    +0.000 A 
ATOM     22  C   UNL     1      -7.922   3.285   5.303  0.00  0.00    +0.000 A 
ATOM     23  C   UNL     1      -6.925   3.771   4.478  0.00  0.00    +0.000 A 
ATOM     24  C   UNL     1      -6.975   3.529   3.117  0.00  0.00    +0.002 A 
ENDBRANCH  18  19
BRANCH  18  26
ATOM     25  N   UNL     1      -8.750   4.787   0.320  0.00  0.00    -0.303 N 
ATOM     26  C   UNL     1      -7.812   3.820   0.352  0.00  0.00    +0.206 C 
ATOM     27  O   UNL     1      -6.755   3.981  -0.221  0.00  0.00    -0.277 OA
BRANCH  25  29
ATOM     28  C   UNL     1      -8.839   6.007  -1.798  0.00  0.00    +0.024 C 
ATOM     29  C   UNL     1      -8.456   6.072  -0.318  0.00  0.00    +0.104 C 
ENDBRANCH  25  29
BRANCH  25  30
ATOM     30  C   UNL     1     -10.064   4.553   0.924  0.00  0.00    +0.104 C 
ATOM     31  C   UNL     1     -10.066   5.075   2.362  0.00  0.00    +0.024 C 
ENDBRANCH  25  30
ENDBRANCH  18  26
ENDBRANCH   1  18
TORSDOF 8
