REMARK  Name = ZINC09081974
REMARK  14 active torsions:
REMARK  status: ('A' for Active; 'I' for Inactive)
REMARK    1  A    between atoms: C_1  and  C_2
REMARK    2  A    between atoms: C_4  and  O_33
REMARK    3  A    between atoms: C_5  and  S_9
REMARK    4  A    between atoms: C_7  and  C_8
REMARK    5  A    between atoms: S_9  and  N_12
REMARK    6  A    between atoms: N_12  and  C_13
REMARK    7  A    between atoms: C_13  and  C_14
REMARK    8  A    between atoms: C_14  and  C_16
REMARK    9  A    between atoms: C_14  and  S_21
REMARK   10  A    between atoms: S_21  and  C_24
REMARK   11  A    between atoms: C_27  and  C_30
REMARK   12  A    between atoms: C_30  and  C_31
REMARK   13  A    between atoms: C_30  and  C_32
REMARK   14  A    between atoms: O_33  and  C_34
REMARK                            x       y       z     vdW  Elec       q    Type
REMARK                         _______ _______ _______ _____ _____    ______ ____
ROOT
ATOM      1  C   UNL     1      -2.533   1.387   0.021  0.00  0.00    +0.217 C 
ENDROOT
BRANCH   1   2
ATOM      2  C   UNL     1      -1.103   1.863   0.017  0.00  0.00    +0.131 A 
ATOM      3  C   UNL     1      -0.013   1.076   0.008  0.00  0.00    +0.046 A 
ATOM      4  C   UNL     1       1.111   1.934   0.002  0.00  0.00    +0.041 A 
ATOM      5  C   UNL     1       0.640   3.193   0.012  0.00  0.00    +0.195 A 
ATOM      6  O   UNL     1      -0.702   3.144   0.024  0.00  0.00    -0.466 OA
ENDBRANCH   1   2
BRANCH   1   7
ATOM      7  S   UNL     1      -3.384   2.014  -1.454  0.00  0.00    +0.008 S 
ATOM      8  O   UNL     1      -4.676   1.432  -1.559  0.00  0.00    -0.169 OA
ATOM      9  O   UNL     1      -3.213   3.421  -1.555  0.00  0.00    -0.169 OA
BRANCH   7  10
ATOM     10  C   UNL     1      -2.480   1.352  -2.814  0.00  0.00    +0.089 A 
ATOM     11  C   UNL     1      -1.420   2.060  -3.349  0.00  0.00    +0.027 A 
ATOM     12  C   UNL     1      -0.709   1.538  -4.414  0.00  0.00    +0.006 A 
ATOM     13  C   UNL     1      -1.063   0.314  -4.948  0.00  0.00    -0.045 A 
ATOM     14  C   UNL     1      -2.126  -0.391  -4.416  0.00  0.00    +0.006 A 
ATOM     15  C   UNL     1      -2.835   0.128  -3.349  0.00  0.00    +0.027 A 
BRANCH  13  16
ATOM     16  C   UNL     1      -0.289  -0.253  -6.111  0.00  0.00    +0.013 C 
ATOM     17  C   UNL     1      -0.377   0.708  -7.298  0.00  0.00    +0.012 C 
ATOM     18  C   UNL     1       1.176  -0.434  -5.709  0.00  0.00    +0.012 C 
ENDBRANCH  13  16
ENDBRANCH   7  10
ENDBRANCH   1   7
BRANCH   1  19
ATOM     19  C   UNL     1      -3.240   1.904   1.276  0.00  0.00    +0.140 C 
BRANCH  19  20
ATOM     20  N   UNL     1      -4.630   1.441   1.280  0.00  0.00    -0.188 NA
ATOM     21  H   UNL     1      -5.025   1.086   0.468  0.00  0.00    +0.148 HD
BRANCH  20  22
ATOM     22  S   UNL     1      -5.526   1.525   2.669  0.00  0.00    +0.062 S 
ATOM     23  O   UNL     1      -6.820   1.034   2.348  0.00  0.00    -0.153 OA
ATOM     24  O   UNL     1      -4.731   0.957   3.701  0.00  0.00    -0.153 OA
BRANCH  22  29
ATOM     25  C   UNL     1      -6.190   7.372   4.018  0.00  0.00    +0.044 C 
ATOM     26  C   UNL     1      -6.021   5.913   3.682  0.00  0.00    -0.044 A 
ATOM     27  C   UNL     1      -4.765   5.339   3.708  0.00  0.00    +0.051 A 
ATOM     28  C   UNL     1      -4.610   3.996   3.399  0.00  0.00    +0.147 A 
ATOM     29  C   UNL     1      -5.718   3.232   3.063  0.00  0.00    +0.147 A 
ATOM     30  C   UNL     1      -6.972   3.811   3.032  0.00  0.00    +0.036 A 
ATOM     31  C   UNL     1      -7.124   5.149   3.347  0.00  0.00    -0.045 A 
ATOM     32  C   UNL     1      -8.494   5.777   3.320  0.00  0.00    +0.044 C 
BRANCH  28  33
ATOM     33  O   UNL     1      -3.375   3.429   3.425  0.00  0.00    -0.493 OA
ATOM     34  C   UNL     1      -2.280   4.276   3.779  0.00  0.00    +0.277 C 
ENDBRANCH  28  33
ENDBRANCH  22  29
ENDBRANCH  20  22
ENDBRANCH  19  20
ENDBRANCH   1  19
TORSDOF 9
