REMARK  Name = ZINC12748581
REMARK  7 active torsions:
REMARK  status: ('A' for Active; 'I' for Inactive)
REMARK    1  A    between atoms: C_2  and  C_11
REMARK    2  A    between atoms: C_11  and  N_64
REMARK    3  A    between atoms: C_12  and  C_13
REMARK    4  A    between atoms: C_12  and  N_64
REMARK    5  A    between atoms: C_18  and  N_66
REMARK    6  A    between atoms: C_23  and  C_24
REMARK    7  A    between atoms: C_23  and  N_64
REMARK                            x       y       z     vdW  Elec       q    Type
REMARK                         _______ _______ _______ _____ _____    ______ ____
ROOT
ATOM      1  N   UNL     1      -4.898   3.145  -4.401  0.00  0.00    +0.384 N 
ATOM      2  H   UNL     1      -5.637   3.599  -3.852  0.00  0.00    -0.081 HD
ENDROOT
BRANCH   1   3
ATOM      3  C   UNL     1      -5.280   3.166  -5.829  0.00  0.00    -0.041 C 
BRANCH   3   5
ATOM      4  C   UNL     1      -5.189   5.401  -6.951  0.00  0.00    +0.052 A 
ATOM      5  C   UNL     1      -5.879   4.511  -6.149  0.00  0.00    -0.042 A 
ATOM      6  C   UNL     1      -7.116   4.856  -5.634  0.00  0.00    +0.046 A 
ATOM      7  C   UNL     1      -7.669   6.091  -5.925  0.00  0.00    +0.069 A 
ATOM      8  C   UNL     1      -6.985   6.984  -6.732  0.00  0.00    +0.168 A 
ATOM      9  C   UNL     1      -5.739   6.636  -7.250  0.00  0.00    +0.167 A 
ATOM     10  O   UNL     1      -5.276   7.674  -8.007  0.00  0.00    -0.453 OA
ATOM     11  C   UNL     1      -6.061   8.816  -7.614  0.00  0.00    +0.466 C 
ATOM     12  O   UNL     1      -7.301   8.240  -7.164  0.00  0.00    -0.453 OA
ATOM     13 CL   UNL     1      -7.976   3.738  -4.622  0.00  0.00    -0.083 Cl
ENDBRANCH   3   5
ENDBRANCH   1   3
BRANCH   1  14
ATOM     14  C   UNL     1      -3.632   3.883  -4.206  0.00  0.00    -0.075 C 
BRANCH  14  15
ATOM     15  C   UNL     1      -3.946   5.378  -4.120  0.00  0.00    -0.031 C 
ATOM     16  C   UNL     1      -2.641   6.167  -3.981  0.00  0.00    -0.017 C 
ATOM     17  C   UNL     1      -2.964   7.656  -3.836  0.00  0.00    -0.078 C 
ATOM     18  C   UNL     1      -5.088   7.151  -2.784  0.00  0.00    -0.078 C 
ATOM     19  C   UNL     1      -4.829   5.647  -2.898  0.00  0.00    -0.017 C 
ATOM     20  N   UNL     1      -3.795   7.851  -2.629  0.00  0.00    +0.382 N 
ATOM     21  H   UNL     1      -3.301   7.461  -1.818  0.00  0.00    -0.081 HD
BRANCH  20  22
ATOM     22  C   UNL     1      -4.026   9.292  -2.402  0.00  0.00    -0.069 C 
ATOM     23  C   UNL     1      -2.674   9.998  -2.169  0.00  0.00    -0.015 C 
ATOM     24  C   UNL     1      -2.979  11.049  -1.072  0.00  0.00    -0.002 C 
ATOM     25  C   UNL     1      -3.970  10.300  -0.147  0.00  0.00    -0.002 C 
ATOM     26  C   UNL     1      -4.850   9.484  -1.117  0.00  0.00    -0.015 C 
ENDBRANCH  20  22
ENDBRANCH  14  15
ENDBRANCH   1  14
BRANCH   1  27
ATOM     27  C   UNL     1      -4.746   1.749  -3.939  0.00  0.00    -0.046 C 
BRANCH  27  28
ATOM     28  C   UNL     1      -6.136   1.134  -3.769  0.00  0.00    +0.102 C 
ATOM     29  C   UNL     1      -6.008  -0.356  -3.398  0.00  0.00    +0.032 C 
ATOM     30  C   UNL     1      -6.742  -0.473  -2.040  0.00  0.00    +0.030 C 
ATOM     31  C   UNL     1      -7.650   0.783  -2.053  0.00  0.00    +0.160 C 
ATOM     32  O   UNL     1      -6.830   1.785  -2.692  0.00  0.00    -0.378 OA
ENDBRANCH  27  28
ENDBRANCH   1  27
TORSDOF 7
