REMARK  Name = ZINC44452658
REMARK  4 active torsions:
REMARK  status: ('A' for Active; 'I' for Inactive)
REMARK    1  A    between atoms: C_10  and  C_11
REMARK    2  A    between atoms: C_11  and  C_12
REMARK    3  A    between atoms: N_14  and  C_15
REMARK    4  A    between atoms: C_16  and  C_23
REMARK                            x       y       z     vdW  Elec       q    Type
REMARK                         _______ _______ _______ _____ _____    ______ ____
ROOT
ATOM      1  C   UNL     1       6.820   1.547   2.905  0.00  0.00    +0.084 A 
ATOM      2  C   UNL     1       7.926   2.257   3.334  0.00  0.00    +0.069 A 
ATOM      3  C   UNL     1       8.068   2.472   4.773  0.00  0.00    -0.023 A 
ATOM      4  C   UNL     1       7.078   1.935   5.508  0.00  0.00    -0.004 A 
ATOM      5  S   UNL     1       5.996   1.182   4.319  0.00  0.00    -0.077 S 
ATOM      6  C   UNL     1       7.274   2.180   6.979  0.00  0.00    +0.043 C 
ATOM      7  C   UNL     1       8.759   2.585   7.113  0.00  0.00    +0.010 C 
ATOM      8  C   UNL     1       9.056   3.160   5.713  0.00  0.00    +0.037 C 
ENDROOT
BRANCH   2   9
ATOM      9  C   UNL     1       8.916   2.773   2.385  0.00  0.00    +0.254 C 
ATOM     10  O   UNL     1       8.783   3.885   1.910  0.00  0.00    -0.270 OA
ATOM     11  N   UNL     1       9.975   2.015   2.037  0.00  0.00    -0.236 N 
ATOM     12  C   UNL     1      10.886   2.489   1.164  0.00  0.00    +0.304 C 
ATOM     13  O   UNL     1      10.752   3.601   0.690  0.00  0.00    -0.253 OA
ATOM     14  N   UNL     1      11.945   1.732   0.817  0.00  0.00    -0.313 N 
ATOM     15  H   UNL     1      10.082   1.128   2.416  0.00  0.00    +0.159 HD
ATOM     16  H   UNL     1      12.052   0.845   1.195  0.00  0.00    +0.146 HD
ATOM     17  H   UNL     1      12.601   2.073   0.189  0.00  0.00    +0.146 HD
ENDBRANCH   2   9
BRANCH   1  20
ATOM     18  C   UNL     1       5.341   0.519   1.367  0.00  0.00    +0.222 C 
ATOM     19  O   UNL     1       4.633   0.178   2.291  0.00  0.00    -0.275 OA
ATOM     20  N   UNL     1       6.469   1.218   1.605  0.00  0.00    -0.279 N 
ATOM     21  H   UNL     1       7.035   1.490   0.866  0.00  0.00    +0.155 HD
BRANCH  18  22
ATOM     22  C   UNL     1       4.960   0.161  -0.046  0.00  0.00    +0.131 C 
BRANCH  22  32
ATOM     23  C   UNL     1      -0.016   1.357   0.009  0.00  0.00    +0.001 A 
ATOM     24  C   UNL     1       1.169   2.091   0.002  0.00  0.00    +0.001 A 
ATOM     25  C   UNL     1       2.378   1.468  -0.013  0.00  0.00    +0.009 A 
ATOM     26  C   UNL     1       2.438   0.064  -0.021  0.00  0.00    -0.014 A 
ATOM     27  C   UNL     1       1.233  -0.683  -0.013  0.00  0.00    -0.018 A 
ATOM     28  C   UNL     1       0.002  -0.004   0.002  0.00  0.00    +0.008 A 
ATOM     29  C   UNL     1       1.292  -2.087  -0.021  0.00  0.00    +0.008 A 
ATOM     30  C   UNL     1       2.502  -2.709  -0.036  0.00  0.00    +0.001 A 
ATOM     31  C   UNL     1       3.687  -1.976  -0.043  0.00  0.00    +0.005 A 
ATOM     32  C   UNL     1       3.668  -0.615  -0.037  0.00  0.00    -0.031 A 
ENDBRANCH  22  32
ENDBRANCH  18  22
ENDBRANCH   1  20
TORSDOF 4
