REMARK  Name = ZINC42375604
REMARK  3 active torsions:
REMARK  status: ('A' for Active; 'I' for Inactive)
REMARK    1  A    between atoms: C_3  and  C_7
REMARK    2  A    between atoms: N_12  and  S_13
REMARK    3  A    between atoms: S_13  and  C_16
REMARK                            x       y       z     vdW  Elec       q    Type
REMARK                         _______ _______ _______ _____ _____    ______ ____
ROOT
ATOM      1  C   UNL     1       3.614   0.681  -0.029  0.00  0.00    +0.126 C 
ATOM      2  C   UNL     1       4.153   0.627   1.416  0.00  0.00    +0.028 C 
ATOM      3  C   UNL     1       5.380  -0.315   1.294  0.00  0.00    +0.019 C 
ATOM      4  C   UNL     1       4.892  -1.326   0.228  0.00  0.00    +0.110 C 
ATOM      5  N   UNL     1       4.102  -0.519  -0.725  0.00  0.00    -0.167 NA
ENDROOT
BRANCH   1   8
ATOM      6  C   UNL     1      -0.016   1.344   0.009  0.00  0.00    +0.019 A 
ATOM      7  C   UNL     1       1.322   1.784  -0.001  0.00  0.00    +0.024 A 
ATOM      8  C   UNL     1       2.107   0.688  -0.014  0.00  0.00    +0.035 A 
ATOM      9  N   UNL     1       1.303  -0.413  -0.013  0.00  0.00    -0.363 N 
ATOM     10  H   UNL     1       1.606  -1.334  -0.021  0.00  0.00    +0.165 HD
ATOM     11  C   UNL     1       0.002  -0.004   0.002  0.00  0.00    +0.083 A 
ENDBRANCH   1   8
BRANCH   5  12
ATOM     12  S   UNL     1       3.811  -0.901  -2.310  0.00  0.00    +0.068 S 
ATOM     13  O   UNL     1       3.949  -2.311  -2.420  0.00  0.00    -0.152 OA
ATOM     14  O   UNL     1       2.619  -0.221  -2.679  0.00  0.00    -0.152 OA
BRANCH  12  15
ATOM     15  C   UNL     1       5.111  -0.192  -3.264  0.00  0.00    +0.144 A 
ATOM     16  C   UNL     1       6.301  -0.734  -3.621  0.00  0.00    +0.037 A 
ATOM     17  C   UNL     1       7.178   0.017  -4.382  0.00  0.00    +0.025 A 
ATOM     18  C   UNL     1       6.822   1.273  -4.749  0.00  0.00    +0.057 A 
ATOM     19  S   UNL     1       5.200   1.424  -4.017  0.00  0.00    -0.062 S 
ATOM     20 BR   UNL     1       7.788   2.533  -5.774  0.00  0.00    -0.043 Br
ENDBRANCH  12  15
ENDBRANCH   5  12
TORSDOF 3
