REMARK  Name = ZINC23749752
REMARK  6 active torsions:
REMARK  status: ('A' for Active; 'I' for Inactive)
REMARK    1  A    between atoms: C_1  and  C_2
REMARK    2  A    between atoms: C_6  and  C_7
REMARK    3  A    between atoms: C_7  and  C_9
REMARK    4  A    between atoms: C_7  and  N_19
REMARK    5  A    between atoms: C_15  and  C_17
REMARK    6  A    between atoms: C_22  and  C_25
REMARK                            x       y       z     vdW  Elec       q    Type
REMARK                         _______ _______ _______ _____ _____    ______ ____
ROOT
ATOM      1  C   UNL     1       5.247   2.833  -0.034  0.00  0.00    +0.136 C 
ENDROOT
BRANCH   1   2
ATOM      2  C   UNL     1       3.797   2.436   0.081  0.00  0.00    +0.081 A 
ATOM      3  C   UNL     1       3.266   1.222   0.267  0.00  0.00    +0.285 A 
ATOM      4  N   UNL     1       1.904   1.058   0.347  0.00  0.00    -0.169 N 
ATOM      5  C   UNL     1       1.134   2.175   0.228  0.00  0.00    +0.199 A 
ATOM      6  S   UNL     1       2.337   3.462   0.004  0.00  0.00    -0.047 S 
ATOM      7  N   UNL     1      -0.126   1.850   0.325  0.00  0.00    -0.205 NA
ATOM      8  C   UNL     1      -0.229   0.535   0.507  0.00  0.00    +0.150 A 
ATOM      9  N   UNL     1       0.966   0.009   0.527  0.00  0.00    -0.147 NA
ATOM     10  C   UNL     1      -1.520  -0.226   0.663  0.00  0.00    +0.090 C 
ATOM     11  O   UNL     1       4.082   0.139   0.379  0.00  0.00    -0.265 OA
ENDBRANCH   1   2
BRANCH   1  17
ATOM     12  C   UNL     1       6.855   1.129  -2.021  0.00  0.00    +0.044 C 
ATOM     13  C   UNL     1       6.262   2.466  -2.383  0.00  0.00    -0.038 A 
ATOM     14  C   UNL     1       6.423   2.983  -3.655  0.00  0.00    +0.011 A 
ATOM     15  C   UNL     1       5.883   4.192  -3.945  0.00  0.00    +0.046 A 
ATOM     16  S   UNL     1       5.112   4.634  -2.397  0.00  0.00    -0.099 S 
ATOM     17  C   UNL     1       5.561   3.178  -1.467  0.00  0.00    +0.015 A 
ENDBRANCH   1  17
BRANCH   1  18
ATOM     18  N   UNL     1       5.504   4.001   0.818  0.00  0.00    -0.291 NA
ATOM     19  C   UNL     1       5.077   3.748   2.200  0.00  0.00    +0.086 C 
ATOM     20  C   UNL     1       5.224   5.029   3.024  0.00  0.00    +0.028 C 
ATOM     21  C   UNL     1       6.686   5.483   2.996  0.00  0.00    +0.077 C 
ATOM     22  C   UNL     1       7.120   5.693   1.543  0.00  0.00    +0.028 C 
ATOM     23  C   UNL     1       6.918   4.393   0.762  0.00  0.00    +0.086 C 
BRANCH  21  24
ATOM     24  C   UNL     1       6.828   6.777   3.756  0.00  0.00    +0.214 C 
ATOM     25  O   UNL     1       7.235   7.770   3.192  0.00  0.00    -0.276 OA
ATOM     26  N   UNL     1       6.502   6.830   5.063  0.00  0.00    -0.329 N 
ATOM     27  H   UNL     1       6.605   7.774   5.617  0.00  0.00    +0.145 HD
ATOM     28  H   UNL     1       6.133   5.929   5.575  0.00  0.00    +0.145 HD
ENDBRANCH  21  24
ENDBRANCH   1  18
TORSDOF 4
