REMARK  Name = ZINC04116102
REMARK  11 active torsions:
REMARK  status: ('A' for Active; 'I' for Inactive)
REMARK    1  A    between atoms: C_5  and  C_7
REMARK    2  A    between atoms: C_7  and  C_8
REMARK    3  A    between atoms: C_8  and  C_10
REMARK    4  A    between atoms: C_13  and  O_17
REMARK    5  A    between atoms: C_15  and  O_16
REMARK    6  A    between atoms: O_17  and  C_18
REMARK    7  A    between atoms: C_20  and  O_33
REMARK    8  A    between atoms: C_22  and  O_32
REMARK    9  A    between atoms: C_24  and  O_31
REMARK   10  A    between atoms: C_26  and  C_29
REMARK   11  A    between atoms: C_29  and  O_30
REMARK                            x       y       z     vdW  Elec       q    Type
REMARK                         _______ _______ _______ _____ _____    ______ ____
ROOT
ATOM      1  C   UNL     1      -1.306   7.190  -1.329  0.00  0.00    +0.059 A 
ATOM      2  C   UNL     1      -0.746   8.132  -0.455  0.00  0.00    +0.018 A 
ATOM      3  C   UNL     1      -0.963   9.464  -0.655  0.00  0.00    +0.046 A 
ATOM      4  C   UNL     1      -1.750   9.898  -1.719  0.00  0.00    +0.128 A 
ATOM      5  C   UNL     1      -2.317   8.980  -2.591  0.00  0.00    +0.091 A 
ATOM      6  C   UNL     1      -2.102   7.626  -2.404  0.00  0.00    +0.131 A 
ENDROOT
BRANCH   1   7
ATOM      7  C   UNL     1      -1.069   5.760  -1.120  0.00  0.00    +0.172 C 
ATOM      8  O   UNL     1      -1.560   4.947  -1.876  0.00  0.00    -0.292 OA
BRANCH   7   9
ATOM      9  C   UNL     1      -0.217   5.298   0.033  0.00  0.00    +0.135 C 
BRANCH   9  14
ATOM     10  C   UNL     1       1.174   1.794   0.001  0.00  0.00    +0.003 A 
ATOM     11  C   UNL     1      -0.013   1.076   0.008  0.00  0.00    +0.020 A 
ATOM     12  C   UNL     1      -1.214   1.759   0.017  0.00  0.00    +0.111 A 
ATOM     13  N   UNL     1      -1.239   3.078   0.030  0.00  0.00    -0.259 NA
ATOM     14  C   UNL     1      -0.132   3.793   0.024  0.00  0.00    +0.049 A 
ATOM     15  C   UNL     1       1.107   3.179   0.009  0.00  0.00    +0.024 A 
ENDBRANCH   9  14
ENDBRANCH   7   9
ENDBRANCH   1   7
BRANCH   6  16
ATOM     16  O   UNL     1      -2.654   6.724  -3.253  0.00  0.00    -0.506 OA
ATOM     17  H   UNL     1      -3.532   6.419  -2.986  0.00  0.00    +0.292 HD
ENDBRANCH   6  16
BRANCH   4  18
ATOM     18  O   UNL     1      -1.963  11.225  -1.903  0.00  0.00    -0.461 OA
BRANCH  18  19
ATOM     19  C   UNL     1      -1.350  12.117  -0.969  0.00  0.00    +0.339 C 
ATOM     20  C   UNL     1      -1.895  13.531  -1.180  0.00  0.00    +0.214 C 
ATOM     21  C   UNL     1      -1.189  14.491  -0.218  0.00  0.00    +0.180 C 
ATOM     22  C   UNL     1       0.323  14.410  -0.450  0.00  0.00    +0.177 C 
ATOM     23  C   UNL     1       0.782  12.961  -0.267  0.00  0.00    +0.179 C 
ATOM     24  O   UNL     1       0.065  12.118  -1.171  0.00  0.00    -0.331 OA
BRANCH  22  25
ATOM     25  O   UNL     1       0.626  14.843  -1.778  0.00  0.00    -0.386 OA
ATOM     26  H   UNL     1       0.361  15.754  -1.964  0.00  0.00    +0.210 HD
ENDBRANCH  22  25
BRANCH  21  27
ATOM     27  O   UNL     1      -1.639  15.826  -0.456  0.00  0.00    -0.386 OA
ATOM     28  H   UNL     1      -2.589  15.950  -0.327  0.00  0.00    +0.210 HD
ENDBRANCH  21  27
BRANCH  20  29
ATOM     29  O   UNL     1      -3.301  13.544  -0.923  0.00  0.00    -0.383 OA
ATOM     30  H   UNL     1      -3.811  12.954  -1.495  0.00  0.00    +0.210 HD
ENDBRANCH  20  29
BRANCH  23  31
ATOM     31  C   UNL     1       2.281  12.861  -0.556  0.00  0.00    +0.190 C 
BRANCH  31  32
ATOM     32  O   UNL     1       2.733  11.535  -0.274  0.00  0.00    -0.392 OA
ATOM     33  H   UNL     1       3.677  11.398  -0.435  0.00  0.00    +0.210 HD
ENDBRANCH  31  32
ENDBRANCH  23  31
ENDBRANCH  18  19
ENDBRANCH   4  18
TORSDOF 11
