REMARK  Name = ZINC51089882
REMARK  4 active torsions:
REMARK  status: ('A' for Active; 'I' for Inactive)
REMARK    1  A    between atoms: C_2  and  C_10
REMARK    2  A    between atoms: C_6  and  N_7
REMARK    3  A    between atoms: N_7  and  N_8
REMARK    4  A    between atoms: N_12  and  C_13
REMARK                            x       y       z     vdW  Elec       q    Type
REMARK                         _______ _______ _______ _____ _____    ______ ____
ROOT
ATOM      1  C   UNL     1       1.224   3.560   0.015  0.00  0.00    +0.248 C 
ATOM      2  O   UNL     1       0.184   4.189   0.024  0.00  0.00    -0.270 OA
ATOM      3  N   UNL     1       2.405   4.210   0.001  0.00  0.00    -0.280 N 
ATOM      4  H   UNL     1       3.234   3.711   0.060  0.00  0.00    +0.155 HD
ENDROOT
BRANCH   3   5
ATOM      5  C   UNL     1       2.434   5.606  -0.098  0.00  0.00    +0.054 A 
ATOM      6  C   UNL     1       1.442   6.367   0.507  0.00  0.00    +0.046 A 
ATOM      7  C   UNL     1       1.473   7.745   0.408  0.00  0.00    +0.061 A 
ATOM      8  C   UNL     1       2.492   8.367  -0.294  0.00  0.00    +0.061 A 
ATOM      9  C   UNL     1       3.481   7.611  -0.898  0.00  0.00    +0.043 A 
ATOM     10  C   UNL     1       3.458   6.233  -0.796  0.00  0.00    +0.064 A 
ATOM     11 CL   UNL     1       4.705   5.286  -1.547  0.00  0.00    -0.082 Cl
ATOM     12 CL   UNL     1       2.528  10.098  -0.418  0.00  0.00    -0.082 Cl
ATOM     13 CL   UNL     1       0.233   8.697   1.163  0.00  0.00    -0.082 Cl
ENDBRANCH   3   5
BRANCH   1  15
ATOM     14  C   UNL     1      -0.018   1.387   0.034  0.00  0.00    +0.057 A 
ATOM     15  C   UNL     1       1.195   2.079   0.019  0.00  0.00    +0.043 A 
ATOM     16  C   UNL     1       2.381   1.337   0.008  0.00  0.00    +0.053 A 
ATOM     17  C   UNL     1       2.312  -0.043   0.012  0.00  0.00    +0.132 A 
ATOM     18  N   UNL     1       1.147  -0.665   0.025  0.00  0.00    -0.220 NA
ATOM     19  C   UNL     1       0.001  -0.003   0.036  0.00  0.00    +0.134 A 
ATOM     20 CL   UNL     1       3.777  -0.973  -0.002  0.00  0.00    -0.062 Cl
BRANCH  19  21
ATOM     21  N   UNL     1      -1.198  -0.707   0.051  0.00  0.00    -0.267 N 
ATOM     22  H   UNL     1      -2.042  -0.227   0.059  0.00  0.00    +0.167 HD
BRANCH  21  23
ATOM     23  N   UNL     1      -1.189  -2.072   0.054  0.00  0.00    -0.255 NA
ATOM     24  H   UNL     1      -2.128  -2.441   0.065  0.00  0.00    +0.140 HD
ATOM     25  H   UNL     1      -0.669  -2.432  -0.732  0.00  0.00    +0.140 HD
ENDBRANCH  21  23
ENDBRANCH  19  21
ENDBRANCH   1  15
TORSDOF 4
