REMARK  Name = ZINC35065907
REMARK  11 active torsions:
REMARK  status: ('A' for Active; 'I' for Inactive)
REMARK    1  A    between atoms: C_1  and  C_2
REMARK    2  A    between atoms: C_6  and  N_8
REMARK    3  A    between atoms: C_18  and  C_19
REMARK    4  A    between atoms: C_19  and  C_21
REMARK    5  A    between atoms: C_19  and  N_22
REMARK    6  A    between atoms: N_22  and  C_23
REMARK    7  A    between atoms: C_23  and  C_24
REMARK    8  A    between atoms: C_24  and  N_25
REMARK    9  A    between atoms: N_25  and  C_26
REMARK   10  A    between atoms: N_25  and  C_27
REMARK   11  A    between atoms: N_30  and  C_31
REMARK                            x       y       z     vdW  Elec       q    Type
REMARK                         _______ _______ _______ _____ _____    ______ ____
ROOT
ATOM      1  N   UNL     1      -0.055  -6.435   1.382  0.00  0.00    -0.278 N 
ATOM      2  C   UNL     1      -1.167  -7.113   1.032  0.00  0.00    +0.303 C 
ATOM      3  O   UNL     1      -2.100  -6.526   0.519  0.00  0.00    -0.253 OA
ATOM      4  N   UNL     1      -1.243  -8.441   1.250  0.00  0.00    -0.294 N 
ATOM      5  H   UNL     1      -0.499  -8.909   1.659  0.00  0.00    +0.151 HD
ENDROOT
BRANCH   4   6
ATOM      6  C   UNL     1      -2.451  -9.177   0.869  0.00  0.00    +0.037 C 
ATOM      7  C   UNL     1      -3.654  -8.608   1.624  0.00  0.00    +0.029 C 
ATOM      8  C   UNL     1      -4.916  -9.377   1.226  0.00  0.00    -0.008 C 
ATOM      9  C   UNL     1      -4.744 -10.856   1.580  0.00  0.00    +0.007 C 
ATOM     10  C   UNL     1      -3.541 -11.425   0.826  0.00  0.00    -0.008 C 
ATOM     11  C   UNL     1      -2.280 -10.656   1.223  0.00  0.00    +0.029 C 
ATOM     12  C   UNL     1      -3.771 -11.284  -0.681  0.00  0.00    +0.007 C 
ATOM     13  C   UNL     1      -3.942  -9.806  -1.034  0.00  0.00    -0.008 C 
ATOM     14  C   UNL     1      -5.146  -9.237  -0.280  0.00  0.00    +0.007 C 
ATOM     15  C   UNL     1      -2.681  -9.036  -0.637  0.00  0.00    +0.029 C 
ENDBRANCH   4   6
BRANCH   1  16
ATOM     16  C   UNL     1       0.028  -4.992   1.144  0.00  0.00    +0.141 C 
ATOM     17  C   UNL     1       1.122  -4.707   0.113  0.00  0.00    +0.036 C 
BRANCH  16  28
ATOM     18  N   UNL     1      -0.574  -3.460   2.977  0.00  0.00    -0.263 N 
ATOM     19  C   UNL     1      -0.326  -2.810   4.138  0.00  0.00    +0.266 A 
ATOM     20  O   UNL     1      -1.154  -2.069   4.636  0.00  0.00    -0.267 OA
ATOM     21  C   UNL     1       0.980  -3.033   4.773  0.00  0.00    +0.065 A 
ATOM     22  C   UNL     1       1.334  -2.412   5.970  0.00  0.00    +0.015 A 
ATOM     23  C   UNL     1       2.571  -2.656   6.522  0.00  0.00    +0.001 A 
ATOM     24  C   UNL     1       3.466  -3.515   5.897  0.00  0.00    +0.002 A 
ATOM     25  C   UNL     1       3.137  -4.139   4.715  0.00  0.00    +0.028 A 
ATOM     26  C   UNL     1       1.888  -3.907   4.135  0.00  0.00    +0.078 A 
ATOM     27  N   UNL     1       1.523  -4.501   2.971  0.00  0.00    -0.231 NA
ATOM     28  C   UNL     1       0.359  -4.289   2.435  0.00  0.00    +0.138 A 
BRANCH  18  34
ATOM     29  C   UNL     1      -5.298  -4.719   2.446  0.00  0.00    +0.044 C 
ATOM     30  C   UNL     1      -4.109  -3.880   2.053  0.00  0.00    -0.048 A 
ATOM     31  C   UNL     1      -4.233  -2.933   1.053  0.00  0.00    +0.003 A 
ATOM     32  C   UNL     1      -3.145  -2.161   0.690  0.00  0.00    +0.002 A 
ATOM     33  C   UNL     1      -1.931  -2.333   1.326  0.00  0.00    +0.026 A 
ATOM     34  C   UNL     1      -1.804  -3.283   2.331  0.00  0.00    +0.051 A 
ATOM     35  C   UNL     1      -2.900  -4.053   2.697  0.00  0.00    +0.029 A 
ENDBRANCH  18  34
ENDBRANCH  16  28
ENDBRANCH   1  16
BRANCH   1  36
ATOM     36  C   UNL     1       1.069  -7.142   2.000  0.00  0.00    +0.091 C 
BRANCH  36  37
ATOM     37  C   UNL     1       0.838  -7.248   3.508  0.00  0.00    -0.060 C 
BRANCH  37  38
ATOM     38  N   UNL     1       2.029  -7.825   4.147  0.00  0.00    +0.377 N 
ATOM     39  C   UNL     1       1.854  -7.816   5.606  0.00  0.00    -0.097 C 
ATOM     40  C   UNL     1       2.212  -9.207   3.684  0.00  0.00    -0.097 C 
ATOM     41  H   UNL     1       2.840  -7.277   3.902  0.00  0.00    -0.083 HD
ENDBRANCH  37  38
ENDBRANCH  36  37
ENDBRANCH   1  36
TORSDOF 7
