REMARK  Name = ZINC20212424
REMARK  11 active torsions:
REMARK  status: ('A' for Active; 'I' for Inactive)
REMARK    1  A    between atoms: C_1  and  C_2
REMARK    2  A    between atoms: C_7  and  N_8
REMARK    3  A    between atoms: N_8  and  C_9
REMARK    4  A    between atoms: N_8  and  S_31
REMARK    5  A    between atoms: C_9  and  C_10
REMARK    6  A    between atoms: N_12  and  N_13
REMARK    7  A    between atoms: C_14  and  C_15
REMARK    8  A    between atoms: C_18  and  O_21
REMARK    9  A    between atoms: O_21  and  C_22
REMARK   10  A    between atoms: C_22  and  C_23
REMARK   11  A    between atoms: S_31  and  C_34
REMARK                            x       y       z     vdW  Elec       q    Type
REMARK                         _______ _______ _______ _____ _____    ______ ____
ROOT
ATOM      1  C   UNL     1       1.395   2.020   3.334  0.00  0.00    +0.251 C 
ATOM      2  O   UNL     1       0.744   2.656   2.532  0.00  0.00    -0.272 OA
ATOM      3  N   UNL     1       2.411   2.608   3.995  0.00  0.00    -0.206 N 
ATOM      4  H   UNL     1       2.932   2.099   4.636  0.00  0.00    +0.177 HD
ENDROOT
BRANCH   3   5
ATOM      5  N   UNL     1       2.716   3.954   3.756  0.00  0.00    -0.188 NA
ATOM      6  C   UNL     1       3.695   4.521   4.393  0.00  0.00    +0.138 C 
BRANCH   6   7
ATOM      7  C   UNL     1       4.016   5.938   4.142  0.00  0.00    -0.005 A 
ATOM      8  C   UNL     1       3.264   6.674   3.223  0.00  0.00    +0.013 A 
ATOM      9  C   UNL     1       3.567   7.998   2.992  0.00  0.00    +0.046 A 
ATOM     10  C   UNL     1       4.619   8.601   3.671  0.00  0.00    +0.121 A 
ATOM     11  C   UNL     1       5.370   7.872   4.584  0.00  0.00    +0.046 A 
ATOM     12  C   UNL     1       5.070   6.549   4.826  0.00  0.00    +0.013 A 
BRANCH  10  13
ATOM     13  O   UNL     1       4.914   9.907   3.439  0.00  0.00    -0.483 OA
BRANCH  13  14
ATOM     14  C   UNL     1       6.008  10.464   4.171  0.00  0.00    +0.324 C 
BRANCH  14  15
ATOM     15  C   UNL     1       6.185  11.910   3.787  0.00  0.00    +0.253 C 
ATOM     16  O   UNL     1       5.447  12.414   2.966  0.00  0.00    -0.272 OA
ATOM     17  N   UNL     1       7.163  12.643   4.354  0.00  0.00    -0.299 N 
ATOM     18  C   UNL     1       8.069  12.045   5.344  0.00  0.00    +0.108 C 
ATOM     19  C   UNL     1       9.515  12.284   4.898  0.00  0.00    +0.019 C 
ATOM     20  C   UNL     1       9.733  13.781   4.670  0.00  0.00    +0.003 C 
ATOM     21  C   UNL     1       8.799  14.272   3.562  0.00  0.00    +0.019 C 
ATOM     22  C   UNL     1       7.349  14.054   3.989  0.00  0.00    +0.108 C 
ENDBRANCH  14  15
ENDBRANCH  13  14
ENDBRANCH  10  13
ENDBRANCH   6   7
ENDBRANCH   3   5
BRANCH   1  23
ATOM     23  C   UNL     1       1.067   0.572   3.591  0.00  0.00    +0.228 C 
BRANCH  23  24
ATOM     24  N   UNL     1       0.018   0.137   2.665  0.00  0.00    -0.198 N 
BRANCH  24  31
ATOM     25  C   UNL     1       0.359  -2.661   2.282  0.00  0.00    +0.046 C 
ATOM     26  C   UNL     1       0.535  -1.675   1.156  0.00  0.00    -0.026 A 
ATOM     27  C   UNL     1       0.865  -2.121  -0.109  0.00  0.00    +0.025 A 
ATOM     28  C   UNL     1       1.026  -1.216  -1.143  0.00  0.00    +0.041 A 
ATOM     29  C   UNL     1       0.856   0.138  -0.914  0.00  0.00    +0.022 A 
ATOM     30  C   UNL     1       0.526   0.590   0.349  0.00  0.00    +0.026 A 
ATOM     31  C   UNL     1       0.358  -0.317   1.388  0.00  0.00    +0.054 A 
ATOM     32 CL   UNL     1       1.441  -1.781  -2.731  0.00  0.00    -0.084 Cl
ENDBRANCH  24  31
BRANCH  24  33
ATOM     33  S   UNL     1      -1.570   0.183   3.131  0.00  0.00    +0.043 S 
ATOM     34  O   UNL     1      -1.660   1.302   4.002  0.00  0.00    -0.155 OA
ATOM     35  O   UNL     1      -2.306   0.150   1.916  0.00  0.00    -0.155 OA
ATOM     36  C   UNL     1      -1.828  -1.353   4.060  0.00  0.00    +0.218 C 
ENDBRANCH  24  33
ENDBRANCH  23  24
ENDBRANCH   1  23
TORSDOF 9
