REMARK  Name = ZINC39512544
REMARK  3 active torsions:
REMARK  status: ('A' for Active; 'I' for Inactive)
REMARK    1  A    between atoms: C_1  and  S_2
REMARK    2  A    between atoms: S_2  and  C_3
REMARK    3  A    between atoms: N_8  and  O_16
REMARK                            x       y       z     vdW  Elec       q    Type
REMARK                         _______ _______ _______ _____ _____    ______ ____
ROOT
ATOM      1  C   UNL     1      -1.752  -0.467   0.016  0.00  0.00    +0.069 C 
ATOM      2  C   UNL     1      -2.389  -0.015   1.335  0.00  0.00    +0.017 C 
ATOM      3  C   UNL     1      -3.847  -0.483   1.372  0.00  0.00    +0.019 C 
ATOM      4  C   UNL     1      -3.896  -2.006   1.226  0.00  0.00    +0.115 C 
ATOM      5  N   UNL     1      -3.280  -2.395  -0.051  0.00  0.00    -0.184 NA
ATOM      6  C   UNL     1      -1.880  -1.980  -0.114  0.00  0.00    +0.060 C 
ATOM      7  C   UNL     1      -1.245  -2.452  -1.440  0.00  0.00    +0.027 C 
ATOM      8  C   UNL     1      -0.892  -3.931  -1.143  0.00  0.00    +0.021 C 
ATOM      9  C   UNL     1      -0.427  -3.922   0.329  0.00  0.00    +0.082 C 
ATOM     10  C   UNL     1      -1.062  -2.682   0.983  0.00  0.00    +0.045 C 
ATOM     11 CL   UNL     1      -0.989  -5.418   1.163  0.00  0.00    -0.122 Cl
ENDROOT
BRANCH   1  13
ATOM     12  C   UNL     1      -0.022   1.810   0.012  0.00  0.00    +0.084 C 
ATOM     13  S   UNL     1       0.002  -0.004   0.002  0.00  0.00    -0.159 S 
ENDBRANCH   1  13
BRANCH   5  14
ATOM     14  O   UNL     1      -3.411  -3.835  -0.278  0.00  0.00    -0.312 OA
ATOM     15  H   UNL     1      -4.323  -4.156  -0.252  0.00  0.00    +0.237 HD
ENDBRANCH   5  14
TORSDOF 2
