REMARK  Name = ZINC27909284
REMARK  12 active torsions:
REMARK  status: ('A' for Active; 'I' for Inactive)
REMARK    1  A    between atoms: C_1  and  C_2
REMARK    2  A    between atoms: C_5  and  N_9
REMARK    3  A    between atoms: C_6  and  C_8
REMARK    4  A    between atoms: C_10  and  C_12
REMARK    5  A    between atoms: C_12  and  C_14
REMARK    6  A    between atoms: C_12  and  O_15
REMARK    7  A    between atoms: O_15  and  C_16
REMARK    8  A    between atoms: C_16  and  C_18
REMARK    9  A    between atoms: C_20  and  N_28
REMARK   10  A    between atoms: C_22  and  N_24
REMARK   11  A    between atoms: C_25  and  C_27
REMARK   12  A    between atoms: C_29  and  C_31
REMARK                            x       y       z     vdW  Elec       q    Type
REMARK                         _______ _______ _______ _____ _____    ______ ____
ROOT
ATOM      1  C   UNL     1      -4.460  -3.225   0.104  0.00  0.00    +0.340 C 
ATOM      2  O   UNL     1      -5.482  -2.740   0.547  0.00  0.00    -0.245 OA
ENDROOT
BRANCH   1   3
ATOM      3  C   UNL     1      -4.244  -4.685   0.175  0.00  0.00    +0.063 A 
ATOM      4  C   UNL     1      -3.073  -5.244  -0.339  0.00  0.00    +0.038 A 
ATOM      5  C   UNL     1      -2.872  -6.614  -0.267  0.00  0.00    +0.036 A 
ATOM      6  C   UNL     1      -3.837  -7.430   0.308  0.00  0.00    +0.046 A 
ATOM      7  C   UNL     1      -5.006  -6.878   0.816  0.00  0.00    +0.036 A 
ATOM      8  C   UNL     1      -5.212  -5.508   0.751  0.00  0.00    +0.038 A 
BRANCH   7   9
ATOM      9  N   UNL     1      -5.976  -7.704   1.394  0.00  0.00    -0.286 N 
ATOM     10  C   UNL     1      -7.283  -7.408   1.254  0.00  0.00    +0.214 C 
ATOM     11  O   UNL     1      -7.623  -6.482   0.549  0.00  0.00    -0.276 OA
ATOM     12  C   UNL     1      -8.322  -8.228   1.975  0.00  0.00    +0.109 C 
ATOM     13  H   UNL     1      -5.671  -8.596   1.962  0.00  0.00    +0.155 HD
ENDBRANCH   7   9
BRANCH   5  14
ATOM     14  N   UNL     1      -1.696  -7.176  -0.778  0.00  0.00    -0.286 N 
ATOM     15  C   UNL     1      -0.572  -6.436  -0.851  0.00  0.00    +0.214 C 
ATOM     16  O   UNL     1      -0.550  -5.318  -0.380  0.00  0.00    -0.276 OA
ATOM     17  C   UNL     1       0.657  -6.997  -1.518  0.00  0.00    +0.109 C 
ATOM     18  H   UNL     1      -1.690  -8.221  -1.120  0.00  0.00    +0.155 HD
ENDBRANCH   5  14
ENDBRANCH   1   3
BRANCH   1  19
ATOM     19  O   UNL     1      -3.525  -2.432  -0.453  0.00  0.00    -0.449 OA
BRANCH  19  20
ATOM     20  C   UNL     1      -3.804  -1.007  -0.489  0.00  0.00    +0.259 C 
ATOM     21  C   UNL     1      -4.535  -0.663  -1.788  0.00  0.00    +0.062 C 
BRANCH  20  23
ATOM     22  N   UNL     1      -2.527   1.106  -0.340  0.00  0.00    -0.282 N 
ATOM     23  C   UNL     1      -2.509  -0.239  -0.422  0.00  0.00    +0.258 C 
ATOM     24  O   UNL     1      -1.451  -0.832  -0.444  0.00  0.00    -0.271 OA
ATOM     25  H   UNL     1      -3.484   1.637  -0.226  0.00  0.00    +0.155 HD
BRANCH  22  30
ATOM     26  C   UNL     1       2.326   4.033  -0.589  0.00  0.00    +0.044 C 
ATOM     27  C   UNL     1       1.038   3.254  -0.520  0.00  0.00    -0.050 A 
ATOM     28  C   UNL     1       0.959   1.998  -1.093  0.00  0.00    +0.005 A 
ATOM     29  C   UNL     1      -0.220   1.282  -1.032  0.00  0.00    +0.024 A 
ATOM     30  C   UNL     1      -1.329   1.826  -0.398  0.00  0.00    +0.036 A 
ATOM     31  C   UNL     1      -1.246   3.086   0.181  0.00  0.00    -0.029 A 
ATOM     32  C   UNL     1      -0.063   3.797   0.116  0.00  0.00    +0.008 A 
ATOM     33  C   UNL     1      -2.445   3.678   0.874  0.00  0.00    +0.045 C 
ENDBRANCH  22  30
ENDBRANCH  20  23
ENDBRANCH  19  20
ENDBRANCH   1  19
TORSDOF 7
