REMARK  Name = ZINC38613859
REMARK  7 active torsions:
REMARK  status: ('A' for Active; 'I' for Inactive)
REMARK    1  A    between atoms: C_1  and  C_2
REMARK    2  A    between atoms: C_5  and  C_7
REMARK    3  A    between atoms: C_10  and  C_12
REMARK    4  A    between atoms: N_14  and  N_15
REMARK    5  A    between atoms: C_16  and  C_17
REMARK    6  A    between atoms: C_16  and  C_18
REMARK    7  A    between atoms: C_23  and  O_24
REMARK                            x       y       z     vdW  Elec       q    Type
REMARK                         _______ _______ _______ _____ _____    ______ ____
ROOT
ATOM      1  C   UNL     1       3.568  -6.752  -0.299  0.00  0.00    +0.280 C 
ATOM      2  O   UNL     1       4.717  -6.347  -0.309  0.00  0.00    -0.267 OA
ATOM      3  N   UNL     1       3.321  -8.074  -0.217  0.00  0.00    -0.202 N 
ATOM      4  H   UNL     1       2.406  -8.396  -0.209  0.00  0.00    +0.178 HD
ENDROOT
BRANCH   1   8
ATOM      5  C   UNL     1       1.073  -3.904  -0.518  0.00  0.00    +0.083 C 
ATOM      6  N   UNL     1       0.422  -5.050  -0.452  0.00  0.00    -0.152 NA
ATOM      7  N   UNL     1       1.177  -6.075  -0.375  0.00  0.00    -0.148 NA
ATOM      8  C   UNL     1       2.459  -5.803  -0.376  0.00  0.00    +0.132 C 
ATOM      9  C   UNL     1       2.543  -4.290  -0.479  0.00  0.00    +0.121 C 
BRANCH   5  14
ATOM     10  C   UNL     1       0.010   1.476  -0.885  0.00  0.00    +0.051 C 
ATOM     11  C   UNL     1       0.027  -0.028  -0.785  0.00  0.00    -0.013 A 
ATOM     12  C   UNL     1      -1.036  -0.872  -0.738  0.00  0.00    +0.011 A 
ATOM     13  C   UNL     1      -0.814  -2.222  -0.646  0.00  0.00    +0.017 A 
ATOM     14  C   UNL     1       0.526  -2.611  -0.609  0.00  0.00    +0.036 A 
ATOM     15  S   UNL     1       1.365  -1.041  -0.714  0.00  0.00    -0.092 S 
ENDBRANCH   5  14
ENDBRANCH   1   8
BRANCH   3  16
ATOM     16  N   UNL     1       4.384  -8.983  -0.144  0.00  0.00    -0.184 NA
ATOM     17  C   UNL     1       4.146 -10.247   0.031  0.00  0.00    +0.067 C 
ATOM     18  C   UNL     1       5.290 -11.207   0.237  0.00  0.00    +0.068 C 
BRANCH  17  19
ATOM     19  C   UNL     1       2.759 -10.744   0.026  0.00  0.00    +0.039 A 
ATOM     20  C   UNL     1       1.993 -10.678  -1.140  0.00  0.00    +0.013 A 
ATOM     21  C   UNL     1       0.696 -11.144  -1.137  0.00  0.00    +0.001 A 
ATOM     22  C   UNL     1       0.148 -11.678   0.017  0.00  0.00    +0.004 A 
ATOM     23  C   UNL     1       0.895 -11.749   1.177  0.00  0.00    +0.046 A 
ATOM     24  C   UNL     1       2.202 -11.290   1.191  0.00  0.00    +0.126 A 
BRANCH  24  25
ATOM     25  O   UNL     1       2.939 -11.364   2.329  0.00  0.00    -0.506 OA
ATOM     26  H   UNL     1       2.926 -10.556   2.860  0.00  0.00    +0.292 HD
ENDBRANCH  24  25
ENDBRANCH  17  19
ENDBRANCH   3  16
TORSDOF 5
