REMARK  Name = ZINC67478769
REMARK  8 active torsions:
REMARK  status: ('A' for Active; 'I' for Inactive)
REMARK    1  A    between atoms: C_1  and  C_2
REMARK    2  A    between atoms: C_4  and  C_7
REMARK    3  A    between atoms: C_7  and  C_8
REMARK    4  A    between atoms: C_8  and  N_9
REMARK    5  A    between atoms: N_12  and  C_13
REMARK    6  A    between atoms: C_13  and  C_14
REMARK    7  A    between atoms: N_19  and  C_20
REMARK    8  A    between atoms: C_20  and  C_21
REMARK                            x       y       z     vdW  Elec       q    Type
REMARK                         _______ _______ _______ _____ _____    ______ ____
ROOT
ATOM      1  N   UNL     1       1.495  -4.722  -2.946  0.00  0.00    -0.299 N 
ATOM      2  C   UNL     1       2.668  -5.230  -3.375  0.00  0.00    +0.300 C 
ATOM      3  O   UNL     1       3.716  -4.743  -2.998  0.00  0.00    -0.253 OA
ATOM      4  N   UNL     1       2.678  -6.278  -4.223  0.00  0.00    -0.301 N 
ATOM      5  H   UNL     1       0.659  -5.111  -3.247  0.00  0.00    +0.150 HD
ATOM      6  H   UNL     1       1.842  -6.667  -4.524  0.00  0.00    +0.150 HD
ENDROOT
BRANCH   1   7
ATOM      7  C   UNL     1       1.484  -3.583  -2.025  0.00  0.00    +0.115 C 
BRANCH   7   8
ATOM      8  C   UNL     1       0.038  -3.206  -1.697  0.00  0.00    +0.117 C 
BRANCH   8  12
ATOM      9  C   UNL     1      -0.018   1.503   0.010  0.00  0.00    +0.091 C 
ATOM     10  C   UNL     1       0.002  -0.004   0.002  0.00  0.00    +0.169 A 
ATOM     11  N   UNL     1       0.008  -0.776  -1.091  0.00  0.00    -0.196 NA
ATOM     12  C   UNL     1       0.026  -2.034  -0.750  0.00  0.00    +0.229 A 
ATOM     13  O   UNL     1       0.033  -2.107   0.587  0.00  0.00    -0.338 OA
ATOM     14  N   UNL     1       0.023  -0.767   1.057  0.00  0.00    -0.062 NA
ENDBRANCH   8  12
ENDBRANCH   7   8
ENDBRANCH   1   7
BRANCH   4  15
ATOM     15  C   UNL     1       3.952  -6.830  -4.689  0.00  0.00    +0.090 C 
BRANCH  15  16
ATOM     16  C   UNL     1       3.684  -8.004  -5.634  0.00  0.00    -0.051 C 
ATOM     17  C   UNL     1       5.009  -8.485  -6.262  0.00  0.00    -0.016 C 
ATOM     18  C   UNL     1       4.600  -8.828  -7.719  0.00  0.00    -0.020 C 
ATOM     19  C   UNL     1       3.541  -7.737  -8.012  0.00  0.00    -0.078 C 
ATOM     20  N   UNL     1       2.806  -7.570  -6.736  0.00  0.00    +0.383 N 
ATOM     21  H   UNL     1       2.558  -6.600  -6.610  0.00  0.00    -0.081 HD
BRANCH  20  22
ATOM     22  C   UNL     1       1.589  -8.392  -6.751  0.00  0.00    -0.075 C 
BRANCH  22  23
ATOM     23  C   UNL     1       0.627  -7.859  -7.815  0.00  0.00    -0.028 C 
ATOM     24  C   UNL     1       0.162  -6.455  -7.424  0.00  0.00    +0.002 C 
ATOM     25  C   UNL     1      -0.800  -5.922  -8.488  0.00  0.00    +0.000 C 
ATOM     26  C   UNL     1      -2.012  -6.851  -8.590  0.00  0.00    +0.000 C 
ATOM     27  C   UNL     1      -1.547  -8.255  -8.981  0.00  0.00    +0.000 C 
ATOM     28  C   UNL     1      -0.585  -8.788  -7.917  0.00  0.00    +0.002 C 
ENDBRANCH  22  23
ENDBRANCH  20  22
ENDBRANCH  15  16
ENDBRANCH   4  15
TORSDOF 7
