REMARK  Name = ZINC47859843
REMARK  8 active torsions:
REMARK  status: ('A' for Active; 'I' for Inactive)
REMARK    1  A    between atoms: C_1  and  C_2
REMARK    2  A    between atoms: C_4  and  C_28
REMARK    3  A    between atoms: N_5  and  C_7
REMARK    4  A    between atoms: C_10  and  N_14
REMARK    5  A    between atoms: N_17  and  C_18
REMARK    6  A    between atoms: C_18  and  C_19
REMARK    7  A    between atoms: N_25  and  C_26
REMARK    8  A    between atoms: N_25  and  C_27
REMARK                            x       y       z     vdW  Elec       q    Type
REMARK                         _______ _______ _______ _____ _____    ______ ____
ROOT
ATOM      1  N   UNL     1       0.116  -6.620   3.891  0.00  0.00    -0.269 N 
ATOM      2  C   UNL     1      -0.074  -6.490   5.219  0.00  0.00    +0.304 C 
ATOM      3  O   UNL     1      -0.172  -5.383   5.713  0.00  0.00    -0.252 OA
ATOM      4  N   UNL     1      -0.157  -7.586   5.999  0.00  0.00    -0.295 N 
ATOM      5  H   UNL     1       0.258  -7.499   3.506  0.00  0.00    +0.156 HD
ATOM      6  H   UNL     1      -0.079  -8.469   5.604  0.00  0.00    +0.151 HD
ENDROOT
BRANCH   1  10
ATOM      7  C   UNL     1       0.093  -3.247   1.438  0.00  0.00    +0.101 A 
ATOM      8  C   UNL     1      -0.422  -4.449   0.972  0.00  0.00    +0.032 A 
ATOM      9  C   UNL     1      -0.414  -5.565   1.784  0.00  0.00    +0.025 A 
ATOM     10  C   UNL     1       0.109  -5.487   3.068  0.00  0.00    +0.038 A 
ATOM     11  C   UNL     1       0.625  -4.286   3.536  0.00  0.00    +0.063 A 
ATOM     12  C   UNL     1       0.622  -3.169   2.722  0.00  0.00    +0.150 A 
ATOM     13  F   UNL     1       1.128  -2.002   3.174  0.00  0.00    -0.203 F 
BRANCH   7  18
ATOM     14  C   UNL     1       1.638   0.791  -0.997  0.00  0.00    +0.067 C 
ATOM     15  C   UNL     1       0.782  -0.327  -0.460  0.00  0.00    +0.061 A 
ATOM     16  C   UNL     1      -0.572  -0.533  -0.746  0.00  0.00    +0.047 A 
ATOM     17  C   UNL     1      -0.977  -1.636  -0.075  0.00  0.00    +0.042 A 
ATOM     18  N   UNL     1       0.085  -2.113   0.612  0.00  0.00    -0.234 N 
ATOM     19  N   UNL     1       1.178  -1.276   0.350  0.00  0.00    -0.171 NA
ATOM     20  C   UNL     1      -2.363  -2.228  -0.091  0.00  0.00    +0.066 C 
ENDBRANCH   7  18
ENDBRANCH   1  10
BRANCH   4  21
ATOM     21  C   UNL     1      -0.364  -7.444   7.442  0.00  0.00    +0.141 C 
BRANCH  21  22
ATOM     22  C   UNL     1      -0.419  -8.809   8.078  0.00  0.00    -0.026 A 
ATOM     23  C   UNL     1      -1.626  -9.485   8.206  0.00  0.00    +0.023 A 
ATOM     24  C   UNL     1      -1.643 -10.734   8.793  0.00  0.00    +0.084 A 
ATOM     25  N   UNL     1      -0.529 -11.291   9.232  0.00  0.00    -0.350 N 
ATOM     26  C   UNL     1       0.640 -10.679   9.128  0.00  0.00    +0.098 A 
ATOM     27  C   UNL     1       0.732  -9.420   8.542  0.00  0.00    +0.047 A 
ATOM     28  N   UNL     1       1.788 -11.302   9.604  0.00  0.00    -0.323 N 
ATOM     29  C   UNL     1       1.700 -12.630  10.217  0.00  0.00    +0.130 C 
ATOM     30  C   UNL     1       3.085 -10.631   9.493  0.00  0.00    +0.130 C 
ATOM     31  H   UNL     1      -0.569 -12.169   9.640  0.00  0.00    +0.166 HD
ENDBRANCH  21  22
ENDBRANCH   4  21
TORSDOF 4
