REMARK  Name = ZINC48418849
REMARK  7 active torsions:
REMARK  status: ('A' for Active; 'I' for Inactive)
REMARK    1  A    between atoms: C_1  and  C_2
REMARK    2  A    between atoms: C_2  and  C_3
REMARK    3  A    between atoms: N_9  and  C_10
REMARK    4  A    between atoms: C_10  and  C_11
REMARK    5  A    between atoms: N_13  and  C_14
REMARK    6  A    between atoms: C_18  and  S_20
REMARK    7  A    between atoms: S_20  and  N_23
REMARK                            x       y       z     vdW  Elec       q    Type
REMARK                         _______ _______ _______ _____ _____    ______ ____
ROOT
ATOM      1  C   UNL     1       5.591   3.031  -0.603  0.00  0.00    +0.035 A 
ATOM      2  C   UNL     1       6.111   4.256  -1.002  0.00  0.00    +0.023 A 
ATOM      3  C   UNL     1       7.448   4.536  -0.801  0.00  0.00    +0.004 A 
ATOM      4  C   UNL     1       8.270   3.598  -0.203  0.00  0.00    +0.029 A 
ATOM      5  C   UNL     1       7.756   2.378   0.195  0.00  0.00    +0.114 A 
ATOM      6  C   UNL     1       6.418   2.095   0.003  0.00  0.00    +0.052 A 
ENDROOT
BRANCH   1   9
ATOM      7  C   UNL     1       3.847   1.482  -1.073  0.00  0.00    +0.201 C 
ATOM      8  O   UNL     1       4.678   0.613  -1.232  0.00  0.00    -0.278 OA
ATOM      9  N   UNL     1       4.237   2.745  -0.805  0.00  0.00    -0.287 N 
ATOM     10  H   UNL     1       3.578   3.455  -0.753  0.00  0.00    +0.155 HD
BRANCH   7  11
ATOM     11  C   UNL     1       2.381   1.151  -1.173  0.00  0.00    +0.019 C 
BRANCH  11  17
ATOM     12  C   UNL     1       0.797  -0.633  -1.411  0.00  0.00    -0.068 C 
ATOM     13  C   UNL     1       0.633  -2.137  -1.639  0.00  0.00    -0.015 C 
ATOM     14  C   UNL     1       1.195  -2.503  -3.016  0.00  0.00    -0.003 C 
ATOM     15  C   UNL     1       2.659  -2.061  -3.092  0.00  0.00    -0.019 C 
ATOM     16  C   UNL     1       2.749  -0.560  -2.811  0.00  0.00    -0.078 C 
ATOM     17  N   UNL     1       2.221  -0.278  -1.470  0.00  0.00    +0.387 N 
ATOM     18  H   UNL     1       2.730  -0.820  -0.788  0.00  0.00    -0.081 HD
BRANCH  12  20
ATOM     19  C   UNL     1      -1.258  -0.581   0.008  0.00  0.00    +0.002 C 
ATOM     20  C   UNL     1       0.237  -0.262  -0.036  0.00  0.00    -0.019 C 
ENDBRANCH  12  20
ENDBRANCH  11  17
ENDBRANCH   7  11
ENDBRANCH   1   9
BRANCH   5  21
ATOM     21  S   UNL     1       8.807   1.186   0.956  0.00  0.00    +0.100 S 
ATOM     22  O   UNL     1       8.205  -0.083   0.741  0.00  0.00    -0.146 OA
ATOM     23  O   UNL     1      10.131   1.483   0.533  0.00  0.00    -0.146 OA
BRANCH  21  24
ATOM     24  N   UNL     1       8.759   1.462   2.588  0.00  0.00    -0.118 NA
ATOM     25  C   UNL     1       9.450   0.719   3.390  0.00  0.00    +0.117 C 
ATOM     26  C   UNL     1       9.488   0.864   4.896  0.00  0.00    +0.074 C 
ATOM     27  C   UNL     1      10.084  -0.472   5.394  0.00  0.00    +0.026 C 
ATOM     28  C   UNL     1      10.900  -0.938   4.169  0.00  0.00    +0.103 C 
ATOM     29  N   UNL     1      10.253  -0.319   3.006  0.00  0.00    -0.331 N 
ATOM     30  H   UNL     1      10.379  -0.606   2.088  0.00  0.00    +0.147 HD
ENDBRANCH  21  24
ENDBRANCH   5  21
TORSDOF 6
