REMARK  Name = ZINC03340090
REMARK  5 active torsions:
REMARK  status: ('A' for Active; 'I' for Inactive)
REMARK    1  A    between atoms: C_4  and  C_7
REMARK    2  A    between atoms: C_10  and  S_19
REMARK    3  A    between atoms: N_11  and  C_12
REMARK    4  A    between atoms: S_19  and  C_20
REMARK    5  A    between atoms: C_20  and  C_21
REMARK                            x       y       z     vdW  Elec       q    Type
REMARK                         _______ _______ _______ _____ _____    ______ ____
ROOT
ATOM      1  C   UNL     1       0.963   0.409  -4.657  0.00  0.00    +0.169 A 
ATOM      2  N   UNL     1       1.690  -0.089  -3.683  0.00  0.00    -0.128 NA
ATOM      3  N   UNL     1       1.196   0.252  -2.547  0.00  0.00    -0.122 NA
ATOM      4  C   UNL     1       0.122   0.990  -2.724  0.00  0.00    +0.197 A 
ATOM      5  N   UNL     1      -0.068   1.112  -4.073  0.00  0.00    -0.270 N 
ENDROOT
BRANCH   5   6
ATOM      6  C   UNL     1      -1.095   1.809  -4.725  0.00  0.00    +0.051 A 
ATOM      7  C   UNL     1      -2.021   1.121  -5.497  0.00  0.00    +0.028 A 
ATOM      8  C   UNL     1      -3.035   1.809  -6.133  0.00  0.00    +0.022 A 
ATOM      9  C   UNL     1      -3.122   3.185  -6.011  0.00  0.00    +0.041 A 
ATOM     10  C   UNL     1      -2.197   3.874  -5.247  0.00  0.00    +0.022 A 
ATOM     11  C   UNL     1      -1.184   3.189  -4.604  0.00  0.00    +0.028 A 
ATOM     12 CL   UNL     1      -4.394   4.048  -6.819  0.00  0.00    -0.084 Cl
ENDBRANCH   5   6
BRANCH   1  16
ATOM     13  C   UNL     1       1.651  -0.071  -8.821  0.00  0.00    +0.000 A 
ATOM     14  C   UNL     1       2.301  -0.891  -7.916  0.00  0.00    +0.001 A 
ATOM     15  C   UNL     1       2.082  -0.741  -6.562  0.00  0.00    +0.011 A 
ATOM     16  C   UNL     1       1.203   0.243  -6.106  0.00  0.00    +0.020 A 
ATOM     17  C   UNL     1       0.547   1.064  -7.024  0.00  0.00    +0.011 A 
ATOM     18  C   UNL     1       0.778   0.906  -8.375  0.00  0.00    +0.001 A 
ENDBRANCH   1  16
BRANCH   4  19
ATOM     19  S   UNL     1      -0.888   1.685  -1.458  0.00  0.00    -0.079 S 
BRANCH  19  20
ATOM     20  C   UNL     1      -0.013   1.086   0.008  0.00  0.00    +0.130 C 
BRANCH  20  21
ATOM     21  C   UNL     1      -0.718   1.572   1.248  0.00  0.00    +0.036 A 
ATOM     22  C   UNL     1      -1.474   0.722   1.976  0.00  0.00    +0.092 A 
ATOM     23  C   UNL     1      -2.122   1.201   3.140  0.00  0.00    +0.254 A 
ATOM     24  O   UNL     1      -2.804   0.452   3.815  0.00  0.00    -0.268 OA
ATOM     25  N   UNL     1      -1.982   2.495   3.490  0.00  0.00    -0.275 N 
ATOM     26  H   UNL     1      -2.440   2.842   4.308  0.00  0.00    +0.173 HD
ATOM     27  C   UNL     1      -1.227   3.322   2.743  0.00  0.00    +0.327 A 
ATOM     28  O   UNL     1      -1.109   4.487   3.072  0.00  0.00    -0.247 OA
ATOM     29  N   UNL     1      -0.601   2.878   1.638  0.00  0.00    -0.311 N 
ATOM     30  H   UNL     1      -0.044   3.508   1.097  0.00  0.00    +0.170 HD
ENDBRANCH  20  21
ENDBRANCH  19  20
ENDBRANCH   4  19
TORSDOF 5
