REMARK  Name = ZINC14460103
REMARK  8 active torsions:
REMARK  status: ('A' for Active; 'I' for Inactive)
REMARK    1  A    between atoms: C_1  and  C_2
REMARK    2  A    between atoms: C_2  and  C_3
REMARK    3  A    between atoms: C_3  and  N_4
REMARK    4  A    between atoms: C_5  and  C_7
REMARK    5  A    between atoms: C_20  and  C_23
REMARK    6  A    between atoms: C_27  and  O_30
REMARK    7  A    between atoms: C_28  and  O_29
REMARK    8  A    between atoms: O_30  and  C_31
REMARK                            x       y       z     vdW  Elec       q    Type
REMARK                         _______ _______ _______ _____ _____    ______ ____
ROOT
ATOM      1  C   UNL     1       5.747   0.364   1.633  0.00  0.00    +0.037 A 
ATOM      2  C   UNL     1       5.977   0.517   0.262  0.00  0.00    +0.015 A 
ATOM      3  C   UNL     1       5.237   1.421  -0.462  0.00  0.00    +0.024 A 
ATOM      4  C   UNL     1       4.255   2.191   0.158  0.00  0.00    +0.031 A 
ATOM      5  C   UNL     1       4.015   2.026   1.530  0.00  0.00    -0.019 A 
ATOM      6  C   UNL     1       4.759   1.129   2.258  0.00  0.00    +0.019 A 
ATOM      7  C   UNL     1       2.932   2.830   2.135  0.00  0.00    +0.049 C 
ATOM      8  C   UNL     1       2.929   3.190   3.576  0.00  0.00    -0.023 C 
ATOM      9  C   UNL     1       2.326   4.364   3.719  0.00  0.00    -0.030 C 
ATOM     10  C   UNL     1       1.902   4.904   2.352  0.00  0.00    +0.033 C 
ATOM     11  C   UNL     1       2.910   4.215   1.422  0.00  0.00    +0.029 C 
ATOM     12  C   UNL     1       2.460   3.930   0.000  0.00  0.00    +0.109 C 
ATOM     13  N   UNL     1       3.533   3.110  -0.602  0.00  0.00    -0.336 N 
ATOM     14  H   UNL     1       3.739   3.214  -1.544  0.00  0.00    +0.147 HD
ENDROOT
BRANCH  12  15
ATOM     15  C   UNL     1       1.162   3.164   0.008  0.00  0.00    +0.018 A 
ATOM     16  C   UNL     1       1.176   1.782   0.000  0.00  0.00    +0.009 A 
ATOM     17  C   UNL     1      -0.013   1.076   0.008  0.00  0.00    +0.004 A 
ATOM     18  C   UNL     1      -1.220   1.749   0.017  0.00  0.00    +0.049 A 
ATOM     19  C   UNL     1      -1.241   3.134   0.031  0.00  0.00    +0.162 A 
ATOM     20  C   UNL     1      -0.044   3.845   0.024  0.00  0.00    +0.163 A 
BRANCH  20  21
ATOM     21  O   UNL     1      -0.059   5.205   0.031  0.00  0.00    -0.503 OA
ATOM     22  H   UNL     1      -0.072   5.603  -0.850  0.00  0.00    +0.292 HD
ENDBRANCH  20  21
BRANCH  19  23
ATOM     23  O   UNL     1      -2.428   3.798   0.046  0.00  0.00    -0.491 OA
ATOM     24  C   UNL     1      -3.615   3.004   0.052  0.00  0.00    +0.277 C 
ENDBRANCH  19  23
ENDBRANCH  12  15
BRANCH   1  26
ATOM     25  N   UNL     1       7.498  -1.335   1.809  0.00  0.00    -0.311 N 
ATOM     26  C   UNL     1       6.545  -0.599   2.415  0.00  0.00    +0.244 C 
ATOM     27  O   UNL     1       6.343  -0.730   3.607  0.00  0.00    -0.270 OA
ATOM     28  H   UNL     1       7.659  -1.231   0.858  0.00  0.00    +0.149 HD
BRANCH  25  29
ATOM     29  C   UNL     1       8.290  -2.292   2.586  0.00  0.00    +0.104 C 
BRANCH  29  31
ATOM     30  C   UNL     1      10.120  -3.989   2.476  0.00  0.00    +0.005 C 
ATOM     31  C   UNL     1       9.293  -2.990   1.665  0.00  0.00    +0.015 C 
ENDBRANCH  29  31
ENDBRANCH  25  29
ENDBRANCH   1  26
TORSDOF 6
