REMARK  Name = ZINC58941471
REMARK  5 active torsions:
REMARK  status: ('A' for Active; 'I' for Inactive)
REMARK    1  A    between atoms: C_1  and  C_2
REMARK    2  A    between atoms: C_7  and  N_8
REMARK    3  A    between atoms: C_12  and  C_14
REMARK    4  A    between atoms: C_14  and  N_15
REMARK    5  A    between atoms: C_17  and  C_20
REMARK                            x       y       z     vdW  Elec       q    Type
REMARK                         _______ _______ _______ _____ _____    ______ ____
ROOT
ATOM      1  N   UNL     1       0.056  -0.038   2.447  0.00  0.00    -0.296 N 
ATOM      2  C   UNL     1       0.738   0.093   3.602  0.00  0.00    +0.306 C 
ATOM      3  O   UNL     1       1.921  -0.180   3.644  0.00  0.00    -0.252 OA
ATOM      4  N   UNL     1       0.107   0.528   4.711  0.00  0.00    -0.239 N 
ATOM      5  C   UNL     1       0.789   0.659   5.866  0.00  0.00    +0.244 C 
ATOM      6  O   UNL     1       1.969   0.387   5.908  0.00  0.00    -0.273 OA
ATOM      7  H   UNL     1      -0.888   0.180   2.413  0.00  0.00    +0.151 HD
ATOM      8  H   UNL     1      -0.838   0.746   4.678  0.00  0.00    +0.159 HD
ENDROOT
BRANCH   1  15
ATOM      9  C   UNL     1      -0.019   1.526   0.010  0.00  0.00    +0.009 C 
ATOM     10  C   UNL     1       0.002  -0.004   0.002  0.00  0.00    +0.006 C 
ATOM     11  C   UNL     1      -1.433  -0.534   0.013  0.00  0.00    +0.005 C 
ATOM     12  C   UNL     1      -1.413  -2.063   0.004  0.00  0.00    +0.000 C 
ATOM     13  C   UNL     1      -0.673  -2.570   1.244  0.00  0.00    +0.002 C 
ATOM     14  C   UNL     1       0.763  -2.041   1.233  0.00  0.00    +0.022 C 
ATOM     15  C   UNL     1       0.742  -0.511   1.242  0.00  0.00    +0.077 C 
ENDBRANCH   1  15
BRANCH   5  16
ATOM     16  C   UNL     1       0.083   1.145   7.106  0.00  0.00    +0.264 C 
BRANCH  16  17
ATOM     17  N   UNL     1       1.035   1.202   8.219  0.00  0.00    -0.154 N 
ATOM     18  N   UNL     1       1.284   0.236   9.035  0.00  0.00    -0.129 NA
ATOM     19  C   UNL     1       2.190   0.660   9.896  0.00  0.00    +0.211 A 
ATOM     20  N   UNL     1       2.475   1.927   9.560  0.00  0.00    -0.107 NA
ATOM     21  N   UNL     1       1.756   2.221   8.530  0.00  0.00    -0.045 NA
BRANCH  19  22
ATOM     22  C   UNL     1       2.776  -0.111  11.014  0.00  0.00    +0.060 A 
ATOM     23  C   UNL     1       3.709   0.280  11.936  0.00  0.00    +0.019 A 
ATOM     24  C   UNL     1       4.108  -0.622  12.898  0.00  0.00    +0.008 A 
ATOM     25  C   UNL     1       3.566  -1.867  12.904  0.00  0.00    +0.046 A 
ATOM     26  S   UNL     1       2.444  -1.792  11.518  0.00  0.00    -0.093 S 
ENDBRANCH  19  22
ENDBRANCH  16  17
ENDBRANCH   5  16
TORSDOF 4
