REMARK  Name = ZINC03565564
REMARK  5 active torsions:
REMARK  status: ('A' for Active; 'I' for Inactive)
REMARK    1  A    between atoms: C_1  and  C_2
REMARK    2  A    between atoms: C_2  and  S_3
REMARK    3  A    between atoms: S_3  and  C_4
REMARK    4  A    between atoms: C_10  and  C_12
REMARK    5  A    between atoms: C_12  and  N_13
REMARK                            x       y       z     vdW  Elec       q    Type
REMARK                         _______ _______ _______ _____ _____    ______ ____
ROOT
ATOM      1  C   UNL     1       0.714  -8.747   0.964  0.00  0.00    +0.214 C 
ENDROOT
BRANCH   1   2
ATOM      2  N   UNL     1       0.086  -9.484  -0.135  0.00  0.00    -0.215 N 
ATOM      3  C   UNL     1      -1.206  -9.876  -0.146  0.00  0.00    +0.247 C 
ATOM      4  O   UNL     1      -2.037  -9.694   0.718  0.00  0.00    -0.273 OA
ATOM      5  C   UNL     1      -1.395 -10.588  -1.461  0.00  0.00    +0.113 C 
ATOM      6  C   UNL     1      -2.470  -9.899  -2.311  0.00  0.00    +0.035 C 
ATOM      7  C   UNL     1      -3.170 -11.069  -3.050  0.00  0.00    +0.003 C 
ATOM      8  C   UNL     1      -3.188 -12.191  -1.982  0.00  0.00    +0.003 C 
ATOM      9  C   UNL     1      -1.836 -12.039  -1.249  0.00  0.00    +0.035 C 
ATOM     10  N   UNL     1      -0.083 -10.518  -2.108  0.00  0.00    -0.285 N 
ATOM     11  C   UNL     1       0.720  -9.847  -1.258  0.00  0.00    +0.310 C 
ATOM     12  O   UNL     1       1.889  -9.603  -1.483  0.00  0.00    -0.252 OA
ATOM     13  H   UNL     1       0.158 -10.878  -2.975  0.00  0.00    +0.151 HD
ENDBRANCH   1   2
BRANCH   1  20
ATOM     14  C   UNL     1       0.818  -2.359   1.317  0.00  0.00    +0.160 A 
ATOM     15  N   UNL     1       0.278  -3.113   0.370  0.00  0.00    -0.133 NA
ATOM     16  N   UNL     1       0.324  -4.372   0.413  0.00  0.00    -0.125 NA
ATOM     17  C   UNL     1       0.912  -5.019   1.406  0.00  0.00    +0.189 A 
ATOM     18  S   UNL     1       1.473  -3.633   2.392  0.00  0.00    -0.024 S 
ATOM     19  N   UNL     1       1.059  -6.387   1.621  0.00  0.00    -0.262 N 
ATOM     20  C   UNL     1       0.556  -7.266   0.732  0.00  0.00    +0.237 C 
ATOM     21  O   UNL     1      -0.025  -6.866  -0.255  0.00  0.00    -0.274 OA
ATOM     22  H   UNL     1       1.524  -6.707   2.410  0.00  0.00    +0.157 HD
BRANCH  14  23
ATOM     23  S   UNL     1       0.879  -0.605   1.472  0.00  0.00    -0.097 S 
BRANCH  23  25
ATOM     24  C   UNL     1      -0.019   1.526   0.010  0.00  0.00    +0.016 C 
ATOM     25  C   UNL     1       0.002  -0.004   0.002  0.00  0.00    +0.073 C 
ENDBRANCH  23  25
ENDBRANCH  14  23
ENDBRANCH   1  20
TORSDOF 4
