REMARK  Name = ZINC00242367
REMARK  5 active torsions:
REMARK  status: ('A' for Active; 'I' for Inactive)
REMARK    1  A    between atoms: C_3  and  N_10
REMARK    2  A    between atoms: C_5  and  N_7
REMARK    3  A    between atoms: C_11  and  C_13
REMARK    4  A    between atoms: C_13  and  C_20
REMARK    5  A    between atoms: C_14  and  C_15
REMARK                            x       y       z     vdW  Elec       q    Type
REMARK                         _______ _______ _______ _____ _____    ______ ____
ROOT
ATOM      1  N   UNL     1      -0.069   5.241   0.029  0.00  0.00    -0.281 N 
ATOM      2  C   UNL     1       1.085   5.930   0.123  0.00  0.00    +0.259 C 
ATOM      3  O   UNL     1       2.149   5.339   0.111  0.00  0.00    -0.269 OA
ATOM      4  H   UNL     1      -0.913   5.715  -0.038  0.00  0.00    +0.155 HD
ENDROOT
BRANCH   1   7
ATOM      5  C   UNL     1      -0.968   1.754  -0.712  0.00  0.00    +0.004 A 
ATOM      6  C   UNL     1      -0.989   3.135  -0.712  0.00  0.00    +0.023 A 
ATOM      7  C   UNL     1      -0.051   3.842   0.028  0.00  0.00    +0.036 A 
ATOM      8  C   UNL     1       0.907   3.158   0.766  0.00  0.00    +0.056 A 
ATOM      9  C   UNL     1       0.919   1.777   0.766  0.00  0.00    +0.128 A 
ATOM     10  C   UNL     1      -0.014   1.076   0.025  0.00  0.00    +0.033 A 
BRANCH   9  11
ATOM     11  N   UNL     1       1.935   1.048   1.558  0.00  0.00    +0.056 N 
ATOM     12  O   UNL     1       1.949  -0.170   1.556  0.00  0.00    -0.126 OA
ATOM     13  O   UNL     1       2.757   1.665   2.212  0.00  0.00    -0.126 OA
ENDBRANCH   9  11
ENDBRANCH   1   7
BRANCH   2  14
ATOM     14  C   UNL     1       1.059   7.393   0.242  0.00  0.00    +0.115 C 
ATOM     15  C   UNL     1       2.247   8.101   0.339  0.00  0.00    +0.039 C 
BRANCH  15  16
ATOM     16  C   UNL     1       2.222   9.503   0.452  0.00  0.00    +0.014 A 
ATOM     17  C   UNL     1       3.288  10.396   0.566  0.00  0.00    +0.015 A 
ATOM     18  C   UNL     1       2.977  11.726   0.658  0.00  0.00    +0.008 A 
ATOM     19  C   UNL     1       1.669  12.106   0.646  0.00  0.00    +0.046 A 
ATOM     20  S   UNL     1       0.818  10.604   0.496  0.00  0.00    -0.097 S 
ENDBRANCH  15  16
BRANCH  14  21
ATOM     21  C   UNL     1      -0.193   8.088   0.257  0.00  0.00    +0.104 C 
ATOM     22  N   UNL     1      -1.186   8.639   0.269  0.00  0.00    -0.191 NA
ENDBRANCH  14  21
ENDBRANCH   2  14
TORSDOF 5
