REMARK  Name = ZINC38965645
REMARK  7 active torsions:
REMARK  status: ('A' for Active; 'I' for Inactive)
REMARK    1  A    between atoms: C_1  and  C_2
REMARK    2  A    between atoms: C_6  and  S_8
REMARK    3  A    between atoms: S_8  and  N_11
REMARK    4  A    between atoms: C_13  and  N_23
REMARK    5  A    between atoms: N_23  and  C_24
REMARK    6  A    between atoms: C_27  and  O_30
REMARK    7  A    between atoms: O_30  and  C_31
REMARK                            x       y       z     vdW  Elec       q    Type
REMARK                         _______ _______ _______ _____ _____    ______ ____
ROOT
ATOM      1  N   UNL     1       1.776  -2.685   1.940  0.00  0.00    -0.110 NA
ATOM      2  C   UNL     1       1.779  -3.344   3.061  0.00  0.00    +0.192 C 
ATOM      3  C   UNL     1       3.082  -3.676   3.752  0.00  0.00    +0.237 C 
ATOM      4  N   UNL     1       3.018  -4.423   5.018  0.00  0.00    -0.359 N 
ATOM      5  C   UNL     1       1.847  -4.762   5.481  0.00  0.00    +0.063 A 
ATOM      6  C   UNL     1       1.728  -5.509   6.742  0.00  0.00    +0.027 A 
ATOM      7  C   UNL     1       0.498  -5.841   7.191  0.00  0.00    +0.002 A 
ATOM      8  C   UNL     1      -0.665  -5.492   6.486  0.00  0.00    +0.002 A 
ATOM      9  C   UNL     1      -0.635  -4.807   5.322  0.00  0.00    +0.030 A 
ATOM     10  C   UNL     1       0.602  -4.406   4.757  0.00  0.00    +0.089 A 
ATOM     11  N   UNL     1       0.625  -3.734   3.625  0.00  0.00    -0.226 NA
ATOM     12  H   UNL     1       3.828  -4.659   5.496  0.00  0.00    +0.162 HD
ENDROOT
BRANCH   1  13
ATOM     13  S   UNL     1       0.341  -2.322   1.197  0.00  0.00    +0.100 S 
ATOM     14  O   UNL     1      -0.340  -1.412   2.051  0.00  0.00    -0.146 OA
ATOM     15  O   UNL     1      -0.230  -3.558   0.790  0.00  0.00    -0.146 OA
BRANCH  13  21
ATOM     16  C   UNL     1       1.233   2.140  -1.375  0.00  0.00    +0.044 C 
ATOM     17  C   UNL     1       1.126   0.638  -1.405  0.00  0.00    -0.049 A 
ATOM     18  C   UNL     1       1.331  -0.046  -2.589  0.00  0.00    +0.003 A 
ATOM     19  C   UNL     1       1.233  -1.425  -2.617  0.00  0.00    +0.002 A 
ATOM     20  C   UNL     1       0.930  -2.120  -1.460  0.00  0.00    +0.029 A 
ATOM     21  C   UNL     1       0.727  -1.436  -0.276  0.00  0.00    +0.113 A 
ATOM     22  C   UNL     1       0.829  -0.058  -0.248  0.00  0.00    +0.032 A 
ENDBRANCH  13  21
ENDBRANCH   1  13
BRANCH   3  23
ATOM     23  N   UNL     1       3.784  -2.417   4.012  0.00  0.00    -0.318 N 
ATOM     24  H   UNL     1       3.304  -1.663   4.387  0.00  0.00    +0.148 HD
BRANCH  23  25
ATOM     25  C   UNL     1       5.147  -2.303   3.718  0.00  0.00    +0.029 A 
ATOM     26  C   UNL     1       5.824  -1.125   4.008  0.00  0.00    +0.026 A 
ATOM     27  C   UNL     1       7.170  -1.013   3.719  0.00  0.00    +0.048 A 
ATOM     28  C   UNL     1       7.846  -2.076   3.139  0.00  0.00    +0.129 A 
ATOM     29  C   UNL     1       7.170  -3.253   2.849  0.00  0.00    +0.048 A 
ATOM     30  C   UNL     1       5.826  -3.369   3.143  0.00  0.00    +0.026 A 
BRANCH  28  31
ATOM     31  O   UNL     1       9.171  -1.965   2.854  0.00  0.00    -0.456 OA
BRANCH  31  32
ATOM     32  C   UNL     1       9.793  -0.796   3.158  0.00  0.00    +0.128 A 
ATOM     33  C   UNL     1      10.098  -0.494   4.477  0.00  0.00    +0.046 A 
ATOM     34  C   UNL     1      10.730   0.696   4.784  0.00  0.00    +0.004 A 
ATOM     35  C   UNL     1      11.058   1.585   3.777  0.00  0.00    +0.000 A 
ATOM     36  C   UNL     1      10.755   1.286   2.461  0.00  0.00    +0.004 A 
ATOM     37  C   UNL     1      10.128   0.095   2.149  0.00  0.00    +0.046 A 
ENDBRANCH  31  32
ENDBRANCH  28  31
ENDBRANCH  23  25
ENDBRANCH   3  23
TORSDOF 6
