REMARK  Name = ZINC22510579
REMARK  8 active torsions:
REMARK  status: ('A' for Active; 'I' for Inactive)
REMARK    1  A    between atoms: C_1  and  C_2
REMARK    2  A    between atoms: C_2  and  N_3
REMARK    3  A    between atoms: C_8  and  C_17
REMARK    4  A    between atoms: C_10  and  C_12
REMARK    5  A    between atoms: N_19  and  C_20
REMARK    6  A    between atoms: C_24  and  C_26
REMARK    7  A    between atoms: N_28  and  C_29
REMARK    8  A    between atoms: N_28  and  C_30
REMARK                            x       y       z     vdW  Elec       q    Type
REMARK                         _______ _______ _______ _____ _____    ______ ____
ROOT
ATOM      1  N   UNL     1      -0.132   6.863  -3.388  0.00  0.00    -0.247 N 
ATOM      2  C   UNL     1       0.804   5.870  -3.523  0.00  0.00    +0.160 A 
ATOM      3  C   UNL     1       1.985   6.354  -2.925  0.00  0.00    +0.051 A 
ATOM      4  C   UNL     1       1.705   7.650  -2.442  0.00  0.00    +0.145 A 
ATOM      5  N   UNL     1       0.465   7.938  -2.718  0.00  0.00    -0.177 NA
ATOM      6  C   UNL     1       3.138   5.534  -2.912  0.00  0.00    +0.051 A 
ATOM      7  C   UNL     1       3.049   4.275  -3.492  0.00  0.00    +0.042 A 
ATOM      8  C   UNL     1       1.838   3.872  -4.070  0.00  0.00    +0.081 A 
ATOM      9  N   UNL     1       0.775   4.663  -4.066  0.00  0.00    -0.227 NA
ENDROOT
BRANCH   8  10
ATOM     10  C   UNL     1       1.743   2.536  -4.691  0.00  0.00    +0.038 A 
ATOM     11  C   UNL     1       0.670   1.942  -5.302  0.00  0.00    +0.017 A 
ATOM     12  C   UNL     1       0.820   0.676  -5.820  0.00  0.00    +0.008 A 
ATOM     13  C   UNL     1       2.021   0.050  -5.700  0.00  0.00    +0.046 A 
ATOM     14  S   UNL     1       2.997   1.274  -4.842  0.00  0.00    -0.095 S 
ENDBRANCH   8  10
BRANCH   6  15
ATOM     15  C   UNL     1       4.398   6.001  -2.296  0.00  0.00    +0.249 C 
ATOM     16  O   UNL     1       4.455   7.105  -1.789  0.00  0.00    -0.270 OA
ATOM     17  N   UNL     1       5.484   5.203  -2.295  0.00  0.00    -0.281 N 
ATOM     18  H   UNL     1       5.416   4.182  -2.697  0.00  0.00    +0.155 HD
BRANCH  17  19
ATOM     19  C   UNL     1       6.697   5.674  -1.782  0.00  0.00    +0.034 A 
ATOM     20  C   UNL     1       7.523   4.821  -1.058  0.00  0.00    +0.023 A 
ATOM     21  C   UNL     1       8.723   5.281  -0.549  0.00  0.00    +0.003 A 
ATOM     22  C   UNL     1       9.109   6.590  -0.756  0.00  0.00    +0.013 A 
ATOM     23  C   UNL     1       8.287   7.454  -1.482  0.00  0.00    +0.039 A 
ATOM     24  C   UNL     1       7.079   6.988  -2.000  0.00  0.00    +0.036 A 
BRANCH  23  25
ATOM     25  C   UNL     1       8.700   8.856  -1.706  0.00  0.00    +0.246 C 
ATOM     26  O   UNL     1       7.860   9.711  -1.910  0.00  0.00    -0.270 OA
ATOM     27  N   UNL     1      10.006   9.186  -1.686  0.00  0.00    -0.304 N 
ATOM     28  C   UNL     1      10.439  10.496  -2.179  0.00  0.00    +0.132 C 
ATOM     29  C   UNL     1      10.994   8.235  -1.169  0.00  0.00    +0.132 C 
ENDBRANCH  23  25
ENDBRANCH  17  19
ENDBRANCH   6  15
BRANCH   1  31
ATOM     30  C   UNL     1      -2.410   6.230  -2.764  0.00  0.00    +0.029 C 
ATOM     31  C   UNL     1      -1.517   6.809  -3.863  0.00  0.00    +0.142 C 
ENDBRANCH   1  31
TORSDOF 5
