REMARK  Name = ZINC66277753
REMARK  6 active torsions:
REMARK  status: ('A' for Active; 'I' for Inactive)
REMARK    1  A    between atoms: C_1  and  C_2
REMARK    2  A    between atoms: C_2  and  C_3
REMARK    3  A    between atoms: C_2  and  C_4
REMARK    4  A    between atoms: C_4  and  N_5
REMARK    5  A    between atoms: C_14  and  C_16
REMARK    6  A    between atoms: N_18  and  N_19
REMARK                            x       y       z     vdW  Elec       q    Type
REMARK                         _______ _______ _______ _____ _____    ______ ____
ROOT
ATOM      1  N   UNL     1      -0.008  -0.140   2.444  0.00  0.00    -0.228 N 
ATOM      2  C   UNL     1      -0.933  -1.004   2.911  0.00  0.00    +0.275 A 
ATOM      3  O   UNL     1      -1.136  -2.064   2.348  0.00  0.00    -0.266 OA
ATOM      4  C   UNL     1      -1.688  -0.637   4.117  0.00  0.00    +0.050 A 
ATOM      5  C   UNL     1      -2.662  -1.457   4.678  0.00  0.00    +0.014 A 
ATOM      6  C   UNL     1      -3.326  -1.039   5.811  0.00  0.00    +0.001 A 
ATOM      7  C   UNL     1      -3.034   0.187   6.394  0.00  0.00    +0.001 A 
ATOM      8  C   UNL     1      -2.072   1.014   5.853  0.00  0.00    +0.011 A 
ATOM      9  C   UNL     1      -1.390   0.612   4.710  0.00  0.00    +0.020 A 
ATOM     10  C   UNL     1      -0.351   1.435   4.071  0.00  0.00    +0.155 A 
ATOM     11  N   UNL     1       0.252   0.984   2.997  0.00  0.00    -0.163 NA
ENDROOT
BRANCH  10  12
ATOM     12  C   UNL     1       0.013   2.750   4.635  0.00  0.00    +0.281 C 
ATOM     13  O   UNL     1      -0.547   3.159   5.633  0.00  0.00    -0.267 OA
ATOM     14  N   UNL     1       0.966   3.497   4.042  0.00  0.00    -0.219 N 
ATOM     15  H   UNL     1       1.413   3.170   3.246  0.00  0.00    +0.174 HD
BRANCH  14  16
ATOM     16  N   UNL     1       1.311   4.745   4.577  0.00  0.00    -0.147 N 
ATOM     17  C   UNL     1       0.556   5.853   4.472  0.00  0.00    +0.271 C 
ATOM     18  O   UNL     1      -0.516   5.929   3.906  0.00  0.00    -0.268 OA
ATOM     19  C   UNL     1       1.250   6.963   5.159  0.00  0.00    +0.051 A 
ATOM     20  C   UNL     1       0.960   8.301   5.371  0.00  0.00    +0.014 A 
ATOM     21  C   UNL     1       1.851   9.093   6.078  0.00  0.00    +0.001 A 
ATOM     22  C   UNL     1       3.026   8.557   6.572  0.00  0.00    +0.001 A 
ATOM     23  C   UNL     1       3.329   7.220   6.367  0.00  0.00    +0.014 A 
ATOM     24  C   UNL     1       2.447   6.416   5.663  0.00  0.00    +0.051 A 
ATOM     25  C   UNL     1       2.438   4.991   5.269  0.00  0.00    +0.271 C 
ATOM     26  O   UNL     1       3.304   4.179   5.525  0.00  0.00    -0.268 OA
ENDBRANCH  14  16
ENDBRANCH  10  12
BRANCH   1  27
ATOM     27  C   UNL     1       0.742  -0.511   1.242  0.00  0.00    +0.150 C 
BRANCH  27  29
ATOM     28  C   UNL     1      -0.019   1.526   0.010  0.00  0.00    +0.009 C 
ATOM     29  C   UNL     1       0.002  -0.004   0.002  0.00  0.00    +0.004 C 
ATOM     30  C   UNL     1       0.718  -0.497  -1.257  0.00  0.00    +0.009 C 
ENDBRANCH  27  29
ENDBRANCH   1  27
TORSDOF 4
