REMARK  Name = ZINC00207429
REMARK  6 active torsions:
REMARK  status: ('A' for Active; 'I' for Inactive)
REMARK    1  A    between atoms: C_1  and  N_2
REMARK    2  A    between atoms: N_2  and  C_3
REMARK    3  A    between atoms: N_2  and  C_4
REMARK    4  A    between atoms: C_7  and  C_10
REMARK    5  A    between atoms: C_10  and  N_47
REMARK    6  A    between atoms: N_13  and  C_16
REMARK                            x       y       z     vdW  Elec       q    Type
REMARK                         _______ _______ _______ _____ _____    ______ ____
ROOT
ATOM      1  C   UNL     1      -0.049  -2.333  -2.076  0.00  0.00    -0.059 C 
ATOM      2  C   UNL     1       0.014  -2.781  -3.538  0.00  0.00    +0.086 C 
ATOM      3  N   UNL     1       0.268  -4.228  -3.595  0.00  0.00    -0.333 N 
ATOM      4  C   UNL     1       1.533  -4.564  -2.928  0.00  0.00    +0.086 C 
ATOM      5  C   UNL     1       1.470  -4.116  -1.465  0.00  0.00    -0.059 C 
ATOM      6  N   UNL     1       1.237  -2.657  -1.423  0.00  0.00    +0.384 N 
ATOM      7  H   UNL     1       1.996  -2.183  -1.927  0.00  0.00    -0.081 HD
ENDROOT
BRANCH   3   8
ATOM      8  C   UNL     1       0.260  -4.686  -4.915  0.00  0.00    +0.030 A 
ATOM      9  C   UNL     1       1.365  -5.356  -5.425  0.00  0.00    +0.024 A 
ATOM     10  C   UNL     1       1.352  -5.814  -6.728  0.00  0.00    +0.022 A 
ATOM     11  C   UNL     1       0.245  -5.595  -7.529  0.00  0.00    +0.041 A 
ATOM     12  C   UNL     1      -0.855  -4.923  -7.025  0.00  0.00    +0.022 A 
ATOM     13  C   UNL     1      -0.850  -4.469  -5.721  0.00  0.00    +0.024 A 
ATOM     14 CL   UNL     1       0.236  -6.165  -9.169  0.00  0.00    -0.084 Cl
ENDBRANCH   3   8
BRANCH   6  15
ATOM     15  C   UNL     1       1.224  -2.188  -0.021  0.00  0.00    -0.043 C 
BRANCH  15  19
ATOM     16  C   UNL     1       1.178   2.086   0.002  0.00  0.00    +0.029 A 
ATOM     17  C   UNL     1      -0.017   1.377   0.010  0.00  0.00    +0.023 A 
ATOM     18  C   UNL     1       0.002  -0.004   0.002  0.00  0.00    +0.003 A 
ATOM     19  C   UNL     1       1.208  -0.681  -0.013  0.00  0.00    -0.064 A 
ATOM     20  C   UNL     1       2.399   0.022  -0.020  0.00  0.00    +0.003 A 
ATOM     21  C   UNL     1       2.387   1.403  -0.012  0.00  0.00    +0.023 A 
BRANCH  16  23
ATOM     22  C   UNL     1      -0.114   4.201   0.026  0.00  0.00    +0.129 C 
ATOM     23  N   UNL     1       1.162   3.483   0.010  0.00  0.00    -0.336 N 
ATOM     24  C   UNL     1       2.423   4.229   0.002  0.00  0.00    +0.129 C 
ENDBRANCH  16  23
ENDBRANCH  15  19
ENDBRANCH   6  15
TORSDOF 4
