REMARK  Name = ZINC59453214
REMARK  10 active torsions:
REMARK  status: ('A' for Active; 'I' for Inactive)
REMARK    1  A    between atoms: C_1  and  O_2
REMARK    2  A    between atoms: O_2  and  C_3
REMARK    3  A    between atoms: C_5  and  C_30
REMARK    4  A    between atoms: C_6  and  N_11
REMARK    5  A    between atoms: C_8  and  O_9
REMARK    6  A    between atoms: O_9  and  C_10
REMARK    7  A    between atoms: C_12  and  C_14
REMARK    8  A    between atoms: C_17  and  O_20
REMARK    9  A    between atoms: O_20  and  C_21
REMARK   10  A    between atoms: C_24  and  N_27
REMARK                            x       y       z     vdW  Elec       q    Type
REMARK                         _______ _______ _______ _____ _____    ______ ____
ROOT
ATOM      1  N   UNL     1       2.458  -2.579  -4.237  0.00  0.00    -0.281 N 
ATOM      2  C   UNL     1       2.440  -3.924  -4.311  0.00  0.00    +0.248 C 
ATOM      3  O   UNL     1       1.807  -4.570  -3.497  0.00  0.00    -0.270 OA
ATOM      4  H   UNL     1       2.893  -2.060  -4.931  0.00  0.00    +0.155 HD
ENDROOT
BRANCH   1   8
ATOM      5  C   UNL     1       0.639  -0.636  -1.017  0.00  0.00    +0.162 A 
ATOM      6  C   UNL     1       0.606  -0.053  -2.266  0.00  0.00    +0.066 A 
ATOM      7  C   UNL     1       1.213  -0.696  -3.353  0.00  0.00    +0.088 A 
ATOM      8  C   UNL     1       1.853  -1.933  -3.162  0.00  0.00    +0.052 A 
ATOM      9  C   UNL     1       1.879  -2.508  -1.901  0.00  0.00    +0.073 A 
ATOM     10  C   UNL     1       1.280  -1.862  -0.831  0.00  0.00    +0.163 A 
BRANCH   7  11
ATOM     11  C   UNL     1       1.180  -0.080  -4.685  0.00  0.00    +0.388 C 
ATOM     12  O   UNL     1       0.547   0.951  -4.868  0.00  0.00    -0.241 OA
ATOM     13  O   UNL     1       1.787  -0.598  -5.614  0.00  0.00    -0.241 OA
ENDBRANCH   7  11
BRANCH   5  15
ATOM     14  C   UNL     1      -0.589   1.240  -0.222  0.00  0.00    +0.277 C 
ATOM     15  O   UNL     1       0.050  -0.011   0.038  0.00  0.00    -0.491 OA
ENDBRANCH   5  15
BRANCH  10  16
ATOM     16  O   UNL     1       1.313  -2.427   0.403  0.00  0.00    -0.491 OA
ATOM     17  C   UNL     1       1.985  -3.682   0.524  0.00  0.00    +0.277 C 
ENDBRANCH  10  16
ENDBRANCH   1   8
BRANCH   2  18
ATOM     18  C   UNL     1       3.186  -4.614  -5.380  0.00  0.00    +0.037 A 
ATOM     19  C   UNL     1       3.918  -3.874  -6.314  0.00  0.00    +0.016 A 
ATOM     20  C   UNL     1       4.614  -4.522  -7.310  0.00  0.00    +0.047 A 
ATOM     21  C   UNL     1       4.588  -5.910  -7.389  0.00  0.00    +0.128 A 
ATOM     22  C   UNL     1       3.861  -6.649  -6.463  0.00  0.00    +0.047 A 
ATOM     23  C   UNL     1       3.168  -6.010  -5.460  0.00  0.00    +0.016 A 
BRANCH  21  24
ATOM     24  O   UNL     1       5.275  -6.544  -8.373  0.00  0.00    -0.456 OA
BRANCH  24  25
ATOM     25  C   UNL     1       4.564  -7.218  -9.314  0.00  0.00    +0.129 A 
ATOM     26  C   UNL     1       3.178  -7.146  -9.323  0.00  0.00    +0.048 A 
ATOM     27  C   UNL     1       2.458  -7.832 -10.281  0.00  0.00    +0.036 A 
ATOM     28  C   UNL     1       3.116  -8.591 -11.230  0.00  0.00    +0.126 A 
ATOM     29  C   UNL     1       4.497  -8.666 -11.224  0.00  0.00    +0.036 A 
ATOM     30  C   UNL     1       5.222  -7.976 -10.272  0.00  0.00    +0.048 A 
BRANCH  28  31
ATOM     31  N   UNL     1       2.341  -9.326 -12.256  0.00  0.00    +0.056 N 
ATOM     32  O   UNL     1       1.134  -9.262 -12.262  0.00  0.00    -0.126 OA
ATOM     33  O   UNL     1       2.916  -9.990 -13.086  0.00  0.00    -0.126 OA
ENDBRANCH  28  31
ENDBRANCH  24  25
ENDBRANCH  21  24
ENDBRANCH   2  18
TORSDOF 8
