REMARK  Name = ZINC48342643
REMARK  5 active torsions:
REMARK  status: ('A' for Active; 'I' for Inactive)
REMARK    1  A    between atoms: C_1  and  C_2
REMARK    2  A    between atoms: C_3  and  C_12
REMARK    3  A    between atoms: C_12  and  C_13
REMARK    4  A    between atoms: C_13  and  C_14
REMARK    5  A    between atoms: C_23  and  C_27
REMARK                            x       y       z     vdW  Elec       q    Type
REMARK                         _______ _______ _______ _____ _____    ______ ____
ROOT
ATOM      1  C   UNL     1      -4.317   0.888  -1.407  0.00  0.00    +0.219 C 
ATOM      2  O   UNL     1      -4.800   1.253  -0.356  0.00  0.00    -0.275 OA
ATOM      3  N   UNL     1      -4.963   1.129  -2.566  0.00  0.00    -0.265 N 
ATOM      4  C   UNL     1      -6.183   1.795  -2.555  0.00  0.00    +0.165 A 
ATOM      5  N   UNL     1      -6.849   2.264  -1.524  0.00  0.00    -0.229 NA
ATOM      6  C   UNL     1      -8.017   2.885  -1.664  0.00  0.00    +0.054 A 
ATOM      7  C   UNL     1      -8.456   2.994  -2.944  0.00  0.00    +0.015 A 
ATOM      8  S   UNL     1      -7.165   2.204  -3.863  0.00  0.00    -0.057 S 
ATOM      9  C   UNL     1      -9.714   3.633  -3.425  0.00  0.00    +0.047 C 
ATOM     10  C   UNL     1     -10.286   4.487  -2.282  0.00  0.00    -0.009 C 
ATOM     11  C   UNL     1     -10.276   3.658  -0.994  0.00  0.00    +0.010 C 
ATOM     12  C   UNL     1      -8.839   3.449  -0.513  0.00  0.00    +0.056 C 
ATOM     13  C   UNL     1     -11.720   4.900  -2.618  0.00  0.00    +0.008 C 
ATOM     14  H   UNL     1      -4.577   0.837  -3.406  0.00  0.00    +0.157 HD
ENDROOT
BRANCH   1  15
ATOM     15  C   UNL     1      -2.994   0.166  -1.419  0.00  0.00    +0.101 C 
BRANCH  15  16
ATOM     16  C   UNL     1      -2.479   0.024   0.015  0.00  0.00    +0.051 C 
BRANCH  16  19
ATOM     17  C   UNL     1      -0.018   1.503   0.010  0.00  0.00    +0.064 C 
ATOM     18  C   UNL     1       0.002  -0.004   0.002  0.00  0.00    +0.026 A 
ATOM     19  C   UNL     1      -1.156  -0.698   0.004  0.00  0.00    +0.036 A 
ATOM     20  C   UNL     1      -1.111  -2.113  -0.005  0.00  0.00    +0.257 A 
ATOM     21  O   UNL     1      -2.142  -2.761  -0.004  0.00  0.00    -0.267 OA
ATOM     22  N   UNL     1       0.084  -2.737  -0.014  0.00  0.00    -0.275 N 
ATOM     23  H   UNL     1       0.123  -3.706  -0.020  0.00  0.00    +0.173 HD
ATOM     24  C   UNL     1       1.224  -2.020  -0.016  0.00  0.00    +0.327 A 
ATOM     25  O   UNL     1       2.294  -2.597  -0.024  0.00  0.00    -0.247 OA
ATOM     26  N   UNL     1       1.194  -0.675  -0.013  0.00  0.00    -0.311 N 
ATOM     27  H   UNL     1       2.026  -0.177  -0.018  0.00  0.00    +0.170 HD
ENDBRANCH  16  19
ENDBRANCH  15  16
ENDBRANCH   1  15
TORSDOF 3
