REMARK  Name = ZINC63425113
REMARK  13 active torsions:
REMARK  status: ('A' for Active; 'I' for Inactive)
REMARK    1  A    between atoms: C_1  and  C_2
REMARK    2  A    between atoms: C_5  and  C_8
REMARK    3  A    between atoms: C_8  and  S_9
REMARK    4  A    between atoms: S_9  and  C_10
REMARK    5  A    between atoms: C_14  and  C_17
REMARK    6  A    between atoms: C_17  and  C_19
REMARK    7  A    between atoms: C_17  and  N_29
REMARK    8  A    between atoms: C_19  and  C_20
REMARK    9  A    between atoms: C_30  and  O_32
REMARK   10  A    between atoms: O_32  and  C_33
REMARK   11  A    between atoms: C_33  and  C_34
REMARK   12  A    between atoms: C_33  and  C_35
REMARK   13  A    between atoms: C_33  and  C_36
REMARK                            x       y       z     vdW  Elec       q    Type
REMARK                         _______ _______ _______ _____ _____    ______ ____
ROOT
ATOM      1  C   UNL     1      -1.295  -8.476  -1.398  0.00  0.00    +0.125 C 
ENDROOT
BRANCH   1   5
ATOM      2  C   UNL     1       1.655  -7.556   0.493  0.00  0.00    +0.263 C 
ATOM      3  N   UNL     1       2.077  -8.825  -0.143  0.00  0.00    -0.218 NA
ATOM      4  N   UNL     1       1.090  -9.094  -1.191  0.00  0.00    -0.225 NA
ATOM      5  C   UNL     1       0.125  -7.972  -1.134  0.00  0.00    +0.223 C 
ATOM      6  O   UNL     1       0.240  -7.460   0.214  0.00  0.00    -0.330 OA
ATOM      7  H   UNL     1       2.102  -9.576   0.531  0.00  0.00    +0.144 HD
ATOM      8  H   UNL     1       0.628  -9.977  -1.035  0.00  0.00    +0.143 HD
BRANCH   2   9
ATOM      9  S   UNL     1       1.945  -7.617   2.282  0.00  0.00    -0.108 S 
BRANCH   9  10
ATOM     10  C   UNL     1       1.129  -9.149   2.807  0.00  0.00    +0.108 C 
BRANCH  10  15
ATOM     11  C   UNL     1       1.352  -9.580   8.565  0.00  0.00    +0.044 C 
ATOM     12  C   UNL     1       1.294  -9.468   7.064  0.00  0.00    -0.050 A 
ATOM     13  C   UNL     1       0.281  -8.744   6.463  0.00  0.00    +0.003 A 
ATOM     14  C   UNL     1       0.228  -8.640   5.086  0.00  0.00    +0.005 A 
ATOM     15  C   UNL     1       1.188  -9.261   4.309  0.00  0.00    -0.037 A 
ATOM     16  C   UNL     1       2.201  -9.984   4.909  0.00  0.00    +0.005 A 
ATOM     17  C   UNL     1       2.257 -10.084   6.287  0.00  0.00    +0.003 A 
ENDBRANCH  10  15
ENDBRANCH   9  10
ENDBRANCH   2   9
ENDBRANCH   1   5
BRANCH   1  18
ATOM     18  N   UNL     1      -2.254  -7.407  -1.106  0.00  0.00    -0.274 N 
ATOM     19  C   UNL     1      -2.121  -6.203  -1.696  0.00  0.00    +0.401 C 
ATOM     20  O   UNL     1      -1.260  -6.029  -2.535  0.00  0.00    -0.226 OA
ATOM     21  H   UNL     1      -2.985  -7.567  -0.488  0.00  0.00    +0.152 HD
BRANCH  19  22
ATOM     22  O   UNL     1      -2.943  -5.192  -1.355  0.00  0.00    -0.445 OA
BRANCH  22  23
ATOM     23  C   UNL     1      -2.704  -3.926  -1.972  0.00  0.00    +0.107 C 
ATOM     24  C   UNL     1      -2.890  -4.053  -3.486  0.00  0.00    +0.055 C 
ATOM     25  C   UNL     1      -3.692  -2.896  -1.422  0.00  0.00    +0.055 C 
ATOM     26  C   UNL     1      -1.274  -3.472  -1.670  0.00  0.00    +0.055 C 
ENDBRANCH  22  23
ENDBRANCH  19  22
ENDBRANCH   1  18
BRANCH   1  27
ATOM     27  C   UNL     1      -1.425  -8.891  -2.864  0.00  0.00    +0.059 C 
BRANCH  27  28
ATOM     28  C   UNL     1      -2.784  -9.501  -3.095  0.00  0.00    -0.040 C 
ATOM     29  C   UNL     1      -3.889  -8.873  -3.556  0.00  0.00    -0.001 A 
ATOM     30  C   UNL     1      -4.149  -7.487  -3.963  0.00  0.00    +0.010 A 
ATOM     31  C   UNL     1      -5.387  -7.149  -4.390  0.00  0.00    +0.001 A 
ATOM     32  C   UNL     1      -6.426  -8.087  -4.452  0.00  0.00    +0.002 A 
ATOM     33  C   UNL     1      -6.265  -9.379  -4.095  0.00  0.00    +0.026 A 
ATOM     34  C   UNL     1      -5.004  -9.845  -3.632  0.00  0.00    +0.043 A 
ATOM     35  N   UNL     1      -4.603 -11.027  -3.233  0.00  0.00    -0.380 N 
ATOM     36  C   UNL     1      -3.185 -10.941  -2.865  0.00  0.00    +0.144 C 
ATOM     37  H   UNL     1      -5.151 -11.827  -3.192  0.00  0.00    +0.160 HD
ENDBRANCH  27  28
ENDBRANCH   1  27
TORSDOF 9
