REMARK  Name = ZINC28055823
REMARK  8 active torsions:
REMARK  status: ('A' for Active; 'I' for Inactive)
REMARK    1  A    between atoms: C_1  and  O_2
REMARK    2  A    between atoms: O_2  and  C_3
REMARK    3  A    between atoms: C_6  and  C_9
REMARK    4  A    between atoms: C_20  and  C_22
REMARK    5  A    between atoms: C_26  and  O_30
REMARK    6  A    between atoms: C_27  and  O_28
REMARK    7  A    between atoms: O_28  and  C_29
REMARK    8  A    between atoms: O_30  and  C_31
REMARK                            x       y       z     vdW  Elec       q    Type
REMARK                         _______ _______ _______ _____ _____    ______ ____
ROOT
ATOM      1  C   UNL     1       1.552   3.776  -0.074  0.00  0.00    +0.174 C 
ATOM      2  C   UNL     1       1.265   2.297   0.004  0.00  0.00    +0.026 C 
ATOM      3  C   UNL     1       0.024   1.813   0.068  0.00  0.00    +0.050 C 
ATOM      4  C   UNL     1      -0.159   0.343   0.121  0.00  0.00    +0.038 A 
ATOM      5  C   UNL     1      -1.360  -0.227   0.525  0.00  0.00    +0.013 A 
ATOM      6  C   UNL     1      -1.485  -1.602   0.557  0.00  0.00    +0.001 A 
ATOM      7  C   UNL     1      -0.421  -2.409   0.190  0.00  0.00    +0.004 A 
ATOM      8  C   UNL     1       0.778  -1.850  -0.213  0.00  0.00    +0.046 A 
ATOM      9  C   UNL     1       0.917  -0.475  -0.251  0.00  0.00    +0.131 A 
ATOM     10  O   UNL     1       2.077   0.113  -0.638  0.00  0.00    -0.479 OA
ATOM     11  C   UNL     1       2.432   1.336   0.005  0.00  0.00    +0.238 C 
ATOM     12  N   UNL     1      -1.103   2.643   0.094  0.00  0.00    -0.282 N 
ATOM     13  C   UNL     1      -0.892   3.994   0.318  0.00  0.00    +0.240 A 
ATOM     14  N   UNL     1       0.352   4.536   0.248  0.00  0.00    -0.201 N 
ATOM     15  N   UNL     1       0.184   5.890   0.537  0.00  0.00    -0.042 NA
ATOM     16  N   UNL     1      -1.081   6.067   0.747  0.00  0.00    -0.021 NA
ATOM     17  N   UNL     1      -1.718   4.954   0.618  0.00  0.00    -0.092 NA
ATOM     18  H   UNL     1      -2.105   2.216  -0.059  0.00  0.00    +0.155 HD
ENDROOT
BRANCH   1  22
ATOM     19  C   UNL     1       2.836   4.764  -4.029  0.00  0.00    +0.120 A 
ATOM     20  C   UNL     1       3.671   5.003  -2.947  0.00  0.00    +0.046 A 
ATOM     21  C   UNL     1       3.254   4.682  -1.670  0.00  0.00    +0.009 A 
ATOM     22  C   UNL     1       2.004   4.125  -1.469  0.00  0.00    -0.018 A 
ATOM     23  C   UNL     1       1.172   3.881  -2.546  0.00  0.00    +0.009 A 
ATOM     24  C   UNL     1       1.583   4.205  -3.824  0.00  0.00    +0.046 A 
BRANCH  19  26
ATOM     25  C   UNL     1       2.332   4.806  -6.352  0.00  0.00    +0.277 C 
ATOM     26  O   UNL     1       3.244   5.079  -5.286  0.00  0.00    -0.495 OA
ENDBRANCH  19  26
ENDBRANCH   1  22
BRANCH  11  27
ATOM     27  C   UNL     1       2.838   1.049   1.428  0.00  0.00    +0.042 A 
ATOM     28  C   UNL     1       2.392   1.865   2.452  0.00  0.00    +0.011 A 
ATOM     29  C   UNL     1       2.761   1.604   3.758  0.00  0.00    +0.004 A 
ATOM     30  C   UNL     1       3.578   0.526   4.047  0.00  0.00    +0.049 A 
ATOM     31  C   UNL     1       4.029  -0.294   3.026  0.00  0.00    +0.162 A 
ATOM     32  C   UNL     1       3.652  -0.035   1.711  0.00  0.00    +0.168 A 
BRANCH  32  33
ATOM     33  O   UNL     1       4.087  -0.841   0.706  0.00  0.00    -0.491 OA
ATOM     34  C   UNL     1       5.376  -0.556   0.158  0.00  0.00    +0.277 C 
ENDBRANCH  32  33
BRANCH  31  35
ATOM     35  O   UNL     1       4.832  -1.355   3.309  0.00  0.00    -0.491 OA
ATOM     36  C   UNL     1       5.173  -1.563   4.681  0.00  0.00    +0.277 C 
ENDBRANCH  31  35
ENDBRANCH  11  27
TORSDOF 5
