REMARK  Name = ZINC65834453
REMARK  5 active torsions:
REMARK  status: ('A' for Active; 'I' for Inactive)
REMARK    1  A    between atoms: C_3  and  N_22
REMARK    2  A    between atoms: C_6  and  N_7
REMARK    3  A    between atoms: C_8  and  C_10
REMARK    4  A    between atoms: N_12  and  C_13
REMARK    5  A    between atoms: C_16  and  C_20
REMARK                            x       y       z     vdW  Elec       q    Type
REMARK                         _______ _______ _______ _____ _____    ______ ____
ROOT
ATOM      1  N   UNL     1      -1.178  -0.774   0.091  0.00  0.00    -0.278 N 
ATOM      2  C   UNL     1      -1.991  -0.018  -0.673  0.00  0.00    +0.303 C 
ATOM      3  O   UNL     1      -1.565   0.990  -1.200  0.00  0.00    -0.265 OA
ATOM      4  H   UNL     1      -1.494  -1.619   0.448  0.00  0.00    +0.155 HD
ENDROOT
BRANCH   1  10
ATOM      5  C   UNL     1       0.383   1.014   0.536  0.00  0.00    +0.025 A 
ATOM      6  C   UNL     1       1.666   1.442   0.811  0.00  0.00    +0.025 A 
ATOM      7  C   UNL     1       2.697   0.518   0.922  0.00  0.00    +0.030 A 
ATOM      8  C   UNL     1       2.437  -0.837   0.756  0.00  0.00    +0.025 A 
ATOM      9  C   UNL     1       1.154  -1.265   0.481  0.00  0.00    +0.025 A 
ATOM     10  C   UNL     1       0.123  -0.340   0.370  0.00  0.00    +0.034 A 
BRANCH   7  11
ATOM     11  N   UNL     1       3.997   0.951   1.200  0.00  0.00    -0.330 N 
ATOM     12  C   UNL     1       5.076  -0.019   1.432  0.00  0.00    +0.105 C 
ATOM     13  C   UNL     1       6.239   0.301   0.487  0.00  0.00    +0.019 C 
ATOM     14  C   UNL     1       6.656   1.761   0.674  0.00  0.00    +0.003 C 
ATOM     15  C   UNL     1       5.481   2.678   0.323  0.00  0.00    +0.019 C 
ATOM     16  C   UNL     1       4.312   2.385   1.261  0.00  0.00    +0.105 C 
ENDBRANCH   7  11
ENDBRANCH   1  10
BRANCH   2  17
ATOM     17  C   UNL     1      -3.415  -0.418  -0.871  0.00  0.00    +0.303 C 
ATOM     18  O   UNL     1      -3.841  -1.426  -0.344  0.00  0.00    -0.265 OA
ATOM     19  N   UNL     1      -4.228   0.338  -1.634  0.00  0.00    -0.278 N 
ATOM     20  H   UNL     1      -3.907   1.177  -2.001  0.00  0.00    +0.155 HD
BRANCH  19  21
ATOM     21  C   UNL     1      -5.530  -0.085  -1.897  0.00  0.00    +0.035 A 
ATOM     22  C   UNL     1      -6.247  -0.770  -0.920  0.00  0.00    +0.024 A 
ATOM     23  C   UNL     1      -7.533  -1.190  -1.176  0.00  0.00    +0.022 A 
ATOM     24  C   UNL     1      -8.119  -0.927  -2.418  0.00  0.00    +0.070 A 
ATOM     25  C   UNL     1      -7.396  -0.239  -3.397  0.00  0.00    +0.060 A 
ATOM     26  C   UNL     1      -6.110   0.183  -3.132  0.00  0.00    +0.044 A 
ATOM     27 CL   UNL     1      -8.117   0.090  -4.941  0.00  0.00    -0.082 Cl
BRANCH  24  28
ATOM     28  C   UNL     1      -9.457  -1.363  -2.687  0.00  0.00    +0.101 C 
ATOM     29  N   UNL     1     -10.518  -1.708  -2.900  0.00  0.00    -0.191 NA
ENDBRANCH  24  28
ENDBRANCH  19  21
ENDBRANCH   2  17
TORSDOF 5
