REMARK  Name = ZINC58244942
REMARK  6 active torsions:
REMARK  status: ('A' for Active; 'I' for Inactive)
REMARK    1  A    between atoms: C_1  and  C_2
REMARK    2  A    between atoms: C_4  and  C_16
REMARK    3  A    between atoms: C_6  and  C_11
REMARK    4  A    between atoms: N_18  and  C_19
REMARK    5  A    between atoms: N_18  and  C_25
REMARK    6  A    between atoms: C_19  and  C_20
REMARK                            x       y       z     vdW  Elec       q    Type
REMARK                         _______ _______ _______ _____ _____    ______ ____
ROOT
ATOM      1  C   UNL     1      -2.656   0.893  -1.255  0.00  0.00    +0.070 C 
ATOM      2  C   UNL     1      -2.147  -0.511  -1.054  0.00  0.00    +0.091 A 
ATOM      3  C   UNL     1      -1.024  -1.133  -1.753  0.00  0.00    +0.076 A 
ATOM      4  C   UNL     1      -0.124  -0.689  -2.746  0.00  0.00    +0.053 A 
ATOM      5  C   UNL     1       0.848  -1.579  -3.188  0.00  0.00    +0.045 A 
ATOM      6  C   UNL     1       0.895  -2.866  -2.637  0.00  0.00    +0.111 A 
ATOM      7  N   UNL     1       0.032  -3.249  -1.706  0.00  0.00    -0.207 NA
ATOM      8  C   UNL     1      -0.911  -2.441  -1.250  0.00  0.00    +0.260 A 
ATOM      9  O   UNL     1      -1.884  -2.591  -0.328  0.00  0.00    -0.334 OA
ATOM     10  N   UNL     1      -2.623  -1.391  -0.225  0.00  0.00    -0.080 NA
ENDROOT
BRANCH   6  11
ATOM     11  C   UNL     1       1.924  -3.814  -3.103  0.00  0.00    +0.153 A 
ATOM     12  C   UNL     1       2.030  -5.122  -2.739  0.00  0.00    +0.051 A 
ATOM     13  C   UNL     1       3.147  -5.643  -3.417  0.00  0.00    +0.042 A 
ATOM     14  C   UNL     1       3.664  -4.640  -4.156  0.00  0.00    +0.196 A 
ATOM     15  O   UNL     1       2.920  -3.539  -3.968  0.00  0.00    -0.461 OA
ENDBRANCH   6  11
BRANCH   4  16
ATOM     16  C   UNL     1      -0.213   0.680  -3.299  0.00  0.00    +0.252 C 
ATOM     17  O   UNL     1      -0.116   1.641  -2.561  0.00  0.00    -0.270 OA
ATOM     18  N   UNL     1      -0.401   0.862  -4.621  0.00  0.00    -0.262 N 
BRANCH  18  19
ATOM     19  C   UNL     1      -0.555   2.154  -5.134  0.00  0.00    +0.055 A 
ATOM     20  C   UNL     1      -0.376   3.266  -4.315  0.00  0.00    +0.026 A 
ATOM     21  C   UNL     1      -0.540   4.524  -4.869  0.00  0.00    +0.021 A 
ATOM     22  C   UNL     1      -0.874   4.635  -6.206  0.00  0.00    +0.111 A 
ATOM     23  N   UNL     1      -1.037   3.562  -6.955  0.00  0.00    -0.261 NA
ATOM     24  C   UNL     1      -0.884   2.347  -6.470  0.00  0.00    +0.134 A 
ENDBRANCH  18  19
BRANCH  18  25
ATOM     25  C   UNL     1      -0.443  -0.294  -5.521  0.00  0.00    +0.149 C 
BRANCH  25  26
ATOM     26  C   UNL     1      -1.863  -0.784  -5.643  0.00  0.00    -0.023 A 
ATOM     27  C   UNL     1      -2.353  -1.736  -4.769  0.00  0.00    +0.013 A 
ATOM     28  C   UNL     1      -3.635  -2.156  -4.906  0.00  0.00    +0.045 A 
ATOM     29  S   UNL     1      -4.191  -1.194  -6.303  0.00  0.00    -0.105 S 
ATOM     30  C   UNL     1      -2.679  -0.293  -6.607  0.00  0.00    +0.050 A 
ENDBRANCH  25  26
ENDBRANCH  18  25
ENDBRANCH   4  16
TORSDOF 5
