REMARK  Name = ZINC15823898
REMARK  4 active torsions:
REMARK  status: ('A' for Active; 'I' for Inactive)
REMARK    1  A    between atoms: C_1  and  N_2
REMARK    2  A    between atoms: C_4  and  C_11
REMARK    3  A    between atoms: N_13  and  N_14
REMARK    4  A    between atoms: C_15  and  C_17
REMARK                            x       y       z     vdW  Elec       q    Type
REMARK                         _______ _______ _______ _____ _____    ______ ____
ROOT
ATOM      1  C   UNL     1       0.039  -3.239  -1.684  0.00  0.00    +0.262 C 
ATOM      2  O   UNL     1       0.056  -4.371  -1.239  0.00  0.00    -0.269 OA
ATOM      3  N   UNL     1       0.031  -3.039  -3.017  0.00  0.00    -0.230 N 
ATOM      4  H   UNL     1       0.018  -2.136  -3.372  0.00  0.00    +0.173 HD
ENDROOT
BRANCH   1   8
ATOM      5  C   UNL     1      -0.018   1.461   0.010  0.00  0.00    +0.149 C 
ATOM      6  N   UNL     1       0.002  -0.004   0.002  0.00  0.00    -0.349 N 
ATOM      7  C   UNL     1       0.008  -0.771  -1.115  0.00  0.00    +0.099 A 
ATOM      8  C   UNL     1       0.027  -2.090  -0.769  0.00  0.00    +0.063 A 
ATOM      9  C   UNL     1       0.034  -2.135   0.705  0.00  0.00    +0.012 A 
ATOM     10  C   UNL     1       0.024  -0.797   1.131  0.00  0.00    +0.050 A 
ATOM     11  C   UNL     1       0.033  -0.515   2.493  0.00  0.00    +0.026 A 
ATOM     12  C   UNL     1       0.055  -1.545   3.408  0.00  0.00    +0.002 A 
ATOM     13  C   UNL     1       0.069  -2.866   2.986  0.00  0.00    +0.001 A 
ATOM     14  C   UNL     1       0.052  -3.166   1.641  0.00  0.00    +0.011 A 
ENDBRANCH   1   8
BRANCH   3  15
ATOM     15  N   UNL     1       0.042  -4.135  -3.890  0.00  0.00    -0.229 N 
ATOM     16  C   UNL     1       0.035  -3.935  -5.223  0.00  0.00    +0.280 C 
ATOM     17  O   UNL     1       0.018  -2.804  -5.667  0.00  0.00    -0.267 OA
ATOM     18  H   UNL     1       0.056  -5.037  -3.535  0.00  0.00    +0.173 HD
BRANCH  16  19
ATOM     19  C   UNL     1       0.046  -5.093  -6.145  0.00  0.00    +0.147 A 
ATOM     20  C   UNL     1       0.044  -4.879  -7.523  0.00  0.00    +0.072 A 
ATOM     21  C   UNL     1       0.055  -5.975  -8.375  0.00  0.00    +0.025 A 
ATOM     22  C   UNL     1       0.068  -7.244  -7.820  0.00  0.00    +0.041 A 
ATOM     23  C   UNL     1       0.070  -7.382  -6.439  0.00  0.00    +0.130 A 
ATOM     24  N   UNL     1       0.065  -6.326  -5.654  0.00  0.00    -0.229 NA
ATOM     25 CL   UNL     1       0.086  -8.970  -5.738  0.00  0.00    -0.062 Cl
ATOM     26 CL   UNL     1       0.026  -3.266  -8.164  0.00  0.00    -0.081 Cl
ENDBRANCH  16  19
ENDBRANCH   3  15
TORSDOF 3
