REMARK  Name = ZINC67000497
REMARK  8 active torsions:
REMARK  status: ('A' for Active; 'I' for Inactive)
REMARK    1  A    between atoms: C_1  and  N_2
REMARK    2  A    between atoms: C_3  and  C_5
REMARK    3  A    between atoms: C_5  and  C_6
REMARK    4  A    between atoms: C_11  and  N_12
REMARK    5  A    between atoms: C_13  and  C_15
REMARK    6  A    between atoms: N_17  and  C_18
REMARK    7  A    between atoms: C_18  and  C_19
REMARK    8  A    between atoms: C_19  and  O_29
REMARK                            x       y       z     vdW  Elec       q    Type
REMARK                         _______ _______ _______ _____ _____    ______ ____
ROOT
ATOM      1  C   UNL     1       5.543  -2.391   0.130  0.00  0.00    +0.299 C 
ATOM      2  O   UNL     1       4.973  -1.997   1.127  0.00  0.00    -0.265 OA
ATOM      3  N   UNL     1       6.874  -2.598   0.152  0.00  0.00    -0.305 N 
ATOM      4  H   UNL     1       7.329  -2.913  -0.645  0.00  0.00    +0.149 HD
ENDROOT
BRANCH   1   6
ATOM      5  N   UNL     1       3.436  -2.441  -1.142  0.00  0.00    -0.277 N 
ATOM      6  C   UNL     1       4.768  -2.647  -1.121  0.00  0.00    +0.303 C 
ATOM      7  O   UNL     1       5.337  -3.041  -2.118  0.00  0.00    -0.265 OA
ATOM      8  H   UNL     1       2.991  -2.064  -0.367  0.00  0.00    +0.155 HD
BRANCH   5  14
ATOM      9  C   UNL     1       1.403  -3.259  -2.155  0.00  0.00    -0.017 A 
ATOM     10  C   UNL     1       0.673  -3.577  -3.283  0.00  0.00    +0.006 A 
ATOM     11  C   UNL     1       1.230  -3.412  -4.538  0.00  0.00    +0.000 A 
ATOM     12  C   UNL     1       2.520  -2.929  -4.668  0.00  0.00    +0.002 A 
ATOM     13  C   UNL     1       3.255  -2.610  -3.544  0.00  0.00    +0.023 A 
ATOM     14  C   UNL     1       2.696  -2.768  -2.281  0.00  0.00    +0.037 A 
BRANCH   9  15
ATOM     15  C   UNL     1       0.795  -3.439  -0.787  0.00  0.00    +0.132 C 
BRANCH  15  18
ATOM     16  C   UNL     1      -1.002  -0.792   1.315  0.00  0.00    +0.128 C 
ATOM     17  N   UNL     1      -0.414  -2.058   0.871  0.00  0.00    -0.318 N 
ATOM     18  C   UNL     1       0.191  -2.136  -0.331  0.00  0.00    +0.217 C 
ATOM     19  O   UNL     1       0.247  -1.158  -1.046  0.00  0.00    -0.275 OA
ATOM     20  H   UNL     1      -0.459  -2.841   1.443  0.00  0.00    +0.148 HD
ENDBRANCH  15  18
ENDBRANCH   9  15
ENDBRANCH   5  14
ENDBRANCH   1   6
BRANCH   3  21
ATOM     21  C   UNL     1       7.635  -2.347   1.378  0.00  0.00    +0.144 C 
BRANCH  21  22
ATOM     22  C   UNL     1       9.127  -2.536   1.101  0.00  0.00    +0.107 C 
ATOM     23  C   UNL     1       9.534  -1.661  -0.084  0.00  0.00    +0.041 C 
ATOM     24  C   UNL     1      11.062  -1.696  -0.208  0.00  0.00    +0.008 C 
ATOM     25  C   UNL     1      11.658  -0.932   0.973  0.00  0.00    +0.035 C 
ATOM     26  C   UNL     1      11.077  -1.427   2.271  0.00  0.00    -0.041 A 
ATOM     27  C   UNL     1       9.913  -2.160   2.330  0.00  0.00    -0.011 A 
ATOM     28  C   UNL     1       9.427  -2.581   3.561  0.00  0.00    +0.007 A 
ATOM     29  C   UNL     1      10.103  -2.274   4.724  0.00  0.00    +0.000 A 
ATOM     30  C   UNL     1      11.273  -1.542   4.665  0.00  0.00    +0.000 A 
ATOM     31  C   UNL     1      11.757  -1.121   3.443  0.00  0.00    +0.004 A 
BRANCH  22  32
ATOM     32  O   UNL     1       9.378  -3.906   0.782  0.00  0.00    -0.382 OA
ATOM     33  H   UNL     1       9.136  -4.524   1.485  0.00  0.00    +0.211 HD
ENDBRANCH  22  32
ENDBRANCH  21  22
ENDBRANCH   3  21
TORSDOF 7
