REMARK  Name = ZINC02869839
REMARK  7 active torsions:
REMARK  status: ('A' for Active; 'I' for Inactive)
REMARK    1  A    between atoms: C_1  and  C_2
REMARK    2  A    between atoms: C_3  and  N_15
REMARK    3  A    between atoms: N_6  and  C_9
REMARK    4  A    between atoms: N_7  and  C_8
REMARK    5  A    between atoms: N_15  and  C_16
REMARK    6  A    between atoms: N_26  and  C_29
REMARK    7  A    between atoms: C_33  and  C_35
REMARK                            x       y       z     vdW  Elec       q    Type
REMARK                         _______ _______ _______ _____ _____    ______ ____
ROOT
ATOM      1  C   UNL     1       0.176  -1.267  -2.958  0.00  0.00    +0.086 C 
ATOM      2  C   UNL     1       0.326  -0.973  -4.297  0.00  0.00    +0.059 C 
ATOM      3  C   UNL     1       0.271   0.421  -4.781  0.00  0.00    +0.000 A 
ATOM      4  C   UNL     1       0.067   1.489  -3.915  0.00  0.00    +0.009 A 
ATOM      5  C   UNL     1       0.024   2.774  -4.416  0.00  0.00    +0.001 A 
ATOM      6  C   UNL     1       0.182   3.007  -5.775  0.00  0.00    +0.001 A 
ATOM      7  C   UNL     1       0.386   1.961  -6.649  0.00  0.00    +0.014 A 
ATOM      8  C   UNL     1       0.433   0.654  -6.163  0.00  0.00    +0.046 A 
ATOM      9  C   UNL     1       0.648  -0.488  -7.060  0.00  0.00    +0.258 C 
ATOM     10  O   UNL     1       0.788  -0.294  -8.253  0.00  0.00    -0.269 OA
ATOM     11  N   UNL     1       0.692  -1.744  -6.585  0.00  0.00    -0.202 N 
ATOM     12  C   UNL     1       0.552  -2.036  -5.282  0.00  0.00    +0.259 C 
ATOM     13  O   UNL     1       0.607  -3.196  -4.915  0.00  0.00    -0.269 OA
ENDROOT
BRANCH  11  14
ATOM     14  C   UNL     1       0.900  -2.794  -7.489  0.00  0.00    +0.045 A 
ATOM     15  C   UNL     1       2.109  -2.903  -8.163  0.00  0.00    +0.024 A 
ATOM     16  C   UNL     1       2.311  -3.940  -9.053  0.00  0.00    +0.002 A 
ATOM     17  C   UNL     1       1.311  -4.869  -9.273  0.00  0.00    +0.012 A 
ATOM     18  C   UNL     1       0.106  -4.763  -8.603  0.00  0.00    +0.057 A 
ATOM     19  C   UNL     1      -0.100  -3.732  -7.707  0.00  0.00    +0.036 A 
BRANCH  18  20
ATOM     20  C   UNL     1      -0.982  -5.777  -8.847  0.00  0.00    +0.417 C 
ATOM     21  F   UNL     1      -0.541  -6.719  -9.782  0.00  0.00    -0.166 F 
ATOM     22  F   UNL     1      -1.294  -6.423  -7.646  0.00  0.00    -0.166 F 
ATOM     23  F   UNL     1      -2.121  -5.130  -9.338  0.00  0.00    -0.166 F 
ENDBRANCH  18  20
ENDBRANCH  11  14
BRANCH   1  24
ATOM     24  N   UNL     1      -0.536  -0.440  -2.161  0.00  0.00    -0.314 N 
ATOM     25  H   UNL     1      -1.032   0.299  -2.548  0.00  0.00    +0.152 HD
BRANCH  24  28
ATOM     26  C   UNL     1      -2.076   1.300  -0.157  0.00  0.00    +0.067 C 
ATOM     27  C   UNL     1      -1.225   0.093   0.143  0.00  0.00    +0.059 A 
ATOM     28  C   UNL     1      -0.559  -0.650  -0.771  0.00  0.00    +0.119 A 
ATOM     29  C   UNL     1       0.132  -1.715  -0.042  0.00  0.00    +0.293 A 
ATOM     30  O   UNL     1       0.836  -2.585  -0.523  0.00  0.00    -0.264 OA
ATOM     31  N   UNL     1      -0.158  -1.549   1.265  0.00  0.00    -0.216 N 
ATOM     32  N   UNL     1      -0.991  -0.430   1.386  0.00  0.00    -0.282 N 
ATOM     33  C   UNL     1      -1.530   0.095   2.643  0.00  0.00    +0.171 C 
BRANCH  31  34
ATOM     34  C   UNL     1       0.297  -2.351   2.316  0.00  0.00    +0.067 A 
ATOM     35  C   UNL     1      -0.609  -2.914   3.205  0.00  0.00    +0.028 A 
ATOM     36  C   UNL     1      -0.155  -3.705   4.242  0.00  0.00    +0.002 A 
ATOM     37  C   UNL     1       1.199  -3.938   4.395  0.00  0.00    +0.000 A 
ATOM     38  C   UNL     1       2.104  -3.379   3.512  0.00  0.00    +0.002 A 
ATOM     39  C   UNL     1       1.657  -2.591   2.469  0.00  0.00    +0.028 A 
ENDBRANCH  31  34
ENDBRANCH  24  28
ENDBRANCH   1  24
TORSDOF 5
