REMARK  Name = ZINC58885561
REMARK  10 active torsions:
REMARK  status: ('A' for Active; 'I' for Inactive)
REMARK    1  A    between atoms: C_1  and  C_2
REMARK    2  A    between atoms: N_5  and  C_8
REMARK    3  A    between atoms: C_8  and  C_10
REMARK    4  A    between atoms: C_8  and  C_29
REMARK    5  A    between atoms: C_10  and  N_11
REMARK    6  A    between atoms: N_14  and  C_15
REMARK    7  A    between atoms: C_19  and  N_21
REMARK    8  A    between atoms: C_22  and  C_24
REMARK    9  A    between atoms: C_29  and  C_30
REMARK   10  A    between atoms: C_29  and  C_31
REMARK                            x       y       z     vdW  Elec       q    Type
REMARK                         _______ _______ _______ _____ _____    ______ ____
ROOT
ATOM      1  N   UNL     1       1.885  -3.789   2.361  0.00  0.00    -0.301 N 
ATOM      2  C   UNL     1       2.401  -4.154   3.551  0.00  0.00    +0.304 C 
ATOM      3  O   UNL     1       3.403  -4.841   3.595  0.00  0.00    -0.253 OA
ATOM      4  N   UNL     1       1.805  -3.759   4.693  0.00  0.00    -0.269 N 
ATOM      5  H   UNL     1       1.086  -3.241   2.326  0.00  0.00    +0.150 HD
ATOM      6  H   UNL     1       0.960  -3.283   4.660  0.00  0.00    +0.156 HD
ENDROOT
BRANCH   4   7
ATOM      7  C   UNL     1       2.405  -4.034   5.927  0.00  0.00    +0.037 A 
ATOM      8  C   UNL     1       1.617  -4.320   7.035  0.00  0.00    +0.023 A 
ATOM      9  C   UNL     1       2.208  -4.591   8.254  0.00  0.00    +0.004 A 
ATOM     10  C   UNL     1       3.584  -4.581   8.375  0.00  0.00    +0.023 A 
ATOM     11  C   UNL     1       4.378  -4.297   7.271  0.00  0.00    +0.035 A 
ATOM     12  C   UNL     1       3.787  -4.029   6.044  0.00  0.00    +0.046 A 
BRANCH  11  13
ATOM     13  N   UNL     1       5.771  -4.286   7.394  0.00  0.00    -0.281 N 
ATOM     14  C   UNL     1       6.379  -5.147   8.234  0.00  0.00    +0.255 C 
ATOM     15  O   UNL     1       5.729  -6.003   8.805  0.00  0.00    -0.269 OA
ATOM     16  H   UNL     1       6.299  -3.660   6.875  0.00  0.00    +0.155 HD
BRANCH  14  17
ATOM     17  C   UNL     1       7.824  -5.053   8.460  0.00  0.00    +0.074 A 
ATOM     18  C   UNL     1       8.636  -5.834   9.269  0.00  0.00    +0.021 A 
ATOM     19  C   UNL     1       9.969  -5.501   9.276  0.00  0.00    +0.008 A 
ATOM     20  C   UNL     1      10.393  -4.462   8.515  0.00  0.00    +0.046 A 
ATOM     21  S   UNL     1       8.998  -3.909   7.759  0.00  0.00    -0.092 S 
ENDBRANCH  14  17
ENDBRANCH  11  13
ENDBRANCH   4   7
BRANCH   1  22
ATOM     22  C   UNL     1       2.533  -4.219   1.119  0.00  0.00    +0.091 C 
BRANCH  22  23
ATOM     23  C   UNL     1       1.769  -3.650  -0.078  0.00  0.00    -0.048 C 
BRANCH  23  28
ATOM     24  C   UNL     1       3.264   1.813   0.587  0.00  0.00    +0.007 C 
ATOM     25  C   UNL     1       3.105   0.304   0.782  0.00  0.00    -0.018 C 
ATOM     26  C   UNL     1       1.620  -0.039   0.932  0.00  0.00    -0.016 C 
ATOM     27  C   UNL     1       1.461  -1.556   1.047  0.00  0.00    -0.078 C 
ATOM     28  N   UNL     1       1.994  -2.201  -0.159  0.00  0.00    +0.383 N 
ATOM     29  C   UNL     1       3.433  -1.936  -0.271  0.00  0.00    -0.078 C 
ATOM     30  C   UNL     1       3.668  -0.433  -0.437  0.00  0.00    -0.016 C 
ATOM     31  H   UNL     1       1.522  -1.834  -0.972  0.00  0.00    -0.081 HD
ENDBRANCH  23  28
BRANCH  23  32
ATOM     32  C   UNL     1       2.266  -4.316  -1.363  0.00  0.00    -0.029 C 
ATOM     33  C   UNL     1       1.918  -5.805  -1.334  0.00  0.00    +0.005 C 
ATOM     34  C   UNL     1       1.594  -3.659  -2.571  0.00  0.00    +0.005 C 
ENDBRANCH  23  32
ENDBRANCH  22  23
ENDBRANCH   1  22
TORSDOF 7
