REMARK  Name = ZINC35476836
REMARK  9 active torsions:
REMARK  status: ('A' for Active; 'I' for Inactive)
REMARK    1  A    between atoms: C_1  and  C_2
REMARK    2  A    between atoms: N_8  and  C_9
REMARK    3  A    between atoms: C_9  and  C_11
REMARK    4  A    between atoms: C_9  and  C_19
REMARK    5  A    between atoms: C_14  and  O_17
REMARK    6  A    between atoms: O_17  and  C_18
REMARK    7  A    between atoms: C_21  and  C_33
REMARK    8  A    between atoms: C_23  and  N_24
REMARK    9  A    between atoms: C_25  and  C_27
REMARK                            x       y       z     vdW  Elec       q    Type
REMARK                         _______ _______ _______ _____ _____    ______ ____
ROOT
ATOM      1  C   UNL     1      -0.042  -2.088   3.577  0.00  0.00    +0.135 C 
ENDROOT
BRANCH   1   9
ATOM      2  C   UNL     1      -3.179  -6.025   4.551  0.00  0.00    +0.044 C 
ATOM      3  C   UNL     1      -2.411  -5.545   3.346  0.00  0.00    -0.046 A 
ATOM      4  C   UNL     1      -2.501  -6.216   2.134  0.00  0.00    +0.021 A 
ATOM      5  C   UNL     1      -1.785  -5.751   1.049  0.00  0.00    +0.084 A 
ATOM      6  N   UNL     1      -1.020  -4.681   1.152  0.00  0.00    -0.350 N 
ATOM      7  C   UNL     1      -0.906  -4.015   2.291  0.00  0.00    +0.097 A 
ATOM      8  C   UNL     1      -1.604  -4.424   3.422  0.00  0.00    +0.045 A 
ATOM      9  N   UNL     1      -0.088  -2.893   2.354  0.00  0.00    -0.320 N 
ATOM     10  H   UNL     1       0.453  -2.644   1.589  0.00  0.00    +0.148 HD
ATOM     11  H   UNL     1      -0.527  -4.375   0.374  0.00  0.00    +0.166 HD
ENDBRANCH   1   9
BRANCH   1  12
ATOM     12  C   UNL     1       1.237  -1.292   3.607  0.00  0.00    -0.023 A 
ATOM     13  C   UNL     1       1.646  -0.601   2.482  0.00  0.00    +0.009 A 
ATOM     14  C   UNL     1       2.819   0.129   2.507  0.00  0.00    +0.046 A 
ATOM     15  C   UNL     1       3.586   0.168   3.663  0.00  0.00    +0.120 A 
ATOM     16  C   UNL     1       3.173  -0.526   4.790  0.00  0.00    +0.046 A 
ATOM     17  C   UNL     1       1.997  -1.250   4.762  0.00  0.00    +0.009 A 
BRANCH  15  18
ATOM     18  O   UNL     1       4.740   0.885   3.690  0.00  0.00    -0.495 OA
ATOM     19  C   UNL     1       5.479   0.880   4.913  0.00  0.00    +0.277 C 
ENDBRANCH  15  18
ENDBRANCH   1  12
BRANCH   1  20
ATOM     20  C   UNL     1      -1.220  -1.148   3.603  0.00  0.00    +0.006 A 
ATOM     21  C   UNL     1      -1.814  -0.730   2.427  0.00  0.00    +0.018 A 
ATOM     22  C   UNL     1      -2.870   0.116   2.486  0.00  0.00    -0.011 A 
ATOM     23  S   UNL     1      -3.060   0.352   4.245  0.00  0.00    -0.078 S 
ATOM     24  C   UNL     1      -1.722  -0.698   4.788  0.00  0.00    +0.077 A 
ATOM     25  C   UNL     1      -3.677   0.705   1.358  0.00  0.00    +0.051 C 
BRANCH  24  26
ATOM     26  N   UNL     1      -1.298  -0.982   6.087  0.00  0.00    -0.276 N 
ATOM     27  C   UNL     1      -1.934  -0.430   7.139  0.00  0.00    +0.249 C 
ATOM     28  O   UNL     1      -2.877   0.315   6.957  0.00  0.00    -0.270 OA
ATOM     29  H   UNL     1      -0.545  -1.576   6.233  0.00  0.00    +0.156 HD
BRANCH  27  30
ATOM     30  C   UNL     1      -1.486  -0.730   8.515  0.00  0.00    +0.037 A 
ATOM     31  C   UNL     1      -0.399  -1.581   8.728  0.00  0.00    +0.013 A 
ATOM     32  C   UNL     1       0.015  -1.857  10.015  0.00  0.00    +0.001 A 
ATOM     33  C   UNL     1      -0.644  -1.293  11.093  0.00  0.00    +0.000 A 
ATOM     34  C   UNL     1      -1.722  -0.449  10.889  0.00  0.00    +0.001 A 
ATOM     35  C   UNL     1      -2.143  -0.160   9.607  0.00  0.00    +0.013 A 
ENDBRANCH  27  30
ENDBRANCH  24  26
ENDBRANCH   1  20
TORSDOF 6
