REMARK  Name = ZINC15885162
REMARK  6 active torsions:
REMARK  status: ('A' for Active; 'I' for Inactive)
REMARK    1  A    between atoms: C_1  and  O_2
REMARK    2  A    between atoms: O_2  and  C_3
REMARK    3  A    between atoms: C_6  and  N_9
REMARK    4  A    between atoms: C_14  and  C_18
REMARK    5  A    between atoms: N_20  and  N_21
REMARK    6  A    between atoms: N_21  and  C_22
REMARK                            x       y       z     vdW  Elec       q    Type
REMARK                         _______ _______ _______ _____ _____    ______ ____
ROOT
ATOM      1  N   UNL     1       2.458  -2.457  -4.301  0.00  0.00    -0.321 N 
ATOM      2  C   UNL     1       3.104  -1.789  -5.434  0.00  0.00    +0.141 C 
ATOM      3  C   UNL     1       3.632  -2.859  -6.358  0.00  0.00    -0.025 A 
ATOM      4  C   UNL     1       4.317  -2.766  -7.559  0.00  0.00    +0.006 A 
ATOM      5  C   UNL     1       4.700  -3.908  -8.231  0.00  0.00    +0.013 A 
ATOM      6  C   UNL     1       4.396  -5.162  -7.698  0.00  0.00    +0.038 A 
ATOM      7  C   UNL     1       3.707  -5.249  -6.488  0.00  0.00    +0.018 A 
ATOM      8  C   UNL     1       3.328  -4.097  -5.825  0.00  0.00    -0.025 A 
ATOM      9  C   UNL     1       2.592  -3.900  -4.523  0.00  0.00    +0.141 C 
ENDROOT
BRANCH   1  13
ATOM     10  C   UNL     1       0.606  -0.608  -1.056  0.00  0.00    +0.120 A 
ATOM     11  C   UNL     1       1.173   0.162  -2.062  0.00  0.00    +0.047 A 
ATOM     12  C   UNL     1       1.786  -0.451  -3.137  0.00  0.00    +0.027 A 
ATOM     13  C   UNL     1       1.836  -1.836  -3.212  0.00  0.00    +0.030 A 
ATOM     14  C   UNL     1       1.269  -2.605  -2.204  0.00  0.00    +0.027 A 
ATOM     15  C   UNL     1       0.660  -1.992  -1.127  0.00  0.00    +0.047 A 
BRANCH  10  17
ATOM     16  C   UNL     1      -0.017   1.425   0.010  0.00  0.00    +0.277 C 
ATOM     17  O   UNL     1       0.002  -0.004   0.002  0.00  0.00    -0.495 OA
ENDBRANCH  10  17
ENDBRANCH   1  13
BRANCH   6  18
ATOM     18  C   UNL     1       4.803  -6.391  -8.411  0.00  0.00    +0.260 C 
ATOM     19  O   UNL     1       4.537  -7.481  -7.944  0.00  0.00    -0.269 OA
ATOM     20  N   UNL     1       5.468  -6.303  -9.580  0.00  0.00    -0.233 N 
ATOM     21  H   UNL     1       5.680  -5.433  -9.953  0.00  0.00    +0.173 HD
BRANCH  20  22
ATOM     22  N   UNL     1       5.853  -7.468 -10.256  0.00  0.00    -0.271 N 
ATOM     23  H   UNL     1       5.641  -8.338  -9.884  0.00  0.00    +0.169 HD
BRANCH  22  24
ATOM     24  C   UNL     1       6.516  -7.380 -11.421  0.00  0.00    +0.099 C 
ATOM     25  C   UNL     1       6.900  -8.540 -12.094  0.00  0.00    +0.037 C 
ATOM     26  C   UNL     1       6.587  -9.809 -11.556  0.00  0.00    +0.017 C 
ATOM     27  C   UNL     1       6.960 -10.934 -12.213  0.00  0.00    +0.051 C 
ATOM     28  C   UNL     1       7.662 -10.844 -13.432  0.00  0.00    +0.183 C 
ATOM     29  O   UNL     1       7.997 -11.865 -14.020  0.00  0.00    -0.288 OA
ATOM     30  C   UNL     1       7.978  -9.589 -13.975  0.00  0.00    +0.102 C 
ATOM     31  C   UNL     1       7.600  -8.450 -13.325  0.00  0.00    +0.191 C 
ATOM     32  O   UNL     1       7.899  -7.237 -13.850  0.00  0.00    -0.287 OA
ENDBRANCH  22  24
ENDBRANCH  20  22
ENDBRANCH   6  18
TORSDOF 5
