REMARK  Name = ZINC57680858
REMARK  3 active torsions:
REMARK  status: ('A' for Active; 'I' for Inactive)
REMARK    1  A    between atoms: C_11  and  N_13
REMARK    2  A    between atoms: N_13  and  C_14
REMARK    3  A    between atoms: C_15  and  N_22
REMARK                            x       y       z     vdW  Elec       q    Type
REMARK                         _______ _______ _______ _____ _____    ______ ____
ROOT
ATOM      1  N   UNL     1       3.342   3.513  -0.770  0.00  0.00    -0.319 N 
ATOM      2  H   UNL     1       3.595   3.563  -1.705  0.00  0.00    +0.148 HD
ENDROOT
BRANCH   1  13
ATOM      3  C   UNL     1      -0.017   1.379   0.010  0.00  0.00    +0.003 A 
ATOM      4  C   UNL     1       1.166   2.086   0.002  0.00  0.00    +0.007 A 
ATOM      5  C   UNL     1       2.395   1.430  -0.018  0.00  0.00    -0.011 A 
ATOM      6  C   UNL     1       2.412   0.048  -0.041  0.00  0.00    +0.048 A 
ATOM      7  C   UNL     1       1.212  -0.667  -0.022  0.00  0.00    +0.137 A 
ATOM      8  C   UNL     1       0.002  -0.004   0.002  0.00  0.00    +0.039 A 
ATOM      9  F   UNL     1       1.237  -2.018  -0.027  0.00  0.00    -0.204 F 
ATOM     10  S   UNL     1       3.919  -0.868  -0.113  0.00  0.00    -0.122 S 
ATOM     11  C   UNL     1       5.187   0.382   0.254  0.00  0.00    +0.076 C 
ATOM     12  C   UNL     1       4.851   1.626  -0.582  0.00  0.00    +0.038 C 
ATOM     13  C   UNL     1       3.619   2.297  -0.001  0.00  0.00    +0.104 C 
ENDBRANCH   1  13
BRANCH   1  14
ATOM     14  C   UNL     1       2.712   4.605  -0.153  0.00  0.00    +0.170 A 
ATOM     15  C   UNL     1       2.397   5.774  -0.747  0.00  0.00    +0.242 A 
ATOM     16  N   UNL     1       1.785   6.584   0.213  0.00  0.00    -0.273 N 
ATOM     17  C   UNL     1       1.238   7.846   0.296  0.00  0.00    +0.102 A 
ATOM     18  C   UNL     1       0.723   8.293   1.441  0.00  0.00    +0.067 A 
ATOM     19  S   UNL     1       0.987   6.902   2.530  0.00  0.00    -0.058 S 
ATOM     20  C   UNL     1       1.772   5.826   1.353  0.00  0.00    +0.181 A 
ATOM     21  N   UNL     1       2.313   4.662   1.129  0.00  0.00    -0.204 NA
BRANCH  15  22
ATOM     22  N   UNL     1       2.655   6.136  -2.167  0.00  0.00    +0.077 N 
ATOM     23  O   UNL     1       3.695   6.672  -2.474  0.00  0.00    -0.125 OA
ATOM     24  O   UNL     1       1.826   5.895  -3.013  0.00  0.00    -0.125 OA
ENDBRANCH  15  22
ENDBRANCH   1  14
TORSDOF 3
