REMARK  Name = ZINC12760031
REMARK  6 active torsions:
REMARK  status: ('A' for Active; 'I' for Inactive)
REMARK    1  A    between atoms: C_1  and  C_2
REMARK    2  A    between atoms: C_5  and  C_8
REMARK    3  A    between atoms: C_8  and  C_10
REMARK    4  A    between atoms: C_8  and  N_15
REMARK    5  A    between atoms: N_18  and  C_19
REMARK    6  A    between atoms: N_27  and  C_30
REMARK                            x       y       z     vdW  Elec       q    Type
REMARK                         _______ _______ _______ _____ _____    ______ ____
ROOT
ATOM      1  N   UNL     1      -2.205   5.058  -0.876  0.00  0.00    -0.288 N 
ATOM      2  C   UNL     1      -2.059   5.262  -2.200  0.00  0.00    +0.305 C 
ATOM      3  O   UNL     1      -0.952   5.227  -2.702  0.00  0.00    -0.252 OA
ATOM      4  N   UNL     1      -3.140   5.506  -2.967  0.00  0.00    -0.269 N 
ATOM      5  H   UNL     1      -3.088   5.087  -0.475  0.00  0.00    +0.151 HD
ATOM      6  H   UNL     1      -4.029   5.458  -2.583  0.00  0.00    +0.156 HD
ENDROOT
BRANCH   4   7
ATOM      7  C   UNL     1      -2.980   5.827  -4.315  0.00  0.00    +0.036 A 
ATOM      8  C   UNL     1      -3.932   5.419  -5.241  0.00  0.00    +0.024 A 
ATOM      9  C   UNL     1      -3.785   5.731  -6.580  0.00  0.00    +0.015 A 
ATOM     10  C   UNL     1      -2.679   6.456  -7.002  0.00  0.00    +0.050 A 
ATOM     11  C   UNL     1      -1.710   6.872  -6.065  0.00  0.00    +0.051 A 
ATOM     12  C   UNL     1      -1.867   6.560  -4.727  0.00  0.00    +0.037 A 
ATOM     13  C   UNL     1      -0.688   7.607  -6.840  0.00  0.00    +0.254 C 
ATOM     14  O   UNL     1       0.313   8.122  -6.385  0.00  0.00    -0.270 OA
ATOM     15  N   UNL     1      -1.053   7.608  -8.135  0.00  0.00    -0.237 N 
ATOM     16  C   UNL     1      -2.213   6.951  -8.312  0.00  0.00    +0.254 C 
ATOM     17  O   UNL     1      -2.783   6.793  -9.373  0.00  0.00    -0.270 OA
ATOM     18  C   UNL     1      -0.287   8.241  -9.211  0.00  0.00    +0.142 C 
ENDBRANCH   4   7
BRANCH   1  19
ATOM     19  C   UNL     1      -1.030   4.793  -0.042  0.00  0.00    +0.142 C 
BRANCH  19  24
ATOM     20  C   UNL     1      -2.147   6.355   5.409  0.00  0.00    +0.044 C 
ATOM     21  C   UNL     1      -1.856   5.948   3.987  0.00  0.00    -0.050 A 
ATOM     22  C   UNL     1      -0.615   6.205   3.435  0.00  0.00    +0.004 A 
ATOM     23  C   UNL     1      -0.347   5.830   2.132  0.00  0.00    +0.006 A 
ATOM     24  C   UNL     1      -1.321   5.200   1.380  0.00  0.00    -0.022 A 
ATOM     25  C   UNL     1      -2.564   4.949   1.930  0.00  0.00    +0.006 A 
ATOM     26  C   UNL     1      -2.830   5.318   3.236  0.00  0.00    +0.004 A 
ENDBRANCH  19  24
BRANCH  19  27
ATOM     27  C   UNL     1      -0.704   3.322  -0.086  0.00  0.00    +0.014 A 
ATOM     28  C   UNL     1       0.508   2.718  -0.149  0.00  0.00    +0.013 A 
ATOM     29  C   UNL     1       0.568   1.338  -0.180  0.00  0.00    +0.008 A 
ATOM     30  C   UNL     1      -0.587   0.629  -0.147  0.00  0.00    +0.045 A 
ATOM     31  S   UNL     1      -1.814   1.924  -0.076  0.00  0.00    -0.099 S 
ENDBRANCH  19  27
ENDBRANCH   1  19
TORSDOF 4
