REMARK  Name = ZINC03979627
REMARK  11 active torsions:
REMARK  status: ('A' for Active; 'I' for Inactive)
REMARK    1  A    between atoms: C_1  and  O_2
REMARK    2  A    between atoms: O_2  and  C_3
REMARK    3  A    between atoms: C_5  and  O_29
REMARK    4  A    between atoms: C_6  and  C_20
REMARK    5  A    between atoms: C_7  and  O_19
REMARK    6  A    between atoms: C_8  and  C_9
REMARK    7  A    between atoms: C_9  and  C_11
REMARK    8  A    between atoms: C_12  and  C_13
REMARK    9  A    between atoms: C_20  and  C_21
REMARK   10  A    between atoms: C_25  and  O_28
REMARK   11  A    between atoms: C_26  and  O_27
REMARK                            x       y       z     vdW  Elec       q    Type
REMARK                         _______ _______ _______ _____ _____    ______ ____
ROOT
ATOM      1  C   UNL     1      -0.021   1.020   2.336  0.00  0.00    +0.138 A 
ATOM      2  C   UNL     1       1.160   0.304   2.410  0.00  0.00    +0.092 A 
ATOM      3  C   UNL     1       1.704  -0.020   3.647  0.00  0.00    +0.127 A 
ATOM      4  C   UNL     1       1.067   0.371   4.818  0.00  0.00    +0.041 A 
ATOM      5  C   UNL     1      -0.114   1.088   4.761  0.00  0.00    +0.138 A 
ATOM      6  C   UNL     1      -0.667   1.425   3.515  0.00  0.00    +0.105 A 
ENDROOT
BRANCH   1   8
ATOM      7  C   UNL     1       0.165   0.895  -0.029  0.00  0.00    +0.277 C 
ATOM      8  O   UNL     1      -0.550   1.335   1.127  0.00  0.00    -0.494 OA
ENDBRANCH   1   8
BRANCH   6   9
ATOM      9  C   UNL     1      -1.921   2.192   3.445  0.00  0.00    +0.193 C 
ATOM     10  O   UNL     1      -1.888   3.403   3.320  0.00  0.00    -0.287 OA
BRANCH   9  11
ATOM     11  C   UNL     1      -3.209   1.499   3.527  0.00  0.00    +0.052 C 
ATOM     12  C   UNL     1      -4.355   2.209   3.566  0.00  0.00    +0.012 C 
BRANCH  12  13
ATOM     13  C   UNL     1      -5.649   1.513   3.648  0.00  0.00    -0.025 A 
ATOM     14  C   UNL     1      -5.695   0.115   3.680  0.00  0.00    +0.008 A 
ATOM     15  C   UNL     1      -6.911  -0.529   3.762  0.00  0.00    +0.001 A 
ATOM     16  C   UNL     1      -8.085   0.203   3.801  0.00  0.00    +0.000 A 
ATOM     17  C   UNL     1      -8.048   1.586   3.765  0.00  0.00    +0.001 A 
ATOM     18  C   UNL     1      -6.840   2.245   3.689  0.00  0.00    +0.008 A 
ENDBRANCH  12  13
ENDBRANCH   9  11
ENDBRANCH   6   9
BRANCH   5  19
ATOM     19  O   UNL     1      -0.734   1.469   5.906  0.00  0.00    -0.506 OA
ATOM     20  H   UNL     1      -0.513   2.365   6.194  0.00  0.00    +0.292 HD
ENDBRANCH   5  19
BRANCH   3  21
ATOM     21  O   UNL     1       2.863  -0.723   3.711  0.00  0.00    -0.506 OA
ATOM     22  H   UNL     1       3.657  -0.171   3.726  0.00  0.00    +0.292 HD
ENDBRANCH   3  21
BRANCH   4  23
ATOM     23  C   UNL     1       1.665   0.013   6.154  0.00  0.00    +0.081 C 
BRANCH  23  24
ATOM     24  C   UNL     1       1.024  -1.249   6.670  0.00  0.00    +0.002 A 
ATOM     25  C   UNL     1      -0.075  -1.174   7.506  0.00  0.00    +0.008 A 
ATOM     26  C   UNL     1      -0.666  -2.330   7.981  0.00  0.00    +0.004 A 
ATOM     27  C   UNL     1      -0.161  -3.566   7.622  0.00  0.00    +0.049 A 
ATOM     28  C   UNL     1       0.939  -3.648   6.785  0.00  0.00    +0.159 A 
ATOM     29  C   UNL     1       1.531  -2.484   6.301  0.00  0.00    +0.162 A 
BRANCH  29  30
ATOM     30  O   UNL     1       2.608  -2.560   5.474  0.00  0.00    -0.503 OA
ATOM     31  H   UNL     1       3.458  -2.569   5.935  0.00  0.00    +0.292 HD
ENDBRANCH  29  30
BRANCH  28  32
ATOM     32  O   UNL     1       1.437  -4.863   6.431  0.00  0.00    -0.503 OA
ATOM     33  H   UNL     1       1.046  -5.229   5.626  0.00  0.00    +0.292 HD
ENDBRANCH  28  32
ENDBRANCH  23  24
ENDBRANCH   4  23
TORSDOF 10
