REMARK  Name = ZINC21883066
REMARK  7 active torsions:
REMARK  status: ('A' for Active; 'I' for Inactive)
REMARK    1  A    between atoms: C_1  and  C_2
REMARK    2  A    between atoms: C_2  and  C_3
REMARK    3  A    between atoms: N_7  and  C_16
REMARK    4  A    between atoms: C_16  and  C_17
REMARK    5  A    between atoms: N_19  and  C_20
REMARK    6  A    between atoms: C_22  and  C_33
REMARK    7  A    between atoms: C_30  and  C_32
REMARK                            x       y       z     vdW  Elec       q    Type
REMARK                         _______ _______ _______ _____ _____    ______ ____
ROOT
ATOM      1  C   UNL     1      -0.125  -3.109  -1.725  0.00  0.00    +0.235 C 
ATOM      2  O   UNL     1       0.700  -2.681  -2.504  0.00  0.00    -0.274 OA
ATOM      3  N   UNL     1      -1.184  -3.807  -2.181  0.00  0.00    -0.284 N 
ATOM      4  H   UNL     1      -1.891  -4.261  -1.471  0.00  0.00    +0.155 HD
ENDROOT
BRANCH   3   5
ATOM      5  C   UNL     1      -1.384  -3.956  -3.559  0.00  0.00    +0.035 A 
ATOM      6  C   UNL     1      -2.673  -3.989  -4.086  0.00  0.00    +0.028 A 
ATOM      7  C   UNL     1      -2.894  -4.127  -5.420  0.00  0.00    -0.022 A 
ATOM      8  C   UNL     1      -1.816  -4.255  -6.327  0.00  0.00    +0.083 A 
ATOM      9  C   UNL     1      -0.519  -4.224  -5.765  0.00  0.00    +0.043 A 
ATOM     10  C   UNL     1      -0.299  -4.079  -4.418  0.00  0.00    +0.040 A 
ATOM     11  S   UNL     1       0.518  -4.410  -7.196  0.00  0.00    -0.052 S 
ATOM     12  C   UNL     1      -0.790  -4.513  -8.409  0.00  0.00    +0.165 A 
ATOM     13  N   UNL     1      -1.868  -4.404  -7.669  0.00  0.00    -0.224 NA
ATOM     14  N   UNL     1      -0.691  -4.669  -9.783  0.00  0.00    -0.265 N 
ATOM     15  C   UNL     1       0.521  -4.764 -10.364  0.00  0.00    +0.216 C 
ATOM     16  O   UNL     1       1.525  -4.713  -9.686  0.00  0.00    -0.276 OA
ATOM     17  C   UNL     1       0.628  -4.933 -11.858  0.00  0.00    +0.109 C 
ATOM     18  C   UNL     1      -4.308  -4.150  -5.940  0.00  0.00    +0.046 C 
ATOM     19  H   UNL     1      -1.602  -4.715 -10.398  0.00  0.00    +0.157 HD
ENDBRANCH   3   5
BRANCH   1  20
ATOM     20  C   UNL     1       0.033  -2.859  -0.247  0.00  0.00    +0.209 C 
BRANCH  20  24
ATOM     21  C   UNL     1       3.648  -1.903   0.572  0.00  0.00    +0.259 C 
ATOM     22  C   UNL     1       2.430  -2.710   0.202  0.00  0.00    +0.261 C 
ATOM     23  O   UNL     1       2.506  -3.916   0.095  0.00  0.00    -0.271 OA
ATOM     24  N   UNL     1       1.253  -2.084  -0.011  0.00  0.00    -0.256 N 
ATOM     25  C   UNL     1       1.213  -0.683  -0.002  0.00  0.00    +0.080 A 
ATOM     26  C   UNL     1       0.001  -0.012   0.016  0.00  0.00    +0.047 A 
ATOM     27  C   UNL     1      -0.020   1.372   0.030  0.00  0.00    +0.043 A 
ATOM     28  C   UNL     1       1.165   2.085   0.022  0.00  0.00    +0.024 A 
ATOM     29  C   UNL     1       2.378   1.420  -0.006  0.00  0.00    +0.049 A 
ATOM     30  C   UNL     1       2.406   0.036  -0.024  0.00  0.00    +0.143 A 
ATOM     31  O   UNL     1       3.593  -0.627  -0.070  0.00  0.00    -0.478 OA
ATOM     32 CL   UNL     1      -1.538   2.214   0.050  0.00  0.00    -0.083 Cl
BRANCH  21  34
ATOM     33  C   UNL     1       4.987  -0.999   2.478  0.00  0.00    +0.008 C 
ATOM     34  C   UNL     1       3.689  -1.709   2.089  0.00  0.00    +0.051 C 
ENDBRANCH  21  34
ENDBRANCH  20  24
ENDBRANCH   1  20
TORSDOF 4
