REMARK  Name = ZINC30702568
REMARK  6 active torsions:
REMARK  status: ('A' for Active; 'I' for Inactive)
REMARK    1  A    between atoms: C_1  and  O_2
REMARK    2  A    between atoms: O_2  and  C_3
REMARK    3  A    between atoms: C_5  and  C_11
REMARK    4  A    between atoms: C_8  and  O_9
REMARK    5  A    between atoms: N_12  and  N_13
REMARK    6  A    between atoms: C_14  and  C_16
REMARK                            x       y       z     vdW  Elec       q    Type
REMARK                         _______ _______ _______ _____ _____    ______ ____
ROOT
ATOM      1  C   UNL     1       7.136  -3.028   3.946  0.00  0.00    +0.138 C 
ATOM      2  N   UNL     1       6.711  -1.888   3.495  0.00  0.00    -0.187 NA
ENDROOT
BRANCH   1   5
ATOM      3  C   UNL     1       5.739  -6.436   4.678  0.00  0.00    +0.163 A 
ATOM      4  C   UNL     1       6.585  -5.343   4.674  0.00  0.00    +0.059 A 
ATOM      5  C   UNL     1       6.240  -4.200   3.948  0.00  0.00    -0.001 A 
ATOM      6  C   UNL     1       5.048  -4.171   3.220  0.00  0.00    +0.028 A 
ATOM      7  C   UNL     1       4.212  -5.268   3.224  0.00  0.00    +0.063 A 
ATOM      8  C   UNL     1       4.552  -6.402   3.950  0.00  0.00    +0.173 A 
ATOM      9 BR   UNL     1       2.598  -5.228   2.238  0.00  0.00    -0.046 Br
BRANCH   3  11
ATOM     10  C   UNL     1       7.300  -7.514   6.112  0.00  0.00    +0.277 C 
ATOM     11  O   UNL     1       6.068  -7.548   5.388  0.00  0.00    -0.491 OA
ENDBRANCH   3  11
BRANCH   8  12
ATOM     12  O   UNL     1       3.724  -7.480   3.951  0.00  0.00    -0.503 OA
ATOM     13  H   UNL     1       2.786  -7.454   3.376  0.00  0.00    +0.292 HD
ENDBRANCH   8  12
ENDBRANCH   1   5
BRANCH   2  14
ATOM     14  N   UNL     1       5.336  -1.626   3.437  0.00  0.00    -0.203 N 
ATOM     15  C   UNL     1       4.889  -0.494   2.857  0.00  0.00    +0.263 C 
ATOM     16  O   UNL     1       5.680   0.300   2.384  0.00  0.00    -0.268 OA
ATOM     17  H   UNL     1       4.620  -2.344   3.865  0.00  0.00    +0.178 HD
BRANCH  15  18
ATOM     18  C   UNL     1       3.441  -0.218   2.796  0.00  0.00    +0.042 A 
ATOM     19  C   UNL     1       2.531  -1.129   3.339  0.00  0.00    +0.017 A 
ATOM     20  C   UNL     1       1.179  -0.869   3.281  0.00  0.00    +0.050 A 
ATOM     21  C   UNL     1       0.716   0.296   2.684  0.00  0.00    +0.166 A 
ATOM     22  C   UNL     1       1.620   1.210   2.140  0.00  0.00    +0.167 A 
ATOM     23  C   UNL     1       2.976   0.955   2.195  0.00  0.00    +0.062 A 
ATOM     24  O   UNL     1       0.918   2.259   1.620  0.00  0.00    -0.453 OA
ATOM     25  C   UNL     1      -0.392   2.176   2.212  0.00  0.00    +0.466 C 
ATOM     26  O   UNL     1      -0.548   0.775   2.503  0.00  0.00    -0.453 OA
ENDBRANCH  15  18
ENDBRANCH   2  14
TORSDOF 5
