REMARK  Name = ZINC47303929
REMARK  4 active torsions:
REMARK  status: ('A' for Active; 'I' for Inactive)
REMARK    1  A    between atoms: C_4  and  C_7
REMARK    2  A    between atoms: C_9  and  C_12
REMARK    3  A    between atoms: N_14  and  N_15
REMARK    4  A    between atoms: C_16  and  C_18
REMARK                            x       y       z     vdW  Elec       q    Type
REMARK                         _______ _______ _______ _____ _____    ______ ____
ROOT
ATOM      1  C   UNL     1       5.323  -3.883  -0.080  0.00  0.00    +0.279 C 
ATOM      2  O   UNL     1       6.473  -4.278  -0.092  0.00  0.00    -0.267 OA
ATOM      3  N   UNL     1       4.307  -4.768  -0.082  0.00  0.00    -0.229 N 
ATOM      4  H   UNL     1       3.389  -4.453  -0.072  0.00  0.00    +0.173 HD
ENDROOT
BRANCH   1   7
ATOM      5  C   UNL     1       3.586  -0.691  -0.036  0.00  0.00    +0.146 A 
ATOM      6  N   UNL     1       3.794  -1.994  -0.051  0.00  0.00    -0.231 NA
ATOM      7  C   UNL     1       5.041  -2.437  -0.064  0.00  0.00    +0.135 A 
ATOM      8  C   UNL     1       6.073  -1.519  -0.063  0.00  0.00    +0.080 A 
ATOM      9  S   UNL     1       5.250  -0.050  -0.050  0.00  0.00    -0.072 S 
BRANCH   5  13
ATOM     10  C   UNL     1      -0.017   1.383   0.010  0.00  0.00    +0.039 A 
ATOM     11  C   UNL     1       1.192   2.063   0.002  0.00  0.00    +0.115 A 
ATOM     12  N   UNL     1       2.320   1.374  -0.013  0.00  0.00    -0.234 NA
ATOM     13  C   UNL     1       2.304   0.047  -0.020  0.00  0.00    +0.185 A 
ATOM     14  N   UNL     1       1.164  -0.633  -0.013  0.00  0.00    -0.234 NA
ATOM     15  C   UNL     1       0.002  -0.004   0.002  0.00  0.00    +0.115 A 
ENDBRANCH   5  13
ENDBRANCH   1   7
BRANCH   3  16
ATOM     16  N   UNL     1       4.575  -6.143  -0.097  0.00  0.00    -0.230 N 
ATOM     17  C   UNL     1       3.559  -7.028  -0.098  0.00  0.00    +0.267 C 
ATOM     18  O   UNL     1       2.408  -6.633  -0.086  0.00  0.00    -0.268 OA
ATOM     19  H   UNL     1       5.492  -6.458  -0.106  0.00  0.00    +0.173 HD
BRANCH  17  20
ATOM     20  C   UNL     1       3.839  -8.467  -0.114  0.00  0.00    +0.076 A 
ATOM     21  C   UNL     1       2.955  -9.526  -0.124  0.00  0.00    +0.024 A 
ATOM     22  C   UNL     1       3.508 -10.809  -0.138  0.00  0.00    -0.036 A 
ATOM     23  C   UNL     1       4.863 -10.888  -0.139  0.00  0.00    -0.006 A 
ATOM     24  S   UNL     1       5.412  -9.305  -0.134  0.00  0.00    -0.088 S 
ATOM     25  C   UNL     1       5.339 -12.317  -0.148  0.00  0.00    +0.043 C 
ATOM     26  C   UNL     1       4.107 -13.142   0.284  0.00  0.00    +0.010 C 
ATOM     27  C   UNL     1       2.944 -12.232  -0.156  0.00  0.00    +0.036 C 
ENDBRANCH  17  20
ENDBRANCH   3  16
TORSDOF 4
