REMARK  Name = ZINC49756064
REMARK  8 active torsions:
REMARK  status: ('A' for Active; 'I' for Inactive)
REMARK    1  A    between atoms: C_1  and  C_2
REMARK    2  A    between atoms: C_5  and  C_26
REMARK    3  A    between atoms: C_6  and  O_8
REMARK    4  A    between atoms: O_8  and  C_9
REMARK    5  A    between atoms: C_9  and  C_10
REMARK    6  A    between atoms: N_12  and  C_13
REMARK    7  A    between atoms: C_22  and  C_24
REMARK    8  A    between atoms: C_22  and  C_25
REMARK                            x       y       z     vdW  Elec       q    Type
REMARK                         _______ _______ _______ _____ _____    ______ ____
ROOT
ATOM      1  C   UNL     1       0.061  -2.932   4.751  0.00  0.00    +0.255 C 
ATOM      2  O   UNL     1       0.068  -4.133   4.584  0.00  0.00    -0.272 OA
ATOM      3  N   UNL     1       0.062  -2.425   6.000  0.00  0.00    -0.283 N 
ATOM      4  H   UNL     1       0.124  -1.467   6.135  0.00  0.00    +0.155 HD
ENDROOT
BRANCH   3   5
ATOM      5  C   UNL     1      -0.028  -3.283   7.104  0.00  0.00    +0.035 A 
ATOM      6  C   UNL     1       0.586  -4.529   7.066  0.00  0.00    +0.027 A 
ATOM      7  C   UNL     1       0.501  -5.379   8.153  0.00  0.00    +0.049 A 
ATOM      8  C   UNL     1      -0.197  -4.989   9.283  0.00  0.00    +0.143 A 
ATOM      9  C   UNL     1      -0.815  -3.740   9.323  0.00  0.00    +0.077 A 
ATOM     10  C   UNL     1      -0.724  -2.886   8.237  0.00  0.00    +0.050 A 
ATOM     11  N   UNL     1      -1.520  -3.360  10.475  0.00  0.00    -0.279 N 
ATOM     12  C   UNL     1      -1.328  -4.054  11.618  0.00  0.00    +0.261 C 
ATOM     13  O   UNL     1      -1.949  -3.763  12.618  0.00  0.00    -0.271 OA
ATOM     14  C   UNL     1      -0.339  -5.191  11.646  0.00  0.00    +0.180 C 
ATOM     15  O   UNL     1      -0.287  -5.815  10.360  0.00  0.00    -0.475 OA
ATOM     16  C   UNL     1       1.047  -4.652  12.006  0.00  0.00    +0.065 C 
ATOM     17  C   UNL     1      -0.772  -6.218  12.694  0.00  0.00    +0.065 C 
ATOM     18  H   UNL     1      -2.136  -2.612  10.450  0.00  0.00    +0.155 HD
ENDBRANCH   3   5
BRANCH   1  19
ATOM     19  C   UNL     1       0.052  -2.005   3.562  0.00  0.00    +0.324 C 
BRANCH  19  20
ATOM     20  O   UNL     1       0.053  -2.775   2.358  0.00  0.00    -0.482 OA
BRANCH  20  26
ATOM     21  C   UNL     1       0.019   1.504   0.011  0.00  0.00    +0.044 C 
ATOM     22  C   UNL     1       0.029  -0.003   0.002  0.00  0.00    -0.047 A 
ATOM     23  C   UNL     1       0.029  -0.687  -1.200  0.00  0.00    +0.004 A 
ATOM     24  C   UNL     1       0.038  -2.070  -1.211  0.00  0.00    +0.007 A 
ATOM     25  C   UNL     1       0.046  -2.771  -0.020  0.00  0.00    -0.009 A 
ATOM     26  C   UNL     1       0.046  -2.087   1.186  0.00  0.00    +0.124 A 
ATOM     27  C   UNL     1       0.043  -0.700   1.195  0.00  0.00    +0.049 A 
ATOM     28  C   UNL     1       0.055  -4.278  -0.033  0.00  0.00    +0.047 C 
ENDBRANCH  20  26
ENDBRANCH  19  20
ENDBRANCH   1  19
TORSDOF 4
