REMARK  Name = ZINC04690617
REMARK  9 active torsions:
REMARK  status: ('A' for Active; 'I' for Inactive)
REMARK    1  A    between atoms: C_1  and  C_2
REMARK    2  A    between atoms: C_6  and  C_9
REMARK    3  A    between atoms: C_7  and  O_8
REMARK    4  A    between atoms: N_11  and  N_12
REMARK    5  A    between atoms: C_13  and  C_14
REMARK    6  A    between atoms: C_13  and  C_15
REMARK    7  A    between atoms: C_15  and  C_16
REMARK    8  A    between atoms: N_18  and  C_19
REMARK    9  A    between atoms: C_24  and  C_25
REMARK                            x       y       z     vdW  Elec       q    Type
REMARK                         _______ _______ _______ _____ _____    ______ ____
ROOT
ATOM      1  N   UNL     1      -5.705   1.065   0.652  0.00  0.00    -0.189 NA
ATOM      2  C   UNL     1      -4.835   1.138  -0.284  0.00  0.00    +0.043 C 
ATOM      3  C   UNL     1      -4.942   0.235  -1.486  0.00  0.00    +0.063 C 
ENDROOT
BRANCH   1   6
ATOM      4  C   UNL     1      -7.674   0.068   1.544  0.00  0.00    +0.267 C 
ATOM      5  O   UNL     1      -7.587   0.797   2.514  0.00  0.00    -0.268 OA
ATOM      6  N   UNL     1      -6.758   0.145   0.559  0.00  0.00    -0.203 N 
ATOM      7  H   UNL     1      -6.827  -0.436  -0.214  0.00  0.00    +0.178 HD
BRANCH   4  13
ATOM      8  C   UNL     1     -11.806  -1.992   3.462  0.00  0.00    +0.047 C 
ATOM      9  C   UNL     1     -10.776  -1.897   2.366  0.00  0.00    -0.008 A 
ATOM     10  C   UNL     1     -10.867  -2.721   1.261  0.00  0.00    +0.007 A 
ATOM     11  C   UNL     1      -9.925  -2.642   0.249  0.00  0.00    +0.001 A 
ATOM     12  C   UNL     1      -8.886  -1.739   0.334  0.00  0.00    +0.017 A 
ATOM     13  C   UNL     1      -8.783  -0.900   1.446  0.00  0.00    +0.080 A 
ATOM     14  C   UNL     1      -9.735  -0.987   2.471  0.00  0.00    +0.132 A 
BRANCH  14  15
ATOM     15  O   UNL     1      -9.641  -0.182   3.559  0.00  0.00    -0.506 OA
ATOM     16  H   UNL     1     -10.109   0.659   3.467  0.00  0.00    +0.292 HD
ENDBRANCH  14  15
ENDBRANCH   4  13
ENDBRANCH   1   6
BRANCH   2  17
ATOM     17  C   UNL     1      -3.702   2.127  -0.184  0.00  0.00    +0.148 C 
BRANCH  17  18
ATOM     18  C   UNL     1      -2.394   1.385  -0.081  0.00  0.00    +0.223 C 
ATOM     19  O   UNL     1      -2.383   0.172  -0.088  0.00  0.00    -0.275 OA
ATOM     20  N   UNL     1      -1.238   2.069   0.019  0.00  0.00    -0.285 N 
ATOM     21  H   UNL     1      -1.250   3.037   0.090  0.00  0.00    +0.155 HD
BRANCH  20  22
ATOM     22  C   UNL     1      -0.017   1.384   0.021  0.00  0.00    +0.036 A 
ATOM     23  C   UNL     1       0.078   0.134   0.619  0.00  0.00    +0.024 A 
ATOM     24  C   UNL     1       1.282  -0.542   0.614  0.00  0.00    +0.017 A 
ATOM     25  C   UNL     1       2.393   0.024   0.013  0.00  0.00    +0.018 A 
ATOM     26  C   UNL     1       2.301   1.268  -0.583  0.00  0.00    +0.020 A 
ATOM     27  C   UNL     1       1.099   1.950  -0.581  0.00  0.00    -0.028 A 
ATOM     28  C   UNL     1       0.999   3.305  -1.231  0.00  0.00    +0.046 C 
ATOM     29 BR   UNL     1       4.040  -0.905   0.009  0.00  0.00    -0.050 Br
ENDBRANCH  20  22
ENDBRANCH  17  18
ENDBRANCH   2  17
TORSDOF 6
