REMARK  Name = ZINC09092077
REMARK  12 active torsions:
REMARK  status: ('A' for Active; 'I' for Inactive)
REMARK    1  A    between atoms: C_1  and  C_2
REMARK    2  A    between atoms: C_2  and  C_3
REMARK    3  A    between atoms: C_3  and  C_5
REMARK    4  A    between atoms: C_3  and  C_6
REMARK    5  A    between atoms: C_9  and  N_12
REMARK    6  A    between atoms: C_22  and  S_23
REMARK    7  A    between atoms: S_23  and  C_24
REMARK    8  A    between atoms: C_24  and  C_25
REMARK    9  A    between atoms: N_27  and  C_28
REMARK   10  A    between atoms: C_28  and  C_29
REMARK   11  A    between atoms: C_29  and  O_31
REMARK   12  A    between atoms: O_31  and  C_32
REMARK                            x       y       z     vdW  Elec       q    Type
REMARK                         _______ _______ _______ _____ _____    ______ ____
ROOT
ATOM      1  N   UNL     1      -2.894   2.509   7.164  0.00  0.00    -0.255 N 
ATOM      2  C   UNL     1      -3.436   1.543   7.942  0.00  0.00    +0.267 A 
ATOM      3  O   UNL     1      -3.313   0.365   7.662  0.00  0.00    -0.267 OA
ATOM      4  C   UNL     1      -4.173   1.969   9.139  0.00  0.00    +0.067 A 
ATOM      5  C   UNL     1      -4.763   1.049  10.006  0.00  0.00    +0.035 A 
ATOM      6  C   UNL     1      -5.448   1.504  11.112  0.00  0.00    +0.042 A 
ATOM      7  C   UNL     1      -5.553   2.867  11.367  0.00  0.00    +0.022 A 
ATOM      8  C   UNL     1      -4.982   3.784  10.531  0.00  0.00    +0.030 A 
ATOM      9  C   UNL     1      -4.281   3.353   9.401  0.00  0.00    +0.079 A 
ATOM     10  N   UNL     1      -3.703   4.232   8.549  0.00  0.00    -0.223 NA
ATOM     11  C   UNL     1      -3.046   3.829   7.490  0.00  0.00    +0.177 A 
ATOM     12 CL   UNL     1      -6.186   0.366  12.196  0.00  0.00    -0.084 Cl
ENDROOT
BRANCH   1  16
ATOM     13  C   UNL     1      -0.762   1.452   3.743  0.00  0.00    -0.044 A 
ATOM     14  C   UNL     1      -0.106   1.578   4.953  0.00  0.00    +0.006 A 
ATOM     15  C   UNL     1      -0.809   1.933   6.088  0.00  0.00    +0.026 A 
ATOM     16  C   UNL     1      -2.178   2.154   6.014  0.00  0.00    +0.052 A 
ATOM     17  C   UNL     1      -2.835   2.022   4.798  0.00  0.00    +0.026 A 
ATOM     18  C   UNL     1      -2.125   1.672   3.666  0.00  0.00    +0.006 A 
BRANCH  13  19
ATOM     19  C   UNL     1       0.009   1.070   2.506  0.00  0.00    +0.016 C 
ATOM     20  C   UNL     1       0.669  -0.294   2.717  0.00  0.00    +0.012 C 
BRANCH  19  22
ATOM     21  C   UNL     1       1.786   1.801   0.908  0.00  0.00    +0.004 C 
ATOM     22  C   UNL     1       1.086   2.121   2.230  0.00  0.00    +0.004 C 
ENDBRANCH  19  22
ENDBRANCH  13  19
ENDBRANCH   1  16
BRANCH  11  23
ATOM     23  S   UNL     1      -2.325   5.042   6.435  0.00  0.00    -0.078 S 
BRANCH  23  24
ATOM     24  C   UNL     1      -2.816   6.550   7.308  0.00  0.00    +0.173 C 
BRANCH  24  25
ATOM     25  C   UNL     1      -2.294   7.753   6.566  0.00  0.00    +0.224 C 
ATOM     26  O   UNL     1      -1.653   7.606   5.547  0.00  0.00    -0.275 OA
ATOM     27  N   UNL     1      -2.540   8.992   7.035  0.00  0.00    -0.304 N 
ATOM     28  H   UNL     1      -3.122   9.126   7.959  0.00  0.00    +0.149 HD
BRANCH  27  29
ATOM     29  C   UNL     1      -2.033  10.162   6.313  0.00  0.00    +0.224 C 
BRANCH  29  30
ATOM     30  C   UNL     1      -2.442  11.417   7.040  0.00  0.00    +0.324 C 
ATOM     31  O   UNL     1      -3.091  11.342   8.056  0.00  0.00    -0.249 OA
BRANCH  30  32
ATOM     32  O   UNL     1      -2.086  12.618   6.558  0.00  0.00    -0.467 OA
ATOM     33  C   UNL     1      -2.515  13.784   7.310  0.00  0.00    +0.280 C 
ENDBRANCH  30  32
ENDBRANCH  29  30
ENDBRANCH  27  29
ENDBRANCH  24  25
ENDBRANCH  23  24
ENDBRANCH  11  23
TORSDOF 9
