REMARK  Name = ZINC22374869
REMARK  5 active torsions:
REMARK  status: ('A' for Active; 'I' for Inactive)
REMARK    1  A    between atoms: C_1  and  C_2
REMARK    2  A    between atoms: C_5  and  C_8
REMARK    3  A    between atoms: C_8  and  C_29
REMARK    4  A    between atoms: N_11  and  C_15
REMARK    5  A    between atoms: C_15  and  C_16
REMARK                            x       y       z     vdW  Elec       q    Type
REMARK                         _______ _______ _______ _____ _____    ______ ____
ROOT
ATOM      1  C   UNL     1       0.059  -4.275  -0.021  0.00  0.00    +0.135 C 
ATOM      2  C   UNL     1      -0.728  -4.825   1.151  0.00  0.00    +0.251 C 
ATOM      3  O   UNL     1      -0.502  -4.654   2.330  0.00  0.00    -0.272 OA
ATOM      4  N   UNL     1      -1.732  -5.543   0.611  0.00  0.00    -0.215 N 
ATOM      5  C   UNL     1      -1.689  -5.524  -0.726  0.00  0.00    +0.310 C 
ATOM      6  O   UNL     1      -2.490  -6.100  -1.437  0.00  0.00    -0.252 OA
ATOM      7  N   UNL     1      -0.660  -4.796  -1.197  0.00  0.00    -0.281 N 
ATOM      8  C   UNL     1       1.499  -4.794   0.002  0.00  0.00    +0.047 C 
ATOM      9  H   UNL     1      -0.435  -4.644  -2.128  0.00  0.00    +0.152 HD
ENDROOT
BRANCH   1  14
ATOM     10  C   UNL     1      -0.018   1.503   0.010  0.00  0.00    +0.044 C 
ATOM     11  C   UNL     1       0.002  -0.004   0.002  0.00  0.00    -0.050 A 
ATOM     12  C   UNL     1       0.006  -0.689  -1.199  0.00  0.00    +0.004 A 
ATOM     13  C   UNL     1       0.025  -2.071  -1.206  0.00  0.00    +0.006 A 
ATOM     14  C   UNL     1       0.040  -2.768  -0.013  0.00  0.00    -0.015 A 
ATOM     15  C   UNL     1       0.037  -2.084   1.188  0.00  0.00    +0.006 A 
ATOM     16  C   UNL     1       0.023  -0.702   1.195  0.00  0.00    +0.004 A 
ENDBRANCH   1  14
BRANCH   4  17
ATOM     17  C   UNL     1      -2.746  -6.258   1.391  0.00  0.00    +0.214 C 
BRANCH  17  18
ATOM     18  C   UNL     1      -3.917  -5.345   1.650  0.00  0.00    +0.237 C 
ATOM     19  O   UNL     1      -3.906  -4.210   1.224  0.00  0.00    -0.274 OA
ATOM     20  N   UNL     1      -4.976  -5.791   2.354  0.00  0.00    -0.263 N 
ATOM     21  C   UNL     1      -6.056  -4.949   2.592  0.00  0.00    +0.165 A 
ATOM     22  N   UNL     1      -6.221  -3.702   2.208  0.00  0.00    -0.229 NA
ATOM     23  C   UNL     1      -7.321  -3.011   2.513  0.00  0.00    +0.054 A 
ATOM     24  C   UNL     1      -8.238  -3.699   3.219  0.00  0.00    +0.014 A 
ATOM     25  S   UNL     1      -7.477  -5.280   3.438  0.00  0.00    -0.057 S 
ATOM     26  C   UNL     1      -9.597  -3.220   3.660  0.00  0.00    +0.044 C 
ATOM     27  C   UNL     1      -9.364  -2.130   4.725  0.00  0.00    +0.005 C 
ATOM     28  C   UNL     1      -8.985  -0.827   4.060  0.00  0.00    +0.001 C 
ATOM     29  C   UNL     1      -7.610  -0.751   3.451  0.00  0.00    +0.006 C 
ATOM     30  C   UNL     1      -7.519  -1.540   2.141  0.00  0.00    +0.056 C 
ATOM     31  H   UNL     1      -4.984  -6.699   2.694  0.00  0.00    +0.157 HD
ENDBRANCH  17  18
ENDBRANCH   4  17
TORSDOF 3
