REMARK  Name = ZINC38686730
REMARK  9 active torsions:
REMARK  status: ('A' for Active; 'I' for Inactive)
REMARK    1  A    between atoms: C_3  and  C_16
REMARK    2  A    between atoms: C_5  and  O_7
REMARK    3  A    between atoms: O_7  and  C_8
REMARK    4  A    between atoms: C_8  and  C_9
REMARK    5  A    between atoms: C_21  and  O_30
REMARK    6  A    between atoms: C_25  and  N_29
REMARK    7  A    between atoms: C_26  and  C_27
REMARK    8  A    between atoms: O_30  and  C_31
REMARK    9  A    between atoms: C_31  and  C_33
REMARK                            x       y       z     vdW  Elec       q    Type
REMARK                         _______ _______ _______ _____ _____    ______ ____
ROOT
ATOM      1  C   UNL     1       3.713   2.148  -0.049  0.00  0.00    +0.098 C 
ATOM      2  C   UNL     1       3.754   3.026  -1.272  0.00  0.00    +0.008 A 
ATOM      3  C   UNL     1       4.134   2.483  -2.486  0.00  0.00    +0.012 A 
ATOM      4  C   UNL     1       4.179   3.272  -3.618  0.00  0.00    +0.047 A 
ATOM      5  C   UNL     1       3.841   4.616  -3.540  0.00  0.00    +0.136 A 
ATOM      6  C   UNL     1       3.460   5.163  -2.325  0.00  0.00    +0.093 A 
ATOM      7  C   UNL     1       3.416   4.367  -1.188  0.00  0.00    +0.138 A 
ATOM      8  O   UNL     1       3.041   4.917  -0.007  0.00  0.00    -0.441 OA
ATOM      9  C   UNL     1       3.353   4.304   1.147  0.00  0.00    +0.199 C 
ATOM     10  C   UNL     1       3.679   2.994   1.193  0.00  0.00    +0.098 C 
ENDROOT
BRANCH   1  13
ATOM     11  C   UNL     1       0.094   1.075  -0.172  0.00  0.00    +0.004 A 
ATOM     12  C   UNL     1       1.227   1.867  -0.128  0.00  0.00    +0.005 A 
ATOM     13  C   UNL     1       2.480   1.283  -0.097  0.00  0.00    -0.031 A 
ATOM     14  C   UNL     1       2.603  -0.093  -0.111  0.00  0.00    +0.050 A 
ATOM     15  C   UNL     1       1.467  -0.889  -0.155  0.00  0.00    +0.121 A 
ATOM     16  C   UNL     1       0.211  -0.301  -0.186  0.00  0.00    +0.045 A 
BRANCH  15  17
ATOM     17  O   UNL     1       1.585  -2.243  -0.168  0.00  0.00    -0.487 OA
BRANCH  17  18
ATOM     18  C   UNL     1       0.374  -2.999  -0.215  0.00  0.00    +0.264 C 
BRANCH  18  19
ATOM     19  C   UNL     1       0.700  -4.471  -0.223  0.00  0.00    -0.010 A 
ATOM     20  C   UNL     1       0.892  -5.129  -1.424  0.00  0.00    +0.008 A 
ATOM     21  C   UNL     1       1.191  -6.478  -1.432  0.00  0.00    +0.020 A 
ATOM     22  C   UNL     1       1.299  -7.170  -0.239  0.00  0.00    +0.041 A 
ATOM     23  C   UNL     1       1.107  -6.511   0.962  0.00  0.00    +0.020 A 
ATOM     24  C   UNL     1       0.814  -5.160   0.970  0.00  0.00    +0.008 A 
ATOM     25 CL   UNL     1       1.674  -8.865  -0.249  0.00  0.00    -0.084 Cl
ENDBRANCH  18  19
ENDBRANCH  17  18
ENDBRANCH  15  17
ENDBRANCH   1  13
BRANCH   9  26
ATOM     26  N   UNL     1       3.339   5.030   2.312  0.00  0.00    -0.328 N 
ATOM     27  H   UNL     1       3.106   5.971   2.294  0.00  0.00    +0.145 HD
ATOM     28  H   UNL     1       3.562   4.601   3.153  0.00  0.00    +0.145 HD
ENDBRANCH   9  26
BRANCH  10  29
ATOM     29  C   UNL     1       4.001   2.400   2.455  0.00  0.00    +0.101 C 
ATOM     30  N   UNL     1       4.256   1.928   3.457  0.00  0.00    -0.191 NA
ENDBRANCH  10  29
BRANCH   5  31
ATOM     31  O   UNL     1       3.885   5.395  -4.653  0.00  0.00    -0.420 OA
BRANCH  31  32
ATOM     32  C   UNL     1       2.970   5.173  -5.618  0.00  0.00    +0.380 C 
ATOM     33  O   UNL     1       2.075   4.369  -5.434  0.00  0.00    -0.241 OA
BRANCH  32  34
ATOM     34  C   UNL     1       3.053   5.898  -6.888  0.00  0.00    +0.212 A 
ATOM     35  C   UNL     1       2.193   5.773  -7.942  0.00  0.00    +0.056 A 
ATOM     36  C   UNL     1       2.648   6.649  -8.940  0.00  0.00    +0.042 A 
ATOM     37  C   UNL     1       3.752   7.262  -8.458  0.00  0.00    +0.196 A 
ATOM     38  O   UNL     1       3.989   6.812  -7.219  0.00  0.00    -0.456 OA
ENDBRANCH  32  34
ENDBRANCH  31  32
ENDBRANCH   5  31
TORSDOF 9
