REMARK  Name = ZINC38814590
REMARK  4 active torsions:
REMARK  status: ('A' for Active; 'I' for Inactive)
REMARK    1  A    between atoms: C_5  and  C_7
REMARK    2  A    between atoms: N_8  and  N_9
REMARK    3  A    between atoms: C_10  and  C_12
REMARK    4  A    between atoms: C_15  and  C_18
REMARK                            x       y       z     vdW  Elec       q    Type
REMARK                         _______ _______ _______ _____ _____    ______ ____
ROOT
ATOM      1  N   UNL     1       2.413  -4.185  -0.046  0.00  0.00    -0.205 N 
ATOM      2  C   UNL     1       3.593  -4.837  -0.062  0.00  0.00    +0.263 C 
ATOM      3  O   UNL     1       4.632  -4.210  -0.069  0.00  0.00    -0.271 OA
ATOM      4  H   UNL     1       1.583  -4.686  -0.041  0.00  0.00    +0.177 HD
ENDROOT
BRANCH   2   5
ATOM      5  C   UNL     1       3.622  -6.343  -0.071  0.00  0.00    +0.240 C 
ATOM      6  C   UNL     1       3.456  -6.891   1.335  0.00  0.00    +0.044 C 
ATOM      7  C   UNL     1       4.603  -7.569   1.555  0.00  0.00    +0.126 C 
ATOM      8  N   UNL     1       5.415  -7.490   0.466  0.00  0.00    -0.150 NA
ATOM      9  N   UNL     1       4.949  -6.836  -0.474  0.00  0.00    -0.170 NA
BRANCH   7  10
ATOM     10  C   UNL     1       4.929  -8.293   2.801  0.00  0.00    +0.154 A 
ATOM     11  C   UNL     1       6.078  -8.978   3.048  0.00  0.00    +0.051 A 
ATOM     12  C   UNL     1       5.964  -9.506   4.350  0.00  0.00    +0.042 A 
ATOM     13  C   UNL     1       4.764  -9.121   4.827  0.00  0.00    +0.196 A 
ATOM     14  O   UNL     1       4.144  -8.385   3.891  0.00  0.00    -0.461 OA
ENDBRANCH   7  10
ENDBRANCH   2   5
BRANCH   1  16
ATOM     15  C   UNL     1       1.251  -2.157  -0.023  0.00  0.00    +0.139 C 
ATOM     16  N   UNL     1       2.387  -2.784  -0.038  0.00  0.00    -0.188 NA
BRANCH  15  21
ATOM     17  C   UNL     1      -0.017   1.375   0.010  0.00  0.00    +0.001 A 
ATOM     18  C   UNL     1       1.170   2.087   0.002  0.00  0.00    +0.001 A 
ATOM     19  C   UNL     1       2.383   1.423  -0.013  0.00  0.00    +0.020 A 
ATOM     20  C   UNL     1       2.418   0.042  -0.021  0.00  0.00    +0.050 A 
ATOM     21  C   UNL     1       1.223  -0.683  -0.014  0.00  0.00    +0.013 A 
ATOM     22  C   UNL     1       0.002  -0.004   0.002  0.00  0.00    +0.011 A 
ATOM     23 CL   UNL     1       3.941  -0.790  -0.041  0.00  0.00    -0.083 Cl
ENDBRANCH  15  21
ENDBRANCH   1  16
TORSDOF 4
