REMARK  Name = ZINC08439831
REMARK  10 active torsions:
REMARK  status: ('A' for Active; 'I' for Inactive)
REMARK    1  A    between atoms: C_1  and  C_2
REMARK    2  A    between atoms: C_2  and  O_3
REMARK    3  A    between atoms: O_3  and  C_4
REMARK    4  A    between atoms: C_4  and  C_5
REMARK    5  A    between atoms: C_5  and  O_6
REMARK    6  A    between atoms: O_6  and  C_7
REMARK    7  A    between atoms: C_7  and  C_9
REMARK    8  A    between atoms: C_10  and  C_35
REMARK    9  A    between atoms: C_14  and  C_16
REMARK   10  A    between atoms: C_27  and  C_30
REMARK                            x       y       z     vdW  Elec       q    Type
REMARK                         _______ _______ _______ _____ _____    ______ ____
ROOT
ATOM      1  C   UNL     1       4.937   8.243   1.466  0.00  0.00    +0.154 C 
ATOM      2  C   UNL     1       4.394   7.599   2.513  0.00  0.00    +0.031 C 
ATOM      3  N   UNL     1       3.750   6.406   2.334  0.00  0.00    -0.260 NA
ATOM      4  C   UNL     1       3.293   6.040   1.097  0.00  0.00    +0.049 C 
ATOM      5  C   UNL     1       3.792   6.617  -0.017  0.00  0.00    +0.025 C 
ATOM      6  C   UNL     1       4.858   7.680   0.079  0.00  0.00    +0.075 C 
ATOM      7  C   UNL     1       3.335   6.248  -1.294  0.00  0.00    +0.162 C 
ATOM      8  O   UNL     1       3.795   6.798  -2.275  0.00  0.00    -0.292 OA
ATOM      9  C   UNL     1       2.286   5.183  -1.467  0.00  0.00    +0.088 C 
ATOM     10  C   UNL     1       2.379   4.198  -0.297  0.00  0.00    +0.039 C 
ATOM     11  C   UNL     1       2.224   4.979   1.009  0.00  0.00    +0.065 C 
ATOM     12  C   UNL     1       4.495   8.195   3.893  0.00  0.00    +0.061 C 
ENDROOT
BRANCH   6  13
ATOM     13  C   UNL     1       6.192   7.075  -0.275  0.00  0.00    -0.019 A 
ATOM     14  C   UNL     1       6.697   6.028   0.473  0.00  0.00    +0.006 A 
ATOM     15  C   UNL     1       7.918   5.469   0.146  0.00  0.00    +0.002 A 
ATOM     16  C   UNL     1       8.641   5.964  -0.923  0.00  0.00    +0.021 A 
ATOM     17  C   UNL     1       8.141   7.015  -1.669  0.00  0.00    +0.060 A 
ATOM     18  C   UNL     1       6.915   7.572  -1.345  0.00  0.00    +0.063 A 
ATOM     19 CL   UNL     1       6.285   8.891  -2.281  0.00  0.00    -0.082 Cl
ATOM     20 CL   UNL     1       9.049   7.637  -3.012  0.00  0.00    -0.082 Cl
ENDBRANCH   6  13
BRANCH  10  21
ATOM     21  C   UNL     1       1.279   3.174  -0.409  0.00  0.00    -0.006 A 
ATOM     22  C   UNL     1       1.375   1.827  -0.526  0.00  0.00    +0.011 A 
ATOM     23  C   UNL     1       0.217   1.078  -0.615  0.00  0.00    +0.008 A 
ATOM     24  C   UNL     1      -0.981   1.712  -0.588  0.00  0.00    +0.045 A 
ATOM     25  S   UNL     1      -0.489   3.421  -0.422  0.00  0.00    -0.101 S 
ENDBRANCH  10  21
BRANCH   1  26
ATOM     26  C   UNL     1       5.590   9.480   1.675  0.00  0.00    +0.317 C 
ATOM     27  O   UNL     1       5.567  10.002   2.774  0.00  0.00    -0.250 OA
BRANCH  26  28
ATOM     28  O   UNL     1       6.239  10.081   0.656  0.00  0.00    -0.462 OA
BRANCH  28  29
ATOM     29  C   UNL     1       6.877  11.329   0.939  0.00  0.00    +0.260 C 
BRANCH  29  30
ATOM     30  C   UNL     1       7.555  11.853  -0.329  0.00  0.00    +0.201 C 
BRANCH  30  31
ATOM     31  O   UNL     1       6.562  12.151  -1.312  0.00  0.00    -0.377 OA
BRANCH  31  33
ATOM     32  C   UNL     1       5.946  12.934  -3.514  0.00  0.00    +0.034 C 
ATOM     33  C   UNL     1       7.093  12.651  -2.541  0.00  0.00    +0.156 C 
ENDBRANCH  31  33
ENDBRANCH  30  31
ENDBRANCH  29  30
ENDBRANCH  28  29
ENDBRANCH  26  28
ENDBRANCH   1  26
TORSDOF 8
