REMARK  Name = ZINC12183194
REMARK  8 active torsions:
REMARK  status: ('A' for Active; 'I' for Inactive)
REMARK    1  A    between atoms: C_1  and  C_2
REMARK    2  A    between atoms: C_4  and  C_26
REMARK    3  A    between atoms: C_11  and  C_13
REMARK    4  A    between atoms: C_13  and  C_14
REMARK    5  A    between atoms: C_17  and  C_22
REMARK    6  A    between atoms: C_19  and  C_20
REMARK    7  A    between atoms: C_19  and  C_21
REMARK    8  A    between atoms: C_22  and  C_24
REMARK                            x       y       z     vdW  Elec       q    Type
REMARK                         _______ _______ _______ _____ _____    ______ ____
ROOT
ATOM      1  C   UNL     1      -3.382   3.436   5.554  0.00  0.00    +0.065 C 
ATOM      2  C   UNL     1      -2.171   2.595   5.247  0.00  0.00    +0.041 A 
ATOM      3  C   UNL     1      -1.420   2.079   6.293  0.00  0.00    +0.036 A 
ATOM      4  C   UNL     1      -0.313   1.301   6.016  0.00  0.00    +0.070 A 
ATOM      5  C   UNL     1       0.013   1.074   4.676  0.00  0.00    +0.072 A 
ATOM      6  C   UNL     1       1.083   0.339   3.995  0.00  0.00    +0.149 A 
ATOM      7  N   UNL     1       0.894   0.467   2.709  0.00  0.00    -0.147 NA
ATOM      8  N   UNL     1      -0.242   1.246   2.466  0.00  0.00    -0.180 N 
ATOM      9  C   UNL     1      -0.793   1.633   3.667  0.00  0.00    +0.169 A 
ATOM     10  N   UNL     1      -1.848   2.366   3.991  0.00  0.00    -0.232 NA
ATOM     11  C   UNL     1      -0.718   1.572   1.248  0.00  0.00    +0.250 C 
ATOM     12  O   UNL     1      -1.714   2.256   1.150  0.00  0.00    -0.271 OA
ATOM     13  N   UNL     1       2.114  -0.368   4.608  0.00  0.00    -0.341 N 
ATOM     14  H   UNL     1       2.777  -0.825   4.068  0.00  0.00    +0.144 HD
ATOM     15  H   UNL     1       2.169  -0.404   5.576  0.00  0.00    +0.144 HD
ENDROOT
BRANCH   4  16
ATOM     16  C   UNL     1       0.528   0.725   7.127  0.00  0.00    +0.418 C 
ATOM     17  F   UNL     1      -0.012   1.099   8.362  0.00  0.00    -0.166 F 
ATOM     18  F   UNL     1       0.541  -0.670   7.026  0.00  0.00    -0.166 F 
ATOM     19  F   UNL     1       1.835   1.213   7.023  0.00  0.00    -0.166 F 
ENDBRANCH   4  16
BRANCH  11  20
ATOM     20  C   UNL     1      -0.013   1.086   0.008  0.00  0.00    +0.105 C 
BRANCH  20  21
ATOM     21  C   UNL     1      -0.753   1.593  -1.232  0.00  0.00    +0.005 C 
ATOM     22  C   UNL     1      -0.295   2.985  -1.696  0.00  0.00    +0.016 C 
ATOM     23  C   UNL     1      -0.409   2.456  -3.135  0.00  0.00    +0.061 C 
ATOM     24  C   UNL     1      -0.183   1.051  -2.553  0.00  0.00    -0.022 C 
ATOM     25  C   UNL     1       1.292   0.653  -2.468  0.00  0.00    +0.012 C 
ATOM     26  C   UNL     1      -1.055  -0.028  -3.200  0.00  0.00    +0.012 C 
BRANCH  23  27
ATOM     27  C   UNL     1       0.703   2.920  -4.041  0.00  0.00    +0.134 C 
ATOM     28  O   UNL     1       1.814   2.466  -3.915  0.00  0.00    -0.297 OA
ATOM     29  C   UNL     1       0.427   3.952  -5.105  0.00  0.00    +0.086 C 
ENDBRANCH  23  27
ENDBRANCH  20  21
ENDBRANCH  11  20
TORSDOF 4
