REMARK  Name = ZINC05557707
REMARK  8 active torsions:
REMARK  status: ('A' for Active; 'I' for Inactive)
REMARK    1  A    between atoms: C_1  and  C_2
REMARK    2  A    between atoms: C_4  and  C_25
REMARK    3  A    between atoms: C_6  and  N_8
REMARK    4  A    between atoms: N_8  and  S_9
REMARK    5  A    between atoms: S_9  and  C_12
REMARK    6  A    between atoms: C_15  and  N_18
REMARK    7  A    between atoms: C_19  and  C_21
REMARK    8  A    between atoms: C_22  and  C_23
REMARK                            x       y       z     vdW  Elec       q    Type
REMARK                         _______ _______ _______ _____ _____    ______ ____
ROOT
ATOM      1  C   UNL     1      -0.470   4.628   0.674  0.00  0.00    +0.109 A 
ATOM      2  C   UNL     1       0.783   4.758   1.244  0.00  0.00    +0.030 A 
ATOM      3  C   UNL     1       1.596   5.818   0.891  0.00  0.00    +0.025 A 
ATOM      4  C   UNL     1       1.149   6.759  -0.027  0.00  0.00    +0.034 A 
ATOM      5  C   UNL     1      -0.113   6.628  -0.593  0.00  0.00    +0.025 A 
ATOM      6  C   UNL     1      -0.918   5.563  -0.241  0.00  0.00    +0.030 A 
ENDROOT
BRANCH   4   7
ATOM      7  N   UNL     1       1.967   7.836  -0.381  0.00  0.00    -0.282 N 
ATOM      8  C   UNL     1       3.304   7.680  -0.426  0.00  0.00    +0.241 C 
ATOM      9  O   UNL     1       3.795   6.582  -0.247  0.00  0.00    -0.270 OA
ATOM     10  H   UNL     1       1.571   8.695  -0.595  0.00  0.00    +0.155 HD
BRANCH   8  11
ATOM     11  C   UNL     1       4.175   8.842  -0.693  0.00  0.00    +0.075 C 
ATOM     12  C   UNL     1       5.508   8.686  -0.738  0.00  0.00    +0.101 C 
BRANCH  12  13
ATOM     13  C   UNL     1       6.377   9.848  -1.004  0.00  0.00    +0.380 C 
ATOM     14  O   UNL     1       5.887  10.945  -1.183  0.00  0.00    -0.241 OA
ATOM     15  O   UNL     1       7.715   9.692  -1.049  0.00  0.00    -0.241 OA
ENDBRANCH  12  13
ENDBRANCH   8  11
ENDBRANCH   4   7
BRANCH   1  16
ATOM     16  S   UNL     1      -1.501   3.270   1.121  0.00  0.00    +0.072 S 
ATOM     17  O   UNL     1      -2.828   3.635   0.768  0.00  0.00    -0.150 OA
ATOM     18  O   UNL     1      -1.138   2.903   2.445  0.00  0.00    -0.150 OA
BRANCH  16  19
ATOM     19  N   UNL     1      -1.085   1.998   0.146  0.00  0.00    -0.216 N 
ATOM     20  H   UNL     1      -1.722   1.652  -0.498  0.00  0.00    +0.174 HD
BRANCH  19  26
ATOM     21  C   UNL     1       3.441   1.374  -1.664  0.00  0.00    +0.044 C 
ATOM     22  C   UNL     1       2.397   1.100  -0.613  0.00  0.00    -0.048 A 
ATOM     23  C   UNL     1       2.692   0.274   0.456  0.00  0.00    +0.006 A 
ATOM     24  C   UNL     1       1.737   0.020   1.423  0.00  0.00    -0.048 A 
ATOM     25  C   UNL     1       0.484   0.592   1.324  0.00  0.00    +0.028 A 
ATOM     26  C   UNL     1       0.183   1.423   0.252  0.00  0.00    +0.049 A 
ATOM     27  C   UNL     1       1.145   1.675  -0.718  0.00  0.00    +0.028 A 
ATOM     28  C   UNL     1       2.064  -0.881   2.586  0.00  0.00    +0.044 C 
ENDBRANCH  19  26
ENDBRANCH  16  19
ENDBRANCH   1  16
TORSDOF 6
