REMARK  Name = ZINC67447171
REMARK  3 active torsions:
REMARK  status: ('A' for Active; 'I' for Inactive)
REMARK    1  A    between atoms: C_1  and  C_2
REMARK    2  A    between atoms: C_4  and  C_8
REMARK    3  A    between atoms: C_8  and  N_9
REMARK                            x       y       z     vdW  Elec       q    Type
REMARK                         _______ _______ _______ _____ _____    ______ ____
ROOT
ATOM      1  N   UNL     1       1.406  -3.558  -2.105  0.00  0.00    -0.294 NA
ATOM      2  C   UNL     1       2.307  -3.915  -1.001  0.00  0.00    +0.104 C 
ATOM      3  C   UNL     1       3.747  -3.973  -1.520  0.00  0.00    +0.123 C 
ATOM      4  N   UNL     1       3.791  -4.881  -2.677  0.00  0.00    -0.297 N 
ATOM      5  C   UNL     1       2.823  -4.670  -3.764  0.00  0.00    +0.123 C 
ATOM      6  C   UNL     1       1.419  -4.584  -3.156  0.00  0.00    +0.104 C 
ATOM      7  C   UNL     1       4.719  -5.907  -2.740  0.00  0.00    +0.218 A 
ATOM      8  N   UNL     1       5.572  -6.069  -1.740  0.00  0.00    -0.221 NA
ATOM      9  C   UNL     1       6.471  -7.039  -1.769  0.00  0.00    +0.136 A 
ATOM     10  C   UNL     1       6.513  -7.890  -2.863  0.00  0.00    +0.077 A 
ATOM     11  C   UNL     1       5.604  -7.691  -3.892  0.00  0.00    +0.136 A 
ATOM     12  N   UNL     1       4.728  -6.705  -3.797  0.00  0.00    -0.221 NA
ATOM     13 CL   UNL     1       7.676  -9.176  -2.943  0.00  0.00    -0.080 Cl
ENDROOT
BRANCH   1  14
ATOM     14  C   UNL     1       0.041  -3.324  -1.615  0.00  0.00    +0.140 C 
BRANCH  14  18
ATOM     15  C   UNL     1      -0.018   1.503   0.010  0.00  0.00    +0.069 C 
ATOM     16  C   UNL     1       0.002  -0.004   0.002  0.00  0.00    +0.078 A 
ATOM     17  C   UNL     1       0.008  -0.818  -1.136  0.00  0.00    +0.085 A 
ATOM     18  C   UNL     1       0.028  -2.108  -0.725  0.00  0.00    +0.069 A 
ATOM     19  N   UNL     1       0.034  -2.109   0.625  0.00  0.00    -0.279 N 
ATOM     20  H   UNL     1       0.048  -2.894   1.195  0.00  0.00    +0.189 HD
ATOM     21  N   UNL     1       0.023  -0.777   1.058  0.00  0.00    -0.177 NA
ATOM     22 CL   UNL     1      -0.008  -0.271  -2.784  0.00  0.00    -0.080 Cl
ENDBRANCH  14  18
ENDBRANCH   1  14
TORSDOF 2
