REMARK  Name = ZINC65623809
REMARK  7 active torsions:
REMARK  status: ('A' for Active; 'I' for Inactive)
REMARK    1  A    between atoms: C_3  and  C_6
REMARK    2  A    between atoms: C_6  and  C_7
REMARK    3  A    between atoms: C_7  and  N_8
REMARK    4  A    between atoms: N_11  and  N_12
REMARK    5  A    between atoms: C_13  and  C_15
REMARK    6  A    between atoms: C_15  and  N_16
REMARK    7  A    between atoms: C_17  and  C_19
REMARK                            x       y       z     vdW  Elec       q    Type
REMARK                         _______ _______ _______ _____ _____    ______ ____
ROOT
ATOM      1  N   UNL     1       8.195   3.427   1.337  0.00  0.00    -0.232 N 
ATOM      2  C   UNL     1       9.463   3.883   1.327  0.00  0.00    +0.246 C 
ATOM      3  O   UNL     1      10.044   4.082   2.373  0.00  0.00    -0.273 OA
ATOM      4  H   UNL     1       7.730   3.267   0.501  0.00  0.00    +0.173 HD
ENDROOT
BRANCH   1   8
ATOM      5  N   UNL     1       5.633   2.506   1.403  0.00  0.00    -0.298 N 
ATOM      6  C   UNL     1       6.279   2.728   2.565  0.00  0.00    +0.316 C 
ATOM      7  O   UNL     1       5.717   2.517   3.623  0.00  0.00    -0.251 OA
ATOM      8  N   UNL     1       7.547   3.184   2.555  0.00  0.00    -0.218 N 
ATOM      9  H   UNL     1       6.082   2.674   0.560  0.00  0.00    +0.150 HD
ATOM     10  H   UNL     1       8.012   3.344   3.392  0.00  0.00    +0.174 HD
BRANCH   5  11
ATOM     11  C   UNL     1       4.255   2.011   1.414  0.00  0.00    +0.111 C 
BRANCH  11  12
ATOM     12  C   UNL     1       3.761   1.845  -0.024  0.00  0.00    +0.061 C 
BRANCH  12  15
ATOM     13  C   UNL     1      -0.016   1.351   0.009  0.00  0.00    +0.008 A 
ATOM     14  C   UNL     1       1.183   2.038   0.002  0.00  0.00    +0.011 A 
ATOM     15  C   UNL     1       2.343   1.336  -0.013  0.00  0.00    -0.009 A 
ATOM     16  S   UNL     1       1.754  -0.349  -0.017  0.00  0.00    -0.102 S 
ATOM     17  C   UNL     1       0.002  -0.004   0.002  0.00  0.00    +0.045 A 
ENDBRANCH  12  15
ENDBRANCH  11  12
ENDBRANCH   5  11
ENDBRANCH   1   8
BRANCH   2  18
ATOM     18  C   UNL     1      10.159   4.144   0.016  0.00  0.00    +0.202 C 
BRANCH  18  19
ATOM     19  N   UNL     1      11.517   4.630   0.273  0.00  0.00    -0.303 N 
ATOM     20  C   UNL     1      12.332   4.931  -0.758  0.00  0.00    +0.245 C 
ATOM     21  O   UNL     1      11.939   4.800  -1.901  0.00  0.00    -0.270 OA
ATOM     22  H   UNL     1      11.831   4.734   1.185  0.00  0.00    +0.150 HD
BRANCH  20  23
ATOM     23  C   UNL     1      13.702   5.421  -0.498  0.00  0.00    +0.042 A 
ATOM     24  C   UNL     1      14.157   5.568   0.813  0.00  0.00    +0.051 A 
ATOM     25  C   UNL     1      15.439   6.026   1.049  0.00  0.00    +0.127 A 
ATOM     26  C   UNL     1      16.272   6.341  -0.012  0.00  0.00    +0.076 A 
ATOM     27  C   UNL     1      15.825   6.197  -1.315  0.00  0.00    +0.127 A 
ATOM     28  C   UNL     1      14.547   5.734  -1.564  0.00  0.00    +0.051 A 
ATOM     29  F   UNL     1      16.643   6.506  -2.346  0.00  0.00    -0.205 F 
ATOM     30  F   UNL     1      15.881   6.169   2.318  0.00  0.00    -0.205 F 
ENDBRANCH  20  23
ENDBRANCH  18  19
ENDBRANCH   2  18
TORSDOF 7
