REMARK  Name = ZINC67211971
REMARK  9 active torsions:
REMARK  status: ('A' for Active; 'I' for Inactive)
REMARK    1  A    between atoms: C_1  and  C_2
REMARK    2  A    between atoms: C_2  and  C_3
REMARK    3  A    between atoms: C_2  and  C_4
REMARK    4  A    between atoms: C_2  and  O_5
REMARK    5  A    between atoms: O_5  and  C_6
REMARK    6  A    between atoms: N_8  and  C_9
REMARK    7  A    between atoms: C_9  and  C_10
REMARK    8  A    between atoms: N_12  and  C_13
REMARK    9  A    between atoms: C_16  and  C_19
REMARK                            x       y       z     vdW  Elec       q    Type
REMARK                         _______ _______ _______ _____ _____    ______ ____
ROOT
ATOM      1  C   UNL     1       6.413  -0.983  -5.395  0.00  0.00    +0.033 A 
ATOM      2  C   UNL     1       5.635  -1.768  -6.237  0.00  0.00    +0.024 A 
ATOM      3  C   UNL     1       6.197  -2.344  -7.357  0.00  0.00    +0.012 A 
ATOM      4  C   UNL     1       7.545  -2.139  -7.644  0.00  0.00    -0.000 A 
ATOM      5  C   UNL     1       8.323  -1.351  -6.798  0.00  0.00    +0.012 A 
ATOM      6  C   UNL     1       7.756  -0.772  -5.682  0.00  0.00    +0.024 A 
ENDROOT
BRANCH   4   7
ATOM      7  C   UNL     1       8.151  -2.758  -8.848  0.00  0.00    +0.064 A 
ATOM      8  C   UNL     1       7.510  -3.541  -9.757  0.00  0.00    +0.113 A 
ATOM      9  N   UNL     1       8.436  -3.890 -10.692  0.00  0.00    -0.335 N 
ATOM     10  C   UNL     1       9.613  -3.320 -10.336  0.00  0.00    +0.087 A 
ATOM     11  N   UNL     1       9.438  -2.641  -9.241  0.00  0.00    -0.343 N 
ATOM     12  C   UNL     1      10.895  -3.472 -11.121  0.00  0.00    +0.072 C 
ATOM     13  C   UNL     1      10.729  -4.651 -12.088  0.00  0.00    +0.009 C 
ATOM     14  C   UNL     1       9.406  -4.500 -12.844  0.00  0.00    +0.022 C 
ATOM     15  C   UNL     1       8.237  -4.726 -11.879  0.00  0.00    +0.123 C 
ATOM     16  H   UNL     1      10.123  -2.134  -8.779  0.00  0.00    +0.167 HD
ENDBRANCH   4   7
BRANCH   1  19
ATOM     17  C   UNL     1       4.888  -1.057  -3.571  0.00  0.00    +0.234 C 
ATOM     18  O   UNL     1       4.465  -2.117  -3.982  0.00  0.00    -0.274 OA
ATOM     19  N   UNL     1       5.841  -0.399  -4.259  0.00  0.00    -0.284 N 
ATOM     20  H   UNL     1       6.131   0.480  -3.967  0.00  0.00    +0.155 HD
BRANCH  17  21
ATOM     21  C   UNL     1       4.346  -0.476  -2.290  0.00  0.00    +0.203 C 
BRANCH  21  24
ATOM     22  C   UNL     1       2.702  -1.056  -0.588  0.00  0.00    +0.401 C 
ATOM     23  O   UNL     1       2.982  -0.025  -0.008  0.00  0.00    -0.226 OA
ATOM     24  N   UNL     1       3.328  -1.373  -1.738  0.00  0.00    -0.273 N 
ATOM     25  H   UNL     1       3.105  -2.196  -2.201  0.00  0.00    +0.153 HD
BRANCH  22  26
ATOM     26  O   UNL     1       1.767  -1.881  -0.081  0.00  0.00    -0.445 OA
BRANCH  26  28
ATOM     27  C   UNL     1       0.441  -0.138   0.941  0.00  0.00    +0.055 C 
ATOM     28  C   UNL     1       1.144  -1.482   1.142  0.00  0.00    +0.107 C 
ATOM     29  C   UNL     1       2.206  -1.344   2.234  0.00  0.00    +0.055 C 
ATOM     30  C   UNL     1       0.117  -2.537   1.559  0.00  0.00    +0.055 C 
ENDBRANCH  26  28
ENDBRANCH  22  26
ENDBRANCH  21  24
ENDBRANCH  17  21
ENDBRANCH   1  19
TORSDOF 6
