REMARK  Name = ZINC37521800
REMARK  8 active torsions:
REMARK  status: ('A' for Active; 'I' for Inactive)
REMARK    1  A    between atoms: C_1  and  C_2
REMARK    2  A    between atoms: C_7  and  C_8
REMARK    3  A    between atoms: C_8  and  N_9
REMARK    4  A    between atoms: N_12  and  C_18
REMARK    5  A    between atoms: C_15  and  C_17
REMARK    6  A    between atoms: C_21  and  C_24
REMARK    7  A    between atoms: C_24  and  C_25
REMARK    8  A    between atoms: C_24  and  C_26
REMARK                            x       y       z     vdW  Elec       q    Type
REMARK                         _______ _______ _______ _____ _____    ______ ____
ROOT
ATOM      1  N   UNL     1      -1.628   0.369   2.585  0.00  0.00    +0.391 N 
ATOM      2  C   UNL     1      -1.989   1.631   1.920  0.00  0.00    -0.058 C 
ATOM      3  C   UNL     1      -3.512   1.772   1.923  0.00  0.00    +0.095 C 
ATOM      4  N   UNL     1      -4.028   1.568   3.274  0.00  0.00    -0.275 N 
ATOM      5  C   UNL     1      -3.312   0.976   4.237  0.00  0.00    +0.206 C 
ATOM      6  O   UNL     1      -3.820   0.822   5.328  0.00  0.00    -0.277 OA
ATOM      7  C   UNL     1      -1.906   0.493   4.022  0.00  0.00    +0.017 C 
ATOM      8  C   UNL     1      -1.729  -0.870   4.692  0.00  0.00    -0.004 C 
ATOM      9  H   UNL     1      -2.174  -0.386   2.200  0.00  0.00    -0.080 HD
ENDROOT
BRANCH   4  10
ATOM     10  C   UNL     1      -5.321   2.010   3.573  0.00  0.00    +0.036 A 
ATOM     11  C   UNL     1      -5.514   3.260   4.148  0.00  0.00    +0.024 A 
ATOM     12  C   UNL     1      -6.792   3.693   4.443  0.00  0.00    +0.006 A 
ATOM     13  C   UNL     1      -7.878   2.884   4.166  0.00  0.00    -0.045 A 
ATOM     14  C   UNL     1      -7.690   1.639   3.594  0.00  0.00    +0.006 A 
ATOM     15  C   UNL     1      -6.415   1.203   3.291  0.00  0.00    +0.024 A 
BRANCH  13  16
ATOM     16  C   UNL     1      -9.271   3.360   4.489  0.00  0.00    +0.013 C 
ATOM     17  C   UNL     1     -10.103   3.413   3.206  0.00  0.00    +0.012 C 
ATOM     18  C   UNL     1      -9.924   2.394   5.480  0.00  0.00    +0.012 C 
ENDBRANCH  13  16
ENDBRANCH   4  10
BRANCH   1  19
ATOM     19  C   UNL     1      -0.199   0.097   2.382  0.00  0.00    -0.042 C 
BRANCH  19  26
ATOM     20  C   UNL     1      -1.024  -2.385   1.155  0.00  0.00    +0.044 C 
ATOM     21  C   UNL     1      -0.331  -1.330   0.331  0.00  0.00    -0.049 A 
ATOM     22  C   UNL     1      -0.096  -1.548  -1.014  0.00  0.00    +0.003 A 
ATOM     23  C   UNL     1       0.540  -0.581  -1.770  0.00  0.00    +0.000 A 
ATOM     24  C   UNL     1       0.939   0.604  -1.181  0.00  0.00    +0.000 A 
ATOM     25  C   UNL     1       0.703   0.823   0.163  0.00  0.00    +0.002 A 
ATOM     26  C   UNL     1       0.064  -0.143   0.918  0.00  0.00    -0.061 A 
ENDBRANCH  19  26
ENDBRANCH   1  19
TORSDOF 4
