REMARK  Name = ZINC02682676
REMARK  6 active torsions:
REMARK  status: ('A' for Active; 'I' for Inactive)
REMARK    1  A    between atoms: C_1  and  C_2
REMARK    2  A    between atoms: C_5  and  N_8
REMARK    3  A    between atoms: C_12  and  C_13
REMARK    4  A    between atoms: C_16  and  C_19
REMARK    5  A    between atoms: C_19  and  C_20
REMARK    6  A    between atoms: C_19  and  C_21
REMARK                            x       y       z     vdW  Elec       q    Type
REMARK                         _______ _______ _______ _____ _____    ______ ____
ROOT
ATOM      1  N   UNL     1      -1.272   2.014  -0.645  0.00  0.00    -0.224 N 
ATOM      2  C   UNL     1      -0.282   1.352  -0.070  0.00  0.00    +0.263 C 
ATOM      3  O   UNL     1      -0.443   0.241   0.399  0.00  0.00    -0.269 OA
ATOM      4  C   UNL     1       1.032   2.028  -0.032  0.00  0.00    +0.077 C 
ATOM      5  C   UNL     1       2.211   1.598   0.481  0.00  0.00    +0.028 C 
ATOM      6  S   UNL     1       0.638   3.570  -0.847  0.00  0.00    -0.061 S 
ATOM      7  C   UNL     1      -1.090   3.247  -1.159  0.00  0.00    +0.125 C 
ATOM      8  S   UNL     1      -2.237   4.257  -1.930  0.00  0.00    -0.027 S 
ENDROOT
BRANCH   1  13
ATOM      9  C   UNL     1      -6.408  -0.381  -0.939  0.00  0.00    +0.044 C 
ATOM     10  C   UNL     1      -5.044   0.254  -0.861  0.00  0.00    -0.050 A 
ATOM     11  C   UNL     1      -3.996  -0.269  -1.595  0.00  0.00    +0.005 A 
ATOM     12  C   UNL     1      -2.744   0.312  -1.526  0.00  0.00    +0.024 A 
ATOM     13  C   UNL     1      -2.540   1.422  -0.718  0.00  0.00    +0.043 A 
ATOM     14  C   UNL     1      -3.593   1.942   0.023  0.00  0.00    +0.024 A 
ATOM     15  C   UNL     1      -4.843   1.360  -0.055  0.00  0.00    +0.005 A 
ENDBRANCH   1  13
BRANCH   5  16
ATOM     16  C   UNL     1       3.435   2.385   0.270  0.00  0.00    -0.024 A 
ATOM     17  C   UNL     1       3.430   3.472  -0.610  0.00  0.00    +0.008 A 
ATOM     18  C   UNL     1       4.580   4.208  -0.798  0.00  0.00    +0.004 A 
ATOM     19  C   UNL     1       5.742   3.867  -0.127  0.00  0.00    -0.045 A 
ATOM     20  C   UNL     1       5.757   2.789   0.742  0.00  0.00    +0.004 A 
ATOM     21  C   UNL     1       4.614   2.046   0.945  0.00  0.00    +0.008 A 
BRANCH  19  22
ATOM     22  C   UNL     1       6.996   4.673  -0.343  0.00  0.00    +0.013 C 
ATOM     23  C   UNL     1       7.390   4.618  -1.820  0.00  0.00    +0.012 C 
ATOM     24  C   UNL     1       6.745   6.127   0.064  0.00  0.00    +0.012 C 
ENDBRANCH  19  22
ENDBRANCH   5  16
TORSDOF 3
