REMARK  Name = ZINC43002029
REMARK  7 active torsions:
REMARK  status: ('A' for Active; 'I' for Inactive)
REMARK    1  A    between atoms: C_1  and  C_2
REMARK    2  A    between atoms: C_2  and  C_3
REMARK    3  A    between atoms: C_3  and  C_4
REMARK    4  A    between atoms: C_4  and  C_6
REMARK    5  A    between atoms: C_4  and  N_7
REMARK    6  A    between atoms: N_10  and  N_11
REMARK    7  A    between atoms: C_12  and  C_14
REMARK                            x       y       z     vdW  Elec       q    Type
REMARK                         _______ _______ _______ _____ _____    ______ ____
ROOT
ATOM      1  N   UNL     1      -0.631  -2.534  -1.375  0.00  0.00    -0.296 N 
ATOM      2  C   UNL     1      -0.935  -3.763  -0.912  0.00  0.00    +0.316 C 
ATOM      3  O   UNL     1      -0.071  -4.451  -0.403  0.00  0.00    -0.251 OA
ATOM      4  N   UNL     1      -2.196  -4.228  -1.013  0.00  0.00    -0.218 N 
ATOM      5  H   UNL     1      -1.320  -1.985  -1.781  0.00  0.00    +0.151 HD
ATOM      6  H   UNL     1      -2.414  -5.113  -0.680  0.00  0.00    +0.174 HD
ENDROOT
BRANCH   4   7
ATOM      7  N   UNL     1      -3.190  -3.435  -1.600  0.00  0.00    -0.228 N 
ATOM      8  C   UNL     1      -4.451  -3.901  -1.701  0.00  0.00    +0.276 C 
ATOM      9  O   UNL     1      -4.725  -5.011  -1.283  0.00  0.00    -0.267 OA
ATOM     10  H   UNL     1      -2.972  -2.551  -1.933  0.00  0.00    +0.173 HD
BRANCH   8  11
ATOM     11  C   UNL     1      -5.493  -3.071  -2.315  0.00  0.00    +0.104 A 
ATOM     12  C   UNL     1      -6.818  -3.415  -2.479  0.00  0.00    +0.047 A 
ATOM     13  C   UNL     1      -7.449  -2.334  -3.104  0.00  0.00    +0.036 A 
ATOM     14  C   UNL     1      -6.518  -1.371  -3.308  0.00  0.00    +0.098 A 
ATOM     15  N   UNL     1      -5.326  -1.804  -2.828  0.00  0.00    -0.356 N 
ATOM     16  H   UNL     1      -4.494  -1.306  -2.845  0.00  0.00    +0.166 HD
ATOM     17 BR   UNL     1      -9.276  -2.237  -3.583  0.00  0.00    -0.049 Br
ENDBRANCH   8  11
ENDBRANCH   4   7
BRANCH   1  18
ATOM     18  C   UNL     1       0.739  -2.027  -1.265  0.00  0.00    +0.071 C 
ATOM     19  C   UNL     1       1.562  -2.520  -2.457  0.00  0.00    +0.028 C 
BRANCH  18  20
ATOM     20  C   UNL     1       0.718  -0.497  -1.257  0.00  0.00    +0.022 C 
BRANCH  20  22
ATOM     21  C   UNL     1      -0.019   1.526   0.010  0.00  0.00    +0.004 C 
ATOM     22  C   UNL     1       0.002  -0.004   0.002  0.00  0.00    -0.002 C 
ENDBRANCH  20  22
ENDBRANCH  18  20
ENDBRANCH   1  18
TORSDOF 5
