REMARK  Name = ZINC10372897
REMARK  5 active torsions:
REMARK  status: ('A' for Active; 'I' for Inactive)
REMARK    1  A    between atoms: C_3  and  N_26
REMARK    2  A    between atoms: C_6  and  C_7
REMARK    3  A    between atoms: C_7  and  C_12
REMARK    4  A    between atoms: N_14  and  C_15
REMARK    5  A    between atoms: C_16  and  C_24
REMARK                            x       y       z     vdW  Elec       q    Type
REMARK                         _______ _______ _______ _____ _____    ______ ____
ROOT
ATOM      1  C   UNL     1      -2.289   7.225  -2.900  0.00  0.00    +0.228 C 
ATOM      2  O   UNL     1      -2.156   6.361  -3.740  0.00  0.00    -0.274 OA
ATOM      3  N   UNL     1      -2.012   6.957  -1.608  0.00  0.00    -0.278 N 
ATOM      4  H   UNL     1      -2.045   7.667  -0.948  0.00  0.00    +0.155 HD
ENDROOT
BRANCH   3   5
ATOM      5  C   UNL     1      -1.680   5.666  -1.223  0.00  0.00    +0.090 A 
ATOM      6  C   UNL     1      -1.367   5.198   0.044  0.00  0.00    +0.084 A 
ATOM      7  C   UNL     1      -1.054   3.787   0.181  0.00  0.00    -0.018 A 
ATOM      8  C   UNL     1      -1.104   3.072  -0.965  0.00  0.00    -0.004 A 
ATOM      9  S   UNL     1      -1.559   4.246  -2.209  0.00  0.00    -0.077 S 
ATOM     10  C   UNL     1      -0.832   1.609  -1.129  0.00  0.00    +0.043 C 
ATOM     11  C   UNL     1      -0.120   1.104   0.134  0.00  0.00    +0.005 C 
ATOM     12  C   UNL     1      -0.876   1.611   1.366  0.00  0.00    +0.005 C 
ATOM     13  C   UNL     1      -0.692   3.123   1.504  0.00  0.00    +0.037 C 
BRANCH   6  14
ATOM     14  C   UNL     1      -1.353   6.075   1.176  0.00  0.00    +0.102 C 
ATOM     15  N   UNL     1      -1.341   6.771   2.074  0.00  0.00    -0.191 NA
ENDBRANCH   6  14
ENDBRANCH   3   5
BRANCH   1  16
ATOM     16  C   UNL     1      -2.764   8.598  -3.299  0.00  0.00    +0.072 C 
ATOM     17  C   UNL     1      -4.031   8.968  -2.509  0.00  0.00    +0.021 C 
ATOM     18  C   UNL     1      -5.150   9.190  -3.548  0.00  0.00    +0.001 C 
ATOM     19  C   UNL     1      -4.688   8.377  -4.783  0.00  0.00    +0.001 C 
ATOM     20  C   UNL     1      -3.156   8.609  -4.791  0.00  0.00    +0.021 C 
BRANCH  16  26
ATOM     21  C   UNL     1      -0.429   9.200  -2.626  0.00  0.00    +0.007 A 
ATOM     22  C   UNL     1       0.566  10.131  -2.396  0.00  0.00    +0.033 A 
ATOM     23  C   UNL     1       0.308  11.477  -2.574  0.00  0.00    +0.126 A 
ATOM     24  C   UNL     1      -0.945  11.892  -2.987  0.00  0.00    +0.033 A 
ATOM     25  C   UNL     1      -1.939  10.960  -3.221  0.00  0.00    +0.007 A 
ATOM     26  C   UNL     1      -1.680   9.614  -3.044  0.00  0.00    -0.032 A 
BRANCH  23  27
ATOM     27  N   UNL     1       1.372  12.474  -2.323  0.00  0.00    +0.056 N 
ATOM     28  O   UNL     1       1.145  13.661  -2.480  0.00  0.00    -0.126 OA
ATOM     29  O   UNL     1       2.476  12.109  -1.959  0.00  0.00    -0.126 OA
ENDBRANCH  23  27
ENDBRANCH  16  26
ENDBRANCH   1  16
TORSDOF 5
