REMARK  Name = ZINC22852459
REMARK  7 active torsions:
REMARK  status: ('A' for Active; 'I' for Inactive)
REMARK    1  A    between atoms: C_1  and  O_2
REMARK    2  A    between atoms: O_2  and  C_3
REMARK    3  A    between atoms: C_7  and  C_9
REMARK    4  A    between atoms: C_9  and  C_11
REMARK    5  A    between atoms: C_9  and  N_25
REMARK    6  A    between atoms: C_12  and  O_24
REMARK    7  A    between atoms: C_17  and  C_19
REMARK                            x       y       z     vdW  Elec       q    Type
REMARK                         _______ _______ _______ _____ _____    ______ ____
ROOT
ATOM      1  C   UNL     1       1.389  -4.130   2.211  0.00  0.00    +0.130 C 
ENDROOT
BRANCH   1   2
ATOM      2  C   UNL     1       2.744  -4.507   1.673  0.00  0.00    +0.076 A 
ATOM      3  C   UNL     1       3.054  -5.146   0.539  0.00  0.00    +0.228 A 
ATOM      4  N   UNL     1       4.364  -5.403   0.213  0.00  0.00    -0.173 N 
ATOM      5  C   UNL     1       5.320  -4.977   1.095  0.00  0.00    +0.200 A 
ATOM      6  S   UNL     1       4.359  -4.209   2.377  0.00  0.00    -0.047 S 
ATOM      7  N   UNL     1       6.503  -5.293   0.647  0.00  0.00    -0.197 NA
ATOM      8  C   UNL     1       6.377  -5.928  -0.526  0.00  0.00    +0.218 A 
ATOM      9  N   UNL     1       5.101  -6.019  -0.831  0.00  0.00    -0.138 NA
BRANCH   8  10
ATOM     10  C   UNL     1       7.494  -6.443  -1.346  0.00  0.00    +0.173 A 
ATOM     11  C   UNL     1       8.815  -6.360  -1.037  0.00  0.00    +0.053 A 
ATOM     12  C   UNL     1       9.518  -6.977  -2.091  0.00  0.00    +0.042 A 
ATOM     13  C   UNL     1       8.601  -7.402  -2.982  0.00  0.00    +0.196 A 
ATOM     14  O   UNL     1       7.379  -7.082  -2.526  0.00  0.00    -0.460 OA
ENDBRANCH   8  10
BRANCH   3  15
ATOM     15  O   UNL     1       2.061  -5.547  -0.301  0.00  0.00    -0.492 OA
ATOM     16  H   UNL     1       2.377  -6.001  -1.094  0.00  0.00    +0.294 HD
ENDBRANCH   3  15
ENDBRANCH   1   2
BRANCH   1  21
ATOM     17  C   UNL     1       0.363  -0.594   1.358  0.00  0.00    +0.120 A 
ATOM     18  C   UNL     1       1.039   0.130   2.330  0.00  0.00    +0.045 A 
ATOM     19  C   UNL     1       1.823  -0.527   3.259  0.00  0.00    +0.004 A 
ATOM     20  C   UNL     1       1.935  -1.905   3.219  0.00  0.00    +0.006 A 
ATOM     21  C   UNL     1       1.264  -2.628   2.251  0.00  0.00    -0.022 A 
ATOM     22  C   UNL     1       0.473  -1.976   1.324  0.00  0.00    +0.051 A 
BRANCH  17  24
ATOM     23  C   UNL     1      -0.475   1.474   0.539  0.00  0.00    +0.277 C 
ATOM     24  O   UNL     1      -0.409   0.050   0.444  0.00  0.00    -0.495 OA
ENDBRANCH  17  24
ENDBRANCH   1  21
BRANCH   1  25
ATOM     25  N   UNL     1       1.233  -4.670   3.568  0.00  0.00    -0.287 NA
ATOM     26  C   UNL     1       1.442  -6.125   3.583  0.00  0.00    +0.113 C 
ATOM     27  C   UNL     1       1.330  -6.638   5.021  0.00  0.00    +0.175 C 
ATOM     28  O   UNL     1       0.056  -6.268   5.555  0.00  0.00    -0.377 OA
ATOM     29  C   UNL     1      -0.181  -4.857   5.557  0.00  0.00    +0.175 C 
ATOM     30  C   UNL     1      -0.084  -4.327   4.124  0.00  0.00    +0.113 C 
ENDBRANCH   1  25
TORSDOF 6
