REMARK  Name = ZINC59595184
REMARK  8 active torsions:
REMARK  status: ('A' for Active; 'I' for Inactive)
REMARK    1  A    between atoms: C_1  and  C_2
REMARK    2  A    between atoms: C_2  and  C_3
REMARK    3  A    between atoms: C_6  and  N_9
REMARK    4  A    between atoms: C_13  and  C_14
REMARK    5  A    between atoms: C_16  and  C_27
REMARK    6  A    between atoms: N_17  and  C_20
REMARK    7  A    between atoms: C_18  and  C_19
REMARK    8  A    between atoms: N_30  and  C_33
REMARK                            x       y       z     vdW  Elec       q    Type
REMARK                         _______ _______ _______ _____ _____    ______ ____
ROOT
ATOM      1  N   UNL     1      -5.481  -1.461  -0.007  0.00  0.00    -0.217 N 
ATOM      2  C   UNL     1      -6.023  -1.997  -1.119  0.00  0.00    +0.262 C 
ATOM      3  O   UNL     1      -5.331  -2.277  -2.080  0.00  0.00    -0.269 OA
ATOM      4  C   UNL     1      -7.479  -2.234  -1.140  0.00  0.00    +0.100 C 
ATOM      5  C   UNL     1      -8.106  -2.782  -2.247  0.00  0.00    +0.028 C 
ATOM      6  C   UNL     1      -8.236  -1.863   0.070  0.00  0.00    +0.257 C 
ATOM      7  O   UNL     1      -9.440  -2.030   0.128  0.00  0.00    -0.269 OA
ATOM      8  N   UNL     1      -7.558  -1.336   1.109  0.00  0.00    -0.252 N 
ATOM      9  C   UNL     1      -6.231  -1.153   1.060  0.00  0.00    +0.153 C 
ATOM     10  S   UNL     1      -5.454  -0.483   2.431  0.00  0.00    -0.017 S 
ATOM     11  C   UNL     1      -8.288  -0.959   2.323  0.00  0.00    +0.140 C 
ENDROOT
BRANCH   5  12
ATOM     12  C   UNL     1      -9.464  -3.175  -2.168  0.00  0.00    -0.003 A 
ATOM     13  C   UNL     1     -10.109  -3.920  -1.077  0.00  0.00    +0.031 A 
ATOM     14  C   UNL     1     -11.397  -4.066  -1.428  0.00  0.00    +0.022 A 
ATOM     15  N   UNL     1     -11.603  -3.475  -2.644  0.00  0.00    -0.317 N 
ATOM     16  C   UNL     1     -10.460  -2.930  -3.102  0.00  0.00    +0.028 A 
ATOM     17  C   UNL     1     -10.292  -2.189  -4.403  0.00  0.00    +0.064 C 
ATOM     18  C   UNL     1     -12.449  -4.772  -0.612  0.00  0.00    +0.064 C 
BRANCH  15  19
ATOM     19  C   UNL     1     -12.832  -3.437  -3.317  0.00  0.00    +0.047 A 
ATOM     20  C   UNL     1     -12.985  -4.103  -4.525  0.00  0.00    +0.027 A 
ATOM     21  C   UNL     1     -14.197  -4.065  -5.186  0.00  0.00    +0.017 A 
ATOM     22  C   UNL     1     -15.259  -3.362  -4.644  0.00  0.00    +0.018 A 
ATOM     23  C   UNL     1     -15.110  -2.697  -3.440  0.00  0.00    +0.017 A 
ATOM     24  C   UNL     1     -13.901  -2.737  -2.773  0.00  0.00    +0.027 A 
ATOM     25 BR   UNL     1     -16.918  -3.312  -5.551  0.00  0.00    -0.050 Br
ENDBRANCH  15  19
ENDBRANCH   5  12
BRANCH   1  29
ATOM     26  C   UNL     1      -1.374  -0.763   0.121  0.00  0.00    -0.048 A 
ATOM     27  C   UNL     1      -1.881  -1.977   0.548  0.00  0.00    +0.005 A 
ATOM     28  C   UNL     1      -3.242  -2.211   0.507  0.00  0.00    +0.024 A 
ATOM     29  C   UNL     1      -4.100  -1.226   0.037  0.00  0.00    +0.043 A 
ATOM     30  C   UNL     1      -3.588  -0.009  -0.391  0.00  0.00    +0.024 A 
ATOM     31  C   UNL     1      -2.227   0.221  -0.342  0.00  0.00    +0.005 A 
BRANCH  26  33
ATOM     32  C   UNL     1       0.483   0.093   1.524  0.00  0.00    +0.009 C 
ATOM     33  C   UNL     1       0.111  -0.511   0.168  0.00  0.00    +0.032 C 
ENDBRANCH  26  33
ENDBRANCH   1  29
TORSDOF 4
