REMARK  Name = ZINC33469973
REMARK  5 active torsions:
REMARK  status: ('A' for Active; 'I' for Inactive)
REMARK    1  A    between atoms: C_1  and  C_2
REMARK    2  A    between atoms: C_7  and  N_29
REMARK    3  A    between atoms: C_8  and  C_13
REMARK    4  A    between atoms: N_17  and  C_21
REMARK    5  A    between atoms: C_21  and  C_22
REMARK                            x       y       z     vdW  Elec       q    Type
REMARK                         _______ _______ _______ _____ _____    ______ ____
ROOT
ATOM      1  C   UNL     1      -6.209  -1.095   1.746  0.00  0.00    +0.045 C 
ATOM      2  C   UNL     1      -6.055  -1.611   0.338  0.00  0.00    -0.034 A 
ATOM      3  C   UNL     1      -7.156  -1.616  -0.529  0.00  0.00    +0.008 A 
ATOM      4  C   UNL     1      -7.008  -2.085  -1.801  0.00  0.00    +0.047 A 
ATOM      5  C   UNL     1      -5.752  -2.555  -2.225  0.00  0.00    +0.142 A 
ATOM      6  N   UNL     1      -5.617  -3.011  -3.470  0.00  0.00    -0.214 NA
ATOM      7  C   UNL     1      -4.455  -3.460  -3.924  0.00  0.00    +0.136 A 
ATOM      8  C   UNL     1      -3.329  -3.472  -3.067  0.00  0.00    +0.081 A 
ATOM      9  C   UNL     1      -3.485  -2.986  -1.747  0.00  0.00    +0.267 A 
ATOM     10  O   UNL     1      -2.540  -2.973  -0.976  0.00  0.00    -0.267 OA
ATOM     11  N   UNL     1      -4.697  -2.538  -1.355  0.00  0.00    -0.267 N 
ATOM     12  C   UNL     1      -4.856  -2.068  -0.086  0.00  0.00    +0.099 A 
ENDROOT
BRANCH   8  13
ATOM     13  C   UNL     1      -2.078  -3.951  -3.521  0.00  0.00    +0.037 C 
ATOM     14  C   UNL     1      -1.018  -3.099  -3.625  0.00  0.00    +0.077 C 
ATOM     15  C   UNL     1      -0.935  -1.712  -3.310  0.00  0.00    +0.259 C 
ATOM     16  O   UNL     1      -1.903  -1.109  -2.878  0.00  0.00    -0.269 OA
ATOM     17  N   UNL     1       0.218  -1.097  -3.503  0.00  0.00    -0.251 N 
ATOM     18  C   UNL     1       1.292  -1.767  -3.977  0.00  0.00    +0.121 C 
ATOM     19  S   UNL     1       2.869  -1.180  -4.295  0.00  0.00    -0.027 S 
ATOM     20  S   UNL     1       0.649  -3.420  -4.186  0.00  0.00    -0.061 S 
BRANCH  17  21
ATOM     21  C   UNL     1       0.336   0.331  -3.195  0.00  0.00    +0.151 C 
BRANCH  21  22
ATOM     22  C   UNL     1       0.175   1.133  -4.461  0.00  0.00    -0.011 A 
ATOM     23  C   UNL     1       1.290   1.519  -5.180  0.00  0.00    +0.006 A 
ATOM     24  C   UNL     1       1.143   2.255  -6.341  0.00  0.00    +0.000 A 
ATOM     25  C   UNL     1      -0.120   2.604  -6.784  0.00  0.00    +0.001 A 
ATOM     26  C   UNL     1      -1.236   2.218  -6.065  0.00  0.00    +0.020 A 
ATOM     27  C   UNL     1      -1.089   1.482  -4.902  0.00  0.00    +0.046 A 
ATOM     28 CL   UNL     1      -2.489   0.997  -3.999  0.00  0.00    -0.083 Cl
ENDBRANCH  21  22
ENDBRANCH  17  21
ENDBRANCH   8  13
BRANCH   7  29
ATOM     29  N   UNL     1      -4.347  -3.918  -5.219  0.00  0.00    -0.315 N 
ATOM     30  C   UNL     1      -3.367  -3.116  -5.985  0.00  0.00    +0.106 C 
ATOM     31  C   UNL     1      -3.410  -3.397  -7.462  0.00  0.00    +0.019 C 
ATOM     32  C   UNL     1      -4.351  -2.371  -8.128  0.00  0.00    +0.002 C 
ATOM     33  C   UNL     1      -5.757  -2.710  -7.941  0.00  0.00    +0.002 C 
ATOM     34  C   UNL     1      -6.156  -2.739  -6.451  0.00  0.00    +0.019 C 
ATOM     35  C   UNL     1      -5.679  -4.035  -5.854  0.00  0.00    +0.106 C 
ENDBRANCH   7  29
TORSDOF 4
