REMARK  Name = ZINC16133832
REMARK  5 active torsions:
REMARK  status: ('A' for Active; 'I' for Inactive)
REMARK    1  A    between atoms: C_3  and  C_10
REMARK    2  A    between atoms: C_5  and  N_7
REMARK    3  A    between atoms: C_10  and  O_12
REMARK    4  A    between atoms: O_12  and  N_13
REMARK    5  A    between atoms: C_14  and  C_15
REMARK                            x       y       z     vdW  Elec       q    Type
REMARK                         _______ _______ _______ _____ _____    ______ ____
ROOT
ATOM      1  O   UNL     1       3.640   3.509   0.081  0.00  0.00    -0.310 OA
ENDROOT
BRANCH   1   2
ATOM      2  N   UNL     1       4.923   4.106   0.141  0.00  0.00    -0.059 NA
ATOM      3  C   UNL     1       5.051   5.391  -0.019  0.00  0.00    +0.163 C 
ATOM      4  N   UNL     1       6.310   5.957  -0.100  0.00  0.00    -0.340 N 
ATOM      5  H   UNL     1       7.099   5.395  -0.037  0.00  0.00    +0.144 HD
ATOM      6  H   UNL     1       6.405   6.914  -0.220  0.00  0.00    +0.144 HD
BRANCH   3   7
ATOM      7  C   UNL     1       3.848   6.248  -0.115  0.00  0.00    +0.018 A 
ATOM      8  C   UNL     1       2.656   5.853   0.493  0.00  0.00    +0.012 A 
ATOM      9  C   UNL     1       1.538   6.656   0.401  0.00  0.00    +0.016 A 
ATOM     10  C   UNL     1       1.597   7.852  -0.293  0.00  0.00    +0.018 A 
ATOM     11  C   UNL     1       2.777   8.250  -0.899  0.00  0.00    +0.016 A 
ATOM     12  C   UNL     1       3.903   7.457  -0.809  0.00  0.00    +0.012 A 
ATOM     13 BR   UNL     1       0.060   8.947  -0.415  0.00  0.00    -0.050 Br
ENDBRANCH   3   7
ENDBRANCH   1   2
BRANCH   1  14
ATOM     14  C   UNL     1       3.648   2.175   0.263  0.00  0.00    +0.366 C 
ATOM     15  O   UNL     1       4.698   1.595   0.457  0.00  0.00    -0.243 OA
BRANCH  14  18
ATOM     16  C   UNL     1      -0.007   1.367  -0.029  0.00  0.00    +0.003 A 
ATOM     17  C   UNL     1       1.173   2.081   0.004  0.00  0.00    +0.015 A 
ATOM     18  C   UNL     1       2.381   1.417   0.227  0.00  0.00    +0.063 A 
ATOM     19  C   UNL     1       2.386   0.033   0.414  0.00  0.00    +0.047 A 
ATOM     20  C   UNL     1       1.199  -0.668   0.379  0.00  0.00    +0.127 A 
ATOM     21  C   UNL     1       0.005  -0.004   0.157  0.00  0.00    +0.033 A 
BRANCH  20  22
ATOM     22  N   UNL     1       1.202  -2.135   0.577  0.00  0.00    +0.056 N 
ATOM     23  O   UNL     1       2.244  -2.717   0.771  0.00  0.00    -0.126 OA
ATOM     24  O   UNL     1       0.162  -2.751   0.546  0.00  0.00    -0.126 OA
ENDBRANCH  20  22
ENDBRANCH  14  18
ENDBRANCH   1  14
TORSDOF 5
