REMARK  Name = ZINC59265448
REMARK  7 active torsions:
REMARK  status: ('A' for Active; 'I' for Inactive)
REMARK    1  A    between atoms: C_1  and  N_2
REMARK    2  A    between atoms: N_7  and  S_8
REMARK    3  A    between atoms: S_8  and  C_11
REMARK    4  A    between atoms: C_15  and  N_17
REMARK    5  A    between atoms: C_18  and  C_20
REMARK    6  A    between atoms: C_21  and  C_22
REMARK    7  A    between atoms: C_26  and  N_28
REMARK                            x       y       z     vdW  Elec       q    Type
REMARK                         _______ _______ _______ _____ _____    ______ ____
ROOT
ATOM      1  C   UNL     1       4.913  -0.427  -0.969  0.00  0.00    +0.114 A 
ATOM      2  C   UNL     1       5.310  -0.564  -2.286  0.00  0.00    +0.029 A 
ATOM      3  C   UNL     1       6.510  -0.023  -2.710  0.00  0.00    +0.004 A 
ATOM      4  C   UNL     1       7.315   0.658  -1.817  0.00  0.00    +0.023 A 
ATOM      5  C   UNL     1       6.919   0.798  -0.494  0.00  0.00    +0.036 A 
ATOM      6  C   UNL     1       5.710   0.257  -0.073  0.00  0.00    +0.052 A 
ENDROOT
BRANCH   5   7
ATOM      7  N   UNL     1       7.732   1.486   0.412  0.00  0.00    -0.282 N 
ATOM      8  C   UNL     1       8.474   2.530  -0.007  0.00  0.00    +0.241 C 
ATOM      9  O   UNL     1       8.365   2.934  -1.150  0.00  0.00    -0.270 OA
ATOM     10  H   UNL     1       7.761   1.212   1.342  0.00  0.00    +0.155 HD
BRANCH   8  11
ATOM     11  C   UNL     1       9.411   3.177   0.912  0.00  0.00    +0.068 C 
ATOM     12  C   UNL     1      10.154   4.222   0.492  0.00  0.00    +0.013 C 
BRANCH  12  13
ATOM     13  C   UNL     1      11.096   4.873   1.417  0.00  0.00    -0.023 A 
ATOM     14  C   UNL     1      11.228   4.407   2.729  0.00  0.00    +0.009 A 
ATOM     15  C   UNL     1      12.113   5.022   3.589  0.00  0.00    +0.023 A 
ATOM     16  C   UNL     1      12.870   6.099   3.156  0.00  0.00    +0.071 A 
ATOM     17  C   UNL     1      12.744   6.565   1.858  0.00  0.00    +0.145 A 
ATOM     18  C   UNL     1      11.868   5.956   0.985  0.00  0.00    +0.042 A 
ATOM     19 CL   UNL     1      13.981   6.867   4.247  0.00  0.00    -0.081 Cl
BRANCH  17  20
ATOM     20  N   UNL     1      13.556   7.717   1.406  0.00  0.00    +0.058 N 
ATOM     21  O   UNL     1      13.448   8.126   0.273  0.00  0.00    -0.126 OA
ATOM     22  O   UNL     1      14.328   8.249   2.169  0.00  0.00    -0.126 OA
ENDBRANCH  17  20
ENDBRANCH  12  13
ENDBRANCH   8  11
ENDBRANCH   5   7
BRANCH   1  23
ATOM     23  S   UNL     1       3.383  -1.119  -0.435  0.00  0.00    +0.100 S 
ATOM     24  O   UNL     1       3.495  -1.318   0.968  0.00  0.00    -0.146 OA
ATOM     25  O   UNL     1       3.081  -2.178  -1.333  0.00  0.00    -0.146 OA
BRANCH  23  32
ATOM     26  C   UNL     1       0.063   2.115  -0.597  0.00  0.00    +0.130 C 
ATOM     27  N   UNL     1      -0.057   0.659  -0.480  0.00  0.00    -0.320 N 
ATOM     28  C   UNL     1      -1.319  -0.096  -0.501  0.00  0.00    +0.106 C 
ATOM     29  C   UNL     1      -1.044  -1.333   0.383  0.00  0.00    +0.026 C 
ATOM     30  C   UNL     1       0.483  -1.517   0.241  0.00  0.00    +0.075 C 
ATOM     31  C   UNL     1       0.989  -0.214  -0.342  0.00  0.00    +0.119 C 
ATOM     32  N   UNL     1       2.218   0.037  -0.657  0.00  0.00    -0.118 NA
ENDBRANCH  23  32
ENDBRANCH   1  23
TORSDOF 6
