REMARK  Name = ZINC56610550
REMARK  8 active torsions:
REMARK  status: ('A' for Active; 'I' for Inactive)
REMARK    1  A    between atoms: C_1  and  C_2
REMARK    2  A    between atoms: C_6  and  C_23
REMARK    3  A    between atoms: C_7  and  N_8
REMARK    4  A    between atoms: N_11  and  C_12
REMARK    5  A    between atoms: C_12  and  C_14
REMARK    6  A    between atoms: C_12  and  C_15
REMARK    7  A    between atoms: C_15  and  C_16
REMARK    8  A    between atoms: C_19  and  O_22
REMARK                            x       y       z     vdW  Elec       q    Type
REMARK                         _______ _______ _______ _____ _____    ______ ____
ROOT
ATOM      1  N   UNL     1      -0.487   0.268   2.205  0.00  0.00    -0.269 N 
ATOM      2  C   UNL     1       0.027  -0.050   3.409  0.00  0.00    +0.304 C 
ATOM      3  O   UNL     1       0.632  -1.095   3.555  0.00  0.00    -0.253 OA
ATOM      4  N   UNL     1      -0.129   0.789   4.452  0.00  0.00    -0.296 N 
ATOM      5  H   UNL     1      -1.033   1.064   2.106  0.00  0.00    +0.156 HD
ATOM      6  H   UNL     1      -0.612   1.623   4.336  0.00  0.00    +0.151 HD
ENDROOT
BRANCH   1  13
ATOM      7  C   UNL     1       0.598   1.474  -0.129  0.00  0.00    +0.046 C 
ATOM      8  C   UNL     1       0.295  -0.001  -0.059  0.00  0.00    -0.028 A 
ATOM      9  C   UNL     1       0.549  -0.810  -1.149  0.00  0.00    +0.005 A 
ATOM     10  C   UNL     1       0.274  -2.166  -1.094  0.00  0.00    +0.001 A 
ATOM     11  C   UNL     1      -0.258  -2.723   0.049  0.00  0.00    +0.015 A 
ATOM     12  C   UNL     1      -0.520  -1.918   1.159  0.00  0.00    +0.058 A 
ATOM     13  C   UNL     1      -0.235  -0.545   1.103  0.00  0.00    +0.050 A 
BRANCH  12  14
ATOM     14  C   UNL     1      -1.090  -2.507   2.385  0.00  0.00    +0.248 C 
ATOM     15  O   UNL     1      -2.016  -1.958   2.951  0.00  0.00    -0.270 OA
ATOM     16  N   UNL     1      -0.584  -3.655   2.879  0.00  0.00    -0.297 N 
ATOM     17  C   UNL     1       0.601  -4.359   2.367  0.00  0.00    +0.108 C 
ATOM     18  C   UNL     1       0.784  -5.630   3.224  0.00  0.00    +0.020 C 
ATOM     19  C   UNL     1      -0.635  -5.864   3.806  0.00  0.00    +0.020 C 
ATOM     20  C   UNL     1      -1.123  -4.408   4.026  0.00  0.00    +0.108 C 
ENDBRANCH  12  14
ENDBRANCH   1  13
BRANCH   4  21
ATOM     21  C   UNL     1       0.430   0.443   5.761  0.00  0.00    +0.076 C 
ATOM     22  C   UNL     1      -0.558  -0.447   6.518  0.00  0.00    +0.028 C 
BRANCH  21  23
ATOM     23  C   UNL     1       0.682   1.722   6.562  0.00  0.00    +0.057 C 
BRANCH  23  24
ATOM     24  C   UNL     1       1.746   2.542   5.879  0.00  0.00    -0.045 A 
ATOM     25  C   UNL     1       3.077   2.348   6.197  0.00  0.00    +0.007 A 
ATOM     26  C   UNL     1       4.054   3.099   5.572  0.00  0.00    +0.045 A 
ATOM     27  C   UNL     1       3.698   4.047   4.624  0.00  0.00    +0.117 A 
ATOM     28  C   UNL     1       2.362   4.238   4.306  0.00  0.00    +0.045 A 
ATOM     29  C   UNL     1       1.389   3.482   4.930  0.00  0.00    +0.007 A 
BRANCH  27  30
ATOM     30  O   UNL     1       4.658   4.787   4.008  0.00  0.00    -0.507 OA
ATOM     31  H   UNL     1       4.999   4.390   3.195  0.00  0.00    +0.292 HD
ENDBRANCH  27  30
ENDBRANCH  23  24
ENDBRANCH  21  23
ENDBRANCH   4  21
TORSDOF 6
