REMARK  Name = ZINC20634848
REMARK  3 active torsions:
REMARK  status: ('A' for Active; 'I' for Inactive)
REMARK    1  A    between atoms: C_1  and  C_2
REMARK    2  A    between atoms: C_15  and  C_32
REMARK    3  A    between atoms: C_20  and  C_25
REMARK                            x       y       z     vdW  Elec       q    Type
REMARK                         _______ _______ _______ _____ _____    ______ ____
ROOT
ATOM      1  C   UNL     1      -2.527   5.361   0.051  0.00  0.00    +0.066 C 
ATOM      2  C   UNL     1      -2.468   3.855   0.044  0.00  0.00    +0.051 A 
ATOM      3  C   UNL     1      -1.231   3.183   0.029  0.00  0.00    +0.022 A 
ATOM      4  C   UNL     1      -0.010   3.873   0.021  0.00  0.00    +0.012 A 
ATOM      5  C   UNL     1       1.158   3.170   0.007  0.00  0.00    +0.001 A 
ATOM      6  C   UNL     1       1.155   1.777   0.001  0.00  0.00    +0.002 A 
ATOM      7  C   UNL     1      -0.013   1.076   0.008  0.00  0.00    +0.028 A 
ATOM      8  C   UNL     1      -1.234   1.765   0.017  0.00  0.00    +0.076 A 
ATOM      9  N   UNL     1      -2.410   1.124   0.019  0.00  0.00    -0.214 NA
ATOM     10  C   UNL     1      -3.537   1.806   0.028  0.00  0.00    +0.222 A 
ATOM     11  N   UNL     1      -3.571   3.138   0.035  0.00  0.00    -0.219 NA
ATOM     12  N   UNL     1      -4.736   1.110   0.029  0.00  0.00    -0.253 N 
ATOM     13  C   UNL     1      -4.733  -0.271   0.022  0.00  0.00    +0.222 A 
ATOM     14  N   UNL     1      -3.569  -0.908   0.013  0.00  0.00    -0.219 NA
ATOM     15  C   UNL     1      -3.522  -2.228   0.008  0.00  0.00    +0.054 A 
ATOM     16  C   UNL     1      -4.728  -2.942   0.012  0.00  0.00    +0.060 A 
ATOM     17  C   UNL     1      -5.936  -2.235   0.017  0.00  0.00    +0.058 A 
ATOM     18  N   UNL     1      -5.893  -0.914   0.029  0.00  0.00    -0.218 NA
ATOM     19  C   UNL     1      -7.261  -2.942   0.008  0.00  0.00    +0.065 C 
ATOM     20  C   UNL     1      -7.130  -4.366   0.541  0.00  0.00    +0.032 C 
ATOM     21  C   UNL     1      -6.047  -5.111  -0.249  0.00  0.00    +0.088 C 
ATOM     22  C   UNL     1      -4.729  -4.411   0.015  0.00  0.00    +0.167 C 
ATOM     23  O   UNL     1      -3.712  -5.041   0.221  0.00  0.00    -0.292 OA
ATOM     24  C   UNL     1      -2.200  -2.951  -0.000  0.00  0.00    +0.066 C 
ATOM     25  H   UNL     1      -5.690   1.658   0.036  0.00  0.00    +0.158 HD
ENDROOT
BRANCH  20  26
ATOM     26  C   UNL     1      -8.447  -5.083   0.388  0.00  0.00    -0.043 A 
ATOM     27  C   UNL     1      -9.005  -5.241  -0.867  0.00  0.00    +0.007 A 
ATOM     28  C   UNL     1     -10.210  -5.903  -1.010  0.00  0.00    +0.038 A 
ATOM     29  C   UNL     1     -10.863  -6.399   0.106  0.00  0.00    +0.123 A 
ATOM     30  C   UNL     1     -10.306  -6.235   1.363  0.00  0.00    +0.038 A 
ATOM     31  C   UNL     1      -9.098  -5.578   1.502  0.00  0.00    +0.007 A 
ATOM     32  F   UNL     1     -12.044  -7.041  -0.032  0.00  0.00    -0.205 F 
ENDBRANCH  20  26
TORSDOF 1
