REMARK  Name = ZINC29386795
REMARK  4 active torsions:
REMARK  status: ('A' for Active; 'I' for Inactive)
REMARK    1  A    between atoms: C_1  and  C_2
REMARK    2  A    between atoms: C_5  and  C_8
REMARK    3  A    between atoms: C_8  and  N_9
REMARK    4  A    between atoms: C_16  and  C_18
REMARK                            x       y       z     vdW  Elec       q    Type
REMARK                         _______ _______ _______ _____ _____    ______ ____
ROOT
ATOM      1  N   UNL     1      -0.096   6.294  -1.344  0.00  0.00    -0.331 N 
ATOM      2  C   UNL     1      -1.281   6.549  -1.952  0.00  0.00    +0.088 A 
ATOM      3  C   UNL     1      -1.319   7.071  -3.202  0.00  0.00    +0.018 A 
ATOM      4  C   UNL     1      -0.128   7.354  -3.882  0.00  0.00    +0.005 A 
ATOM      5  C   UNL     1       1.069   7.099  -3.274  0.00  0.00    +0.042 A 
ATOM      6  C   UNL     1       1.081   6.564  -1.978  0.00  0.00    +0.106 A 
ATOM      7  N   UNL     1       2.245   6.314  -1.367  0.00  0.00    -0.268 N 
ATOM      8  C   UNL     1       3.393   6.463  -2.030  0.00  0.00    +0.252 C 
ATOM      9  O   UNL     1       3.549   5.916  -3.109  0.00  0.00    -0.270 OA
ATOM     10  H   UNL     1       2.255   5.985  -0.317  0.00  0.00    +0.157 HD
ENDROOT
BRANCH   8  11
ATOM     11  C   UNL     1       4.475   7.291  -1.458  0.00  0.00    +0.075 A 
ATOM     12  C   UNL     1       5.793   7.561  -2.048  0.00  0.00    +0.054 A 
ATOM     13  C   UNL     1       6.433   8.357  -1.177  0.00  0.00    +0.195 A 
ATOM     14  O   UNL     1       5.631   8.590  -0.126  0.00  0.00    -0.470 OA
ATOM     15  C   UNL     1       4.456   7.968  -0.276  0.00  0.00    +0.207 A 
ENDBRANCH   8  11
BRANCH   1  16
ATOM     16  C   UNL     1      -0.081   5.730   0.008  0.00  0.00    +0.158 C 
BRANCH  16  21
ATOM     17  C   UNL     1      -0.065  -0.040  -0.313  0.00  0.00    +0.044 C 
ATOM     18  C   UNL     1      -0.069   1.465  -0.229  0.00  0.00    -0.050 A 
ATOM     19  C   UNL     1      -1.268   2.151  -0.184  0.00  0.00    +0.004 A 
ATOM     20  C   UNL     1      -1.272   3.531  -0.102  0.00  0.00    +0.005 A 
ATOM     21  C   UNL     1      -0.077   4.225  -0.076  0.00  0.00    -0.028 A 
ATOM     22  C   UNL     1       1.122   3.539  -0.127  0.00  0.00    +0.005 A 
ATOM     23  C   UNL     1       1.126   2.159  -0.203  0.00  0.00    +0.004 A 
ENDBRANCH  16  21
ENDBRANCH   1  16
TORSDOF 3
