REMARK  Name = ZINC50931481
REMARK  5 active torsions:
REMARK  status: ('A' for Active; 'I' for Inactive)
REMARK    1  A    between atoms: C_1  and  C_2
REMARK    2  A    between atoms: C_4  and  N_18
REMARK    3  A    between atoms: N_6  and  C_7
REMARK    4  A    between atoms: N_8  and  C_9
REMARK    5  A    between atoms: C_9  and  C_10
REMARK                            x       y       z     vdW  Elec       q    Type
REMARK                         _______ _______ _______ _____ _____    ______ ____
ROOT
ATOM      1  C   UNL     1      -0.013   1.086   0.008  0.00  0.00    +0.083 C 
ATOM      2  C   UNL     1      -0.742   1.585  -1.213  0.00  0.00    +0.097 C 
ATOM      3  N   UNL     1      -1.252   0.805  -2.099  0.00  0.00    -0.234 NA
ATOM      4  C   UNL     1      -1.878   1.638  -3.137  0.00  0.00    +0.347 C 
ATOM      5  C   UNL     1      -1.624   3.058  -2.667  0.00  0.00    +0.128 C 
ATOM      6  N   UNL     1      -0.930   2.911  -1.485  0.00  0.00    -0.279 N 
ATOM      7  C   UNL     1      -0.461   4.015  -0.644  0.00  0.00    +0.138 C 
ATOM      8  N   UNL     1      -1.981   4.158  -3.243  0.00  0.00    -0.369 N 
ATOM      9  H   UNL     1      -2.473   4.130  -4.078  0.00  0.00    +0.161 HD
ENDROOT
BRANCH   4  10
ATOM     10  N   UNL     1      -1.243   1.405  -4.436  0.00  0.00    +0.055 N 
ATOM     11  O   UNL     1      -0.191   0.812  -4.497  0.00  0.00    -0.129 OA
ATOM     12  O   UNL     1      -1.770   1.806  -5.448  0.00  0.00    -0.129 OA
ENDBRANCH   4  10
BRANCH   8  13
ATOM     13  C   UNL     1      -1.643   5.447  -2.634  0.00  0.00    +0.150 C 
BRANCH  13  14
ATOM     14  C   UNL     1      -2.170   6.564  -3.497  0.00  0.00    -0.010 A 
ATOM     15  C   UNL     1      -1.320   7.228  -4.362  0.00  0.00    +0.008 A 
ATOM     16  C   UNL     1      -1.803   8.253  -5.154  0.00  0.00    +0.016 A 
ATOM     17  C   UNL     1      -3.137   8.614  -5.082  0.00  0.00    +0.019 A 
ATOM     18  C   UNL     1      -3.987   7.950  -4.217  0.00  0.00    +0.035 A 
ATOM     19  C   UNL     1      -3.505   6.921  -3.428  0.00  0.00    +0.047 A 
ATOM     20 CL   UNL     1      -4.572   6.082  -2.347  0.00  0.00    -0.083 Cl
ATOM     21 BR   UNL     1      -3.796  10.017  -6.165  0.00  0.00    -0.050 Br
ENDBRANCH  13  14
ENDBRANCH   8  13
TORSDOF 3
