REMARK  Name = ZINC39699840
REMARK  5 active torsions:
REMARK  status: ('A' for Active; 'I' for Inactive)
REMARK    1  A    between atoms: N_15  and  N_16
REMARK    2  A    between atoms: C_17  and  C_18
REMARK    3  A    between atoms: C_21  and  O_24
REMARK    4  A    between atoms: O_24  and  C_25
REMARK    5  A    between atoms: C_25  and  C_27
REMARK                            x       y       z     vdW  Elec       q    Type
REMARK                         _______ _______ _______ _____ _____    ______ ____
ROOT
ATOM      1  N   UNL     1       4.487  -4.648  -2.802  0.00  0.00    -0.188 NA
ATOM      2  C   UNL     1       4.945  -5.566  -3.597  0.00  0.00    +0.138 C 
ENDROOT
BRANCH   1  16
ATOM      3  C   UNL     1      -0.152   1.589  -0.559  0.00  0.00    +0.001 A 
ATOM      4  C   UNL     1       1.007   2.374  -0.624  0.00  0.00    +0.002 A 
ATOM      5  C   UNL     1       2.242   1.825  -0.584  0.00  0.00    +0.026 A 
ATOM      6  C   UNL     1       2.377   0.368  -0.469  0.00  0.00    +0.046 A 
ATOM      7  N   UNL     1       3.430  -0.413  -0.442  0.00  0.00    -0.358 N 
ATOM      8  C   UNL     1       2.996  -1.777  -0.189  0.00  0.00    +0.253 C 
ATOM      9  C   UNL     1       1.484  -1.762  -0.327  0.00  0.00    +0.115 C 
ATOM     10  C   UNL     1       1.130  -0.437  -0.414  0.00  0.00    +0.025 A 
ATOM     11  C   UNL     1      -0.110   0.241  -0.458  0.00  0.00    +0.012 A 
ATOM     12  N   UNL     1       0.781  -2.888  -0.472  0.00  0.00    -0.171 NA
ATOM     13  N   UNL     1       1.420  -3.880  -1.016  0.00  0.00    -0.247 N 
ATOM     14  C   UNL     1       2.692  -3.757  -1.466  0.00  0.00    +0.227 C 
ATOM     15  N   UNL     1       3.492  -2.767  -1.144  0.00  0.00    -0.220 NA
ATOM     16  N   UNL     1       3.178  -4.734  -2.312  0.00  0.00    -0.206 N 
ATOM     17  H   UNL     1       2.613  -5.480  -2.567  0.00  0.00    +0.177 HD
ATOM     18  H   UNL     1       0.972  -4.736  -1.101  0.00  0.00    +0.192 HD
ATOM     19  H   UNL     1       4.348  -0.128  -0.570  0.00  0.00    +0.162 HD
ENDBRANCH   1  16
BRANCH   2  20
ATOM     20  C   UNL     1       6.322  -5.476  -4.113  0.00  0.00    -0.005 A 
ATOM     21  C   UNL     1       7.141  -4.405  -3.742  0.00  0.00    +0.013 A 
ATOM     22  C   UNL     1       8.428  -4.324  -4.226  0.00  0.00    +0.047 A 
ATOM     23  C   UNL     1       8.913  -5.306  -5.082  0.00  0.00    +0.132 A 
ATOM     24  C   UNL     1       8.104  -6.372  -5.453  0.00  0.00    +0.047 A 
ATOM     25  C   UNL     1       6.817  -6.463  -4.969  0.00  0.00    +0.013 A 
BRANCH  23  26
ATOM     26  O   UNL     1      10.183  -5.222  -5.557  0.00  0.00    -0.422 OA
BRANCH  26  27
ATOM     27  C   UNL     1      11.197  -5.407  -4.690  0.00  0.00    +0.344 C 
ATOM     28  O   UNL     1      10.964  -5.743  -3.546  0.00  0.00    -0.245 OA
BRANCH  27  29
ATOM     29  C   UNL     1      12.592  -5.201  -5.129  0.00  0.00    +0.059 A 
ATOM     30  C   UNL     1      12.863  -4.809  -6.442  0.00  0.00    +0.016 A 
ATOM     31  C   UNL     1      14.167  -4.618  -6.846  0.00  0.00    +0.016 A 
ATOM     32  C   UNL     1      15.208  -4.815  -5.953  0.00  0.00    +0.018 A 
ATOM     33  C   UNL     1      14.945  -5.204  -4.650  0.00  0.00    +0.016 A 
ATOM     34  C   UNL     1      13.645  -5.392  -4.232  0.00  0.00    +0.016 A 
ATOM     35 BR   UNL     1      16.994  -4.552  -6.516  0.00  0.00    -0.050 Br
ENDBRANCH  27  29
ENDBRANCH  26  27
ENDBRANCH  23  26
ENDBRANCH   2  20
TORSDOF 5
