REMARK  Name = ZINC12661092
REMARK  6 active torsions:
REMARK  status: ('A' for Active; 'I' for Inactive)
REMARK    1  A    between atoms: C_1  and  O_2
REMARK    2  A    between atoms: O_2  and  C_3
REMARK    3  A    between atoms: C_8  and  O_9
REMARK    4  A    between atoms: O_9  and  C_10
REMARK    5  A    between atoms: C_11  and  C_15
REMARK    6  A    between atoms: C_16  and  O_26
REMARK                            x       y       z     vdW  Elec       q    Type
REMARK                         _______ _______ _______ _____ _____    ______ ____
ROOT
ATOM      1  C   UNL     1       1.167   2.099   0.002  0.00  0.00    +0.162 A 
ATOM      2  C   UNL     1      -0.017   1.383   0.010  0.00  0.00    +0.053 A 
ATOM      3  C   UNL     1       0.002  -0.004   0.002  0.00  0.00    -0.044 A 
ATOM      4  C   UNL     1       1.206  -0.677  -0.009  0.00  0.00    -0.050 A 
ATOM      5  C   UNL     1       2.396   0.037  -0.018  0.00  0.00    +0.052 A 
ATOM      6  C   UNL     1       2.382   1.421  -0.013  0.00  0.00    +0.162 A 
ATOM      7  C   UNL     1       1.275  -2.182  -0.011  0.00  0.00    +0.001 C 
ATOM      8  C   UNL     1      -1.099  -2.197   0.404  0.00  0.00    -0.077 C 
ATOM      9  C   UNL     1      -1.314  -0.739   0.000  0.00  0.00    +0.016 C 
ATOM     10  N   UNL     1      -0.013  -2.758  -0.421  0.00  0.00    +0.387 N 
ATOM     11  H   UNL     1       0.016  -3.777  -0.299  0.00  0.00    -0.085 HD
ATOM     12  H   UNL     1      -0.186  -2.536  -1.408  0.00  0.00    -0.085 HD
ENDROOT
BRANCH   7  13
ATOM     13  C   UNL     1       2.342  -2.630  -0.976  0.00  0.00    +0.069 A 
ATOM     14  C   UNL     1       3.475  -3.288  -0.526  0.00  0.00    +0.222 A 
ATOM     15  N   UNL     1       4.364  -3.728  -1.412  0.00  0.00    -0.189 NA
ATOM     16  C   UNL     1       4.241  -3.505  -2.716  0.00  0.00    +0.175 A 
ATOM     17  N   UNL     1       3.213  -2.761  -3.193  0.00  0.00    -0.287 N 
ATOM     18  C   UNL     1       2.211  -2.398  -2.345  0.00  0.00    +0.260 A 
ATOM     19  O   UNL     1       1.201  -1.868  -2.781  0.00  0.00    -0.267 OA
ATOM     20  C   UNL     1       3.094  -2.259  -4.558  0.00  0.00    +0.128 C 
ATOM     21  C   UNL     1       3.801  -3.124  -5.588  0.00  0.00    +0.033 C 
ATOM     22  C   UNL     1       5.293  -3.187  -5.229  0.00  0.00    +0.079 C 
ATOM     23  S   UNL     1       5.454  -4.240  -3.767  0.00  0.00    -0.087 S 
BRANCH  14  24
ATOM     24  O   UNL     1       3.675  -3.481   0.799  0.00  0.00    -0.492 OA
ATOM     25  H   UNL     1       4.495  -3.949   1.009  0.00  0.00    +0.294 HD
ENDBRANCH  14  24
ENDBRANCH   7  13
BRANCH   1  27
ATOM     26  C   UNL     1      -0.141   4.085   0.026  0.00  0.00    +0.277 C 
ATOM     27  O   UNL     1       1.144   3.458   0.010  0.00  0.00    -0.491 OA
ENDBRANCH   1  27
BRANCH   6  28
ATOM     28  O   UNL     1       3.552   2.115  -0.022  0.00  0.00    -0.491 OA
ATOM     29  C   UNL     1       4.760   1.351  -0.038  0.00  0.00    +0.277 C 
ENDBRANCH   6  28
TORSDOF 4
