REMARK  Name = ZINC64837139
REMARK  8 active torsions:
REMARK  status: ('A' for Active; 'I' for Inactive)
REMARK    1  A    between atoms: C_1  and  C_2
REMARK    2  A    between atoms: C_5  and  N_9
REMARK    3  A    between atoms: C_7  and  C_8
REMARK    4  A    between atoms: N_9  and  S_10
REMARK    5  A    between atoms: S_10  and  C_13
REMARK    6  A    between atoms: C_15  and  C_21
REMARK    7  A    between atoms: C_18  and  O_19
REMARK    8  A    between atoms: O_19  and  C_20
REMARK                            x       y       z     vdW  Elec       q    Type
REMARK                         _______ _______ _______ _____ _____    ______ ____
ROOT
ATOM      1  C   UNL     1       2.725  -4.602  -0.542  0.00  0.00    +0.150 A 
ATOM      2  C   UNL     1       3.541  -5.601  -0.057  0.00  0.00    +0.042 A 
ATOM      3  C   UNL     1       4.844  -5.304   0.340  0.00  0.00    +0.004 A 
ATOM      4  C   UNL     1       5.318  -3.997   0.244  0.00  0.00    +0.014 A 
ATOM      5  C   UNL     1       4.497  -3.002  -0.242  0.00  0.00    +0.048 A 
ATOM      6  C   UNL     1       3.201  -3.301  -0.642  0.00  0.00    +0.147 A 
ENDROOT
BRANCH   3   7
ATOM      7  C   UNL     1       5.724  -6.377   0.863  0.00  0.00    +0.091 A 
ATOM      8  C   UNL     1       7.046  -6.071   1.264  0.00  0.00    +0.035 A 
ATOM      9  C   UNL     1       7.826  -7.083   1.741  0.00  0.00    +0.073 A 
ATOM     10  C   UNL     1       7.265  -8.377   1.804  0.00  0.00    +0.265 A 
ATOM     11  O   UNL     1       7.925  -9.314   2.224  0.00  0.00    -0.266 OA
ATOM     12  N   UNL     1       5.996  -8.571   1.398  0.00  0.00    -0.243 N 
ATOM     13  N   UNL     1       5.273  -7.606   0.957  0.00  0.00    -0.171 NA
ATOM     14  H   UNL     1       5.616  -9.462   1.444  0.00  0.00    +0.192 HD
ENDBRANCH   3   7
BRANCH   1  15
ATOM     15  S   UNL     1       1.078  -4.976  -1.044  0.00  0.00    +0.076 S 
ATOM     16  O   UNL     1       0.884  -6.362  -0.799  0.00  0.00    -0.150 OA
ATOM     17  O   UNL     1       0.904  -4.399  -2.331  0.00  0.00    -0.150 OA
BRANCH  15  18
ATOM     18  N   UNL     1       0.058  -4.167  -0.021  0.00  0.00    -0.216 N 
ATOM     19  H   UNL     1      -0.526  -4.663   0.573  0.00  0.00    +0.174 HD
BRANCH  18  24
ATOM     20  C   UNL     1      -0.018   1.503   0.010  0.00  0.00    +0.044 C 
ATOM     21  C   UNL     1       0.002  -0.004   0.002  0.00  0.00    -0.047 A 
ATOM     22  C   UNL     1       0.006  -0.687  -1.200  0.00  0.00    +0.005 A 
ATOM     23  C   UNL     1       0.024  -2.068  -1.212  0.00  0.00    +0.025 A 
ATOM     24  C   UNL     1       0.040  -2.771  -0.013  0.00  0.00    +0.048 A 
ATOM     25  C   UNL     1       0.036  -2.081   1.192  0.00  0.00    +0.028 A 
ATOM     26  C   UNL     1       0.023  -0.700   1.196  0.00  0.00    -0.046 A 
ATOM     27  C   UNL     1       0.025   0.049   2.504  0.00  0.00    +0.044 C 
ENDBRANCH  18  24
ENDBRANCH  15  18
ENDBRANCH   1  15
BRANCH   6  28
ATOM     28  O   UNL     1       2.396  -2.320  -1.126  0.00  0.00    -0.493 OA
ATOM     29  C   UNL     1       2.950  -1.005  -1.200  0.00  0.00    +0.277 C 
ENDBRANCH   6  28
TORSDOF 5
