REMARK  Name = ZINC07776696
REMARK  7 active torsions:
REMARK  status: ('A' for Active; 'I' for Inactive)
REMARK    1  A    between atoms: C_1  and  C_2
REMARK    2  A    between atoms: C_5  and  N_9
REMARK    3  A    between atoms: C_10  and  C_12
REMARK    4  A    between atoms: C_12  and  C_14
REMARK    5  A    between atoms: C_12  and  S_15
REMARK    6  A    between atoms: S_15  and  C_16
REMARK    7  A    between atoms: C_19  and  C_21
REMARK                            x       y       z     vdW  Elec       q    Type
REMARK                         _______ _______ _______ _____ _____    ______ ____
ROOT
ATOM      1  N   UNL     1      -0.934  -5.042   0.624  0.00  0.00    -0.284 N 
ATOM      2  C   UNL     1      -1.359  -3.870   0.112  0.00  0.00    +0.230 C 
ATOM      3  O   UNL     1      -2.514  -3.744  -0.238  0.00  0.00    -0.274 OA
ATOM      4  H   UNL     1       0.003  -5.164   0.843  0.00  0.00    +0.155 HD
ENDROOT
BRANCH   1   9
ATOM      5  C   UNL     1      -4.626  -9.262   1.494  0.00  0.00    +0.044 C 
ATOM      6  C   UNL     1      -3.645  -8.141   1.263  0.00  0.00    -0.049 A 
ATOM      7  C   UNL     1      -3.808  -7.294   0.183  0.00  0.00    +0.005 A 
ATOM      8  C   UNL     1      -2.911  -6.266  -0.032  0.00  0.00    +0.024 A 
ATOM      9  C   UNL     1      -1.845  -6.083   0.839  0.00  0.00    +0.047 A 
ATOM     10  C   UNL     1      -1.681  -6.939   1.920  0.00  0.00    +0.039 A 
ATOM     11  C   UNL     1      -2.585  -7.963   2.132  0.00  0.00    +0.020 A 
ATOM     12 BR   UNL     1      -0.226  -6.700   3.105  0.00  0.00    -0.048 Br
ENDBRANCH   1   9
BRANCH   2  13
ATOM     13  C   UNL     1      -0.400  -2.716  -0.025  0.00  0.00    +0.136 C 
ATOM     14  C   UNL     1       0.367  -2.844  -1.343  0.00  0.00    +0.029 C 
BRANCH  13  15
ATOM     15  S   UNL     1      -1.324  -1.159  -0.014  0.00  0.00    -0.085 S 
BRANCH  15  16
ATOM     16  C   UNL     1       0.013  -0.010  -0.033  0.00  0.00    +0.159 A 
ATOM     17  N   UNL     1       1.322  -0.224  -0.050  0.00  0.00    -0.135 NA
ATOM     18  N   UNL     1       2.150   0.727  -0.062  0.00  0.00    -0.146 NA
ATOM     19  C   UNL     1       1.771   1.989  -0.058  0.00  0.00    +0.100 A 
ATOM     20  S   UNL     1      -0.007   1.780  -0.034  0.00  0.00    -0.044 S 
ATOM     21  C   UNL     1       2.598   3.249  -0.070  0.00  0.00    +0.075 C 
ENDBRANCH  15  16
ENDBRANCH  13  15
ENDBRANCH   2  13
TORSDOF 4
