REMARK  Name = ZINC38573723
REMARK  5 active torsions:
REMARK  status: ('A' for Active; 'I' for Inactive)
REMARK    1  A    between atoms: C_1  and  C_2
REMARK    2  A    between atoms: C_6  and  C_8
REMARK    3  A    between atoms: C_8  and  C_9
REMARK    4  A    between atoms: N_11  and  C_12
REMARK    5  A    between atoms: C_12  and  C_13
REMARK                            x       y       z     vdW  Elec       q    Type
REMARK                         _______ _______ _______ _____ _____    ______ ____
ROOT
ATOM      1  C   UNL     1       3.144  -4.734   5.773  0.00  0.00    +0.233 C 
ATOM      2  O   UNL     1       2.100  -5.054   6.302  0.00  0.00    -0.274 OA
ATOM      3  N   UNL     1       4.318  -5.059   6.349  0.00  0.00    -0.300 N 
ATOM      4  C   UNL     1       5.590  -4.674   5.723  0.00  0.00    +0.106 C 
ATOM      5  C   UNL     1       6.458  -5.926   5.561  0.00  0.00    +0.009 C 
ATOM      6  C   UNL     1       6.607  -6.619   6.916  0.00  0.00    -0.037 C 
ATOM      7  C   UNL     1       5.232  -7.045   7.432  0.00  0.00    +0.009 C 
ATOM      8  C   UNL     1       4.350  -5.800   7.617  0.00  0.00    +0.106 C 
ATOM      9  C   UNL     1       7.506  -7.847   6.769  0.00  0.00    +0.140 C 
ATOM     10  C   UNL     1       8.880  -7.307   6.383  0.00  0.00    +0.042 C 
ATOM     11  N   UNL     1       9.194  -7.888   5.291  0.00  0.00    -0.243 NA
ATOM     12  C   UNL     1       8.189  -8.674   4.835  0.00  0.00    +0.216 C 
ATOM     13  N   UNL     1       7.141  -8.692   5.631  0.00  0.00    -0.264 NA
ATOM     14  C   UNL     1       9.542  -6.206   7.171  0.00  0.00    +0.034 C 
ATOM     15  C   UNL     1       8.471  -5.114   7.356  0.00  0.00    -0.076 C 
ATOM     16  N   UNL     1       7.232  -5.697   7.875  0.00  0.00    +0.385 N 
ATOM     17  H   UNL     1       6.583  -4.954   8.086  0.00  0.00    -0.085 HD
ATOM     18  H   UNL     1       7.438  -6.200   8.726  0.00  0.00    -0.085 HD
ENDROOT
BRANCH   1  19
ATOM     19  C   UNL     1       3.127  -3.974   4.472  0.00  0.00    +0.200 C 
BRANCH  19  22
ATOM     20  C   UNL     1       1.480  -3.080   2.915  0.00  0.00    +0.218 C 
ATOM     21  O   UNL     1       2.393  -2.670   2.230  0.00  0.00    -0.275 OA
ATOM     22  N   UNL     1       1.741  -3.745   4.058  0.00  0.00    -0.306 N 
ATOM     23  H   UNL     1       1.010  -4.073   4.605  0.00  0.00    +0.149 HD
BRANCH  20  24
ATOM     24  C   UNL     1       0.054  -2.845   2.489  0.00  0.00    +0.130 C 
BRANCH  24  30
ATOM     25  C   UNL     1      -0.018   1.503   0.010  0.00  0.00    +0.044 C 
ATOM     26  C   UNL     1       0.002  -0.004   0.002  0.00  0.00    -0.050 A 
ATOM     27  C   UNL     1       0.006  -0.689  -1.199  0.00  0.00    +0.003 A 
ATOM     28  C   UNL     1       0.025  -2.071  -1.207  0.00  0.00    +0.001 A 
ATOM     29  C   UNL     1       0.040  -2.768  -0.013  0.00  0.00    +0.004 A 
ATOM     30  C   UNL     1       0.037  -2.084   1.188  0.00  0.00    -0.038 A 
ATOM     31  C   UNL     1       0.023  -0.702   1.195  0.00  0.00    +0.007 A 
ENDBRANCH  24  30
ENDBRANCH  20  24
ENDBRANCH  19  22
ENDBRANCH   1  19
TORSDOF 4
