REMARK  Name = ZINC19164912
REMARK  8 active torsions:
REMARK  status: ('A' for Active; 'I' for Inactive)
REMARK    1  A    between atoms: C_1  and  C_2
REMARK    2  A    between atoms: C_6  and  N_9
REMARK    3  A    between atoms: C_7  and  C_8
REMARK    4  A    between atoms: C_15  and  C_17
REMARK    5  A    between atoms: C_17  and  C_18
REMARK    6  A    between atoms: C_18  and  C_19
REMARK    7  A    between atoms: C_19  and  N_20
REMARK    8  A    between atoms: C_21  and  C_23
REMARK                            x       y       z     vdW  Elec       q    Type
REMARK                         _______ _______ _______ _____ _____    ______ ____
ROOT
ATOM      1  N   UNL     1       0.051  -2.796   2.390  0.00  0.00    -0.327 N 
ATOM      2  C   UNL     1      -1.205  -3.197   3.038  0.00  0.00    +0.124 C 
ATOM      3  C   UNL     1      -1.179  -4.714   3.263  0.00  0.00    +0.126 C 
ATOM      4  N   UNL     1       0.094  -5.071   3.905  0.00  0.00    -0.298 N 
ATOM      5  C   UNL     1       1.351  -4.670   3.257  0.00  0.00    +0.126 C 
ATOM      6  C   UNL     1       1.324  -3.159   3.029  0.00  0.00    +0.124 C 
ATOM      7  C   UNL     1       0.109  -5.754   5.067  0.00  0.00    +0.216 C 
ATOM      8  O   UNL     1      -0.934  -6.079   5.593  0.00  0.00    -0.276 OA
ENDROOT
BRANCH   1  14
ATOM      9  C   UNL     1      -0.018   1.503   0.010  0.00  0.00    +0.044 C 
ATOM     10  C   UNL     1       0.002  -0.004   0.002  0.00  0.00    -0.046 A 
ATOM     11  C   UNL     1       0.006  -0.688  -1.200  0.00  0.00    +0.004 A 
ATOM     12  C   UNL     1       0.024  -2.071  -1.212  0.00  0.00    +0.002 A 
ATOM     13  C   UNL     1       0.039  -2.773  -0.023  0.00  0.00    +0.023 A 
ATOM     14  C   UNL     1       0.036  -2.089   1.186  0.00  0.00    +0.033 A 
ATOM     15  C   UNL     1       0.023  -0.700   1.194  0.00  0.00    -0.027 A 
ATOM     16  C   UNL     1       0.025   0.046   2.504  0.00  0.00    +0.046 C 
ENDBRANCH   1  14
BRANCH   7  17
ATOM     17  C   UNL     1       1.422  -6.113   5.713  0.00  0.00    +0.097 C 
BRANCH  17  18
ATOM     18  C   UNL     1       1.159  -6.880   7.011  0.00  0.00    +0.028 C 
BRANCH  18  19
ATOM     19  C   UNL     1       2.492  -7.244   7.667  0.00  0.00    +0.105 C 
BRANCH  19  20
ATOM     20  N   UNL     1       2.240  -7.978   8.910  0.00  0.00    -0.311 N 
ATOM     21  C   UNL     1       3.274  -8.404   9.662  0.00  0.00    +0.251 C 
ATOM     22  O   UNL     1       4.417  -8.179   9.310  0.00  0.00    -0.270 OA
ATOM     23  H   UNL     1       1.330  -8.157   9.191  0.00  0.00    +0.149 HD
BRANCH  21  24
ATOM     24  C   UNL     1       3.022  -9.138  10.906  0.00  0.00    +0.074 A 
ATOM     25  C   UNL     1       3.932  -9.653  11.817  0.00  0.00    +0.021 A 
ATOM     26  C   UNL     1       3.390 -10.300  12.901  0.00  0.00    +0.008 A 
ATOM     27  C   UNL     1       2.042 -10.392  13.008  0.00  0.00    +0.046 A 
ATOM     28  S   UNL     1       1.466  -9.596  11.645  0.00  0.00    -0.092 S 
ENDBRANCH  21  24
ENDBRANCH  19  20
ENDBRANCH  18  19
ENDBRANCH  17  18
ENDBRANCH   7  17
TORSDOF 6
