REMARK  Name = ZINC39632034
REMARK  15 active torsions:
REMARK  status: ('A' for Active; 'I' for Inactive)
REMARK    1  A    between atoms: C_1  and  C_2
REMARK    2  A    between atoms: C_2  and  C_4
REMARK    3  A    between atoms: C_2  and  N_11
REMARK    4  A    between atoms: C_4  and  C_5
REMARK    5  A    between atoms: C_5  and  C_6
REMARK    6  A    between atoms: C_6  and  C_7
REMARK    7  A    between atoms: C_7  and  C_8
REMARK    8  A    between atoms: C_7  and  C_9
REMARK    9  A    between atoms: C_7  and  O_10
REMARK   10  A    between atoms: C_12  and  C_14
REMARK   11  A    between atoms: C_25  and  C_27
REMARK   12  A    between atoms: C_27  and  C_28
REMARK   13  A    between atoms: C_28  and  C_29
REMARK   14  A    between atoms: C_32  and  O_35
REMARK   15  A    between atoms: O_35  and  C_36
REMARK                            x       y       z     vdW  Elec       q    Type
REMARK                         _______ _______ _______ _____ _____    ______ ____
ROOT
ATOM      1  C   UNL     1      -3.711  -0.651   0.369  0.00  0.00    +0.100 C 
ATOM      2  C   UNL     1      -3.959  -2.169   0.217  0.00  0.00    +0.121 C 
ATOM      3  N   UNL     1      -4.475  -2.598   1.539  0.00  0.00    -0.300 N 
ATOM      4  C   UNL     1      -5.369  -1.494   1.961  0.00  0.00    +0.115 C 
ATOM      5  C   UNL     1      -4.641  -0.211   1.512  0.00  0.00    -0.004 C 
ATOM      6  C   UNL     1      -5.648   0.818   1.007  0.00  0.00    -0.010 C 
ATOM      7  C   UNL     1      -6.523   1.284   2.174  0.00  0.00    -0.082 C 
ATOM      8  N   UNL     1      -5.676   1.870   3.220  0.00  0.00    +0.379 N 
ATOM      9  C   UNL     1      -4.775   0.847   3.765  0.00  0.00    -0.082 C 
ATOM     10  C   UNL     1      -3.825   0.363   2.665  0.00  0.00    -0.010 C 
ATOM     11  C   UNL     1      -4.194  -3.735   2.206  0.00  0.00    +0.216 C 
ATOM     12  O   UNL     1      -4.769  -3.987   3.243  0.00  0.00    -0.276 OA
ATOM     13  H   UNL     1      -5.131   2.623   2.828  0.00  0.00    -0.086 HD
ATOM     14  H   UNL     1      -6.260   2.231   3.960  0.00  0.00    -0.086 HD
ENDROOT
BRANCH   1  16
ATOM     15  N   UNL     1      -1.695   0.781   0.395  0.00  0.00    -0.312 N 
ATOM     16  C   UNL     1      -2.272  -0.389   0.732  0.00  0.00    +0.218 C 
ATOM     17  O   UNL     1      -1.634  -1.230   1.329  0.00  0.00    -0.275 OA
ATOM     18  H   UNL     1      -2.224   1.483  -0.015  0.00  0.00    +0.149 HD
BRANCH  15  20
ATOM     19  C   UNL     1      -0.075   1.544   2.061  0.00  0.00    +0.028 C 
ATOM     20  C   UNL     1      -0.267   0.994   0.646  0.00  0.00    +0.070 C 
BRANCH  20  21
ATOM     21  C   UNL     1       0.287   1.994  -0.370  0.00  0.00    +0.022 C 
BRANCH  21  22
ATOM     22  C   UNL     1       0.210   1.391  -1.774  0.00  0.00    +0.005 C 
BRANCH  22  23
ATOM     23  C   UNL     1       0.876   2.339  -2.773  0.00  0.00    +0.034 C 
BRANCH  23  24
ATOM     24  C   UNL     1       0.838   1.716  -4.170  0.00  0.00    +0.061 C 
ATOM     25  C   UNL     1       1.481   2.675  -5.174  0.00  0.00    +0.041 C 
ATOM     26  C   UNL     1       1.610   0.395  -4.160  0.00  0.00    +0.041 C 
BRANCH  24  27
ATOM     27  O   UNL     1      -0.519   1.472  -4.546  0.00  0.00    -0.389 OA
ATOM     28  H   UNL     1      -0.619   1.077  -5.423  0.00  0.00    +0.210 HD
ENDBRANCH  24  27
ENDBRANCH  23  24
ENDBRANCH  22  23
ENDBRANCH  21  22
ENDBRANCH  20  21
ENDBRANCH  15  20
ENDBRANCH   1  16
BRANCH  11  29
ATOM     29  C   UNL     1      -3.165  -4.693   1.662  0.00  0.00    +0.100 C 
BRANCH  29  30
ATOM     30  C   UNL     1      -3.138  -5.956   2.526  0.00  0.00    +0.044 C 
BRANCH  30  31
ATOM     31  C   UNL     1      -2.188  -6.957   1.921  0.00  0.00    -0.047 A 
ATOM     32  C   UNL     1      -2.628  -7.813   0.928  0.00  0.00    +0.007 A 
ATOM     33  C   UNL     1      -1.759  -8.732   0.373  0.00  0.00    +0.046 A 
ATOM     34  C   UNL     1      -0.445  -8.796   0.812  0.00  0.00    +0.120 A 
ATOM     35  C   UNL     1      -0.006  -7.936   1.808  0.00  0.00    +0.046 A 
ATOM     36  C   UNL     1      -0.877  -7.015   2.357  0.00  0.00    +0.007 A 
BRANCH  34  37
ATOM     37  O   UNL     1       0.412  -9.700   0.267  0.00  0.00    -0.495 OA
ATOM     38  C   UNL     1       1.776  -9.636   0.687  0.00  0.00    +0.277 C 
ENDBRANCH  34  37
ENDBRANCH  30  31
ENDBRANCH  29  30
ENDBRANCH  11  29
TORSDOF 11
