REMARK  Name = ZINC32089560
REMARK  2 active torsions:
REMARK  status: ('A' for Active; 'I' for Inactive)
REMARK    1  A    between atoms: N_17  and  C_18
REMARK    2  A    between atoms: C_21  and  C_24
REMARK                            x       y       z     vdW  Elec       q    Type
REMARK                         _______ _______ _______ _____ _____    ______ ____
ROOT
ATOM      1  C   UNL     1      -0.017   1.375   0.010  0.00  0.00    +0.003 A 
ATOM      2  C   UNL     1       1.149   2.126   0.003  0.00  0.00    +0.024 A 
ATOM      3  C   UNL     1       2.358   1.428  -0.013  0.00  0.00    +0.039 A 
ATOM      4  C   UNL     1       2.364   0.027  -0.020  0.00  0.00    +0.012 A 
ATOM      5  C   UNL     1       1.200  -0.713  -0.013  0.00  0.00    +0.047 A 
ATOM      6  C   UNL     1       0.002  -0.004   0.002  0.00  0.00    +0.020 A 
ATOM      7 CL   UNL     1       1.228  -2.448  -0.022  0.00  0.00    -0.083 Cl
ATOM      8  C   UNL     1       3.802  -0.383  -0.037  0.00  0.00    +0.113 C 
ATOM      9  C   UNL     1       4.158  -1.201   1.203  0.00  0.00    +0.122 C 
ATOM     10  C   UNL     1       3.733  -2.635   1.050  0.00  0.00    +0.220 C 
ATOM     11  O   UNL     1       3.300  -3.225   2.018  0.00  0.00    -0.275 OA
ATOM     12  N   UNL     1       3.816  -3.287  -0.129  0.00  0.00    -0.270 N 
ATOM     13  C   UNL     1       4.123  -2.552  -1.273  0.00  0.00    +0.133 A 
ATOM     14  C   UNL     1       4.129  -1.180  -1.269  0.00  0.00    +0.032 A 
ATOM     15  C   UNL     1       4.472  -0.751  -2.543  0.00  0.00    +0.141 A 
ATOM     16  N   UNL     1       4.657  -1.809  -3.299  0.00  0.00    -0.173 NA
ATOM     17  N   UNL     1       4.433  -2.957  -2.521  0.00  0.00    -0.218 N 
ATOM     18  C   UNL     1       4.567   0.922  -0.038  0.00  0.00    +0.233 C 
ATOM     19  O   UNL     1       5.773   1.051  -0.051  0.00  0.00    -0.274 OA
ATOM     20  N   UNL     1       3.653   1.915  -0.023  0.00  0.00    -0.284 N 
ATOM     21  H   UNL     1       3.667  -4.244  -0.179  0.00  0.00    +0.156 HD
ATOM     22  H   UNL     1       3.878   2.859  -0.019  0.00  0.00    +0.155 HD
ENDROOT
BRANCH  17  23
ATOM     23  C   UNL     1       4.518  -4.284  -2.962  0.00  0.00    +0.067 A 
ATOM     24  C   UNL     1       4.985  -5.273  -2.107  0.00  0.00    +0.028 A 
ATOM     25  C   UNL     1       5.067  -6.581  -2.545  0.00  0.00    +0.014 A 
ATOM     26  C   UNL     1       4.684  -6.905  -3.834  0.00  0.00    +0.055 A 
ATOM     27  C   UNL     1       4.219  -5.922  -4.688  0.00  0.00    +0.014 A 
ATOM     28  C   UNL     1       4.130  -4.614  -4.254  0.00  0.00    +0.028 A 
BRANCH  26  29
ATOM     29  C   UNL     1       4.775  -8.332  -4.309  0.00  0.00    +0.417 C 
ATOM     30  F   UNL     1       3.572  -8.992  -4.035  0.00  0.00    -0.166 F 
ATOM     31  F   UNL     1       5.015  -8.351  -5.687  0.00  0.00    -0.166 F 
ATOM     32  F   UNL     1       5.823  -8.979  -3.644  0.00  0.00    -0.166 F 
ENDBRANCH  26  29
ENDBRANCH  17  23
TORSDOF 2
