REMARK  Name = ZINC02595877
REMARK  10 active torsions:
REMARK  status: ('A' for Active; 'I' for Inactive)
REMARK    1  A    between atoms: C_1  and  C_2
REMARK    2  A    between atoms: C_3  and  N_15
REMARK    3  A    between atoms: N_6  and  C_9
REMARK    4  A    between atoms: N_7  and  C_8
REMARK    5  A    between atoms: C_16  and  C_18
REMARK    6  A    between atoms: C_18  and  C_20
REMARK    7  A    between atoms: C_18  and  N_52
REMARK    8  A    between atoms: C_20  and  C_21
REMARK    9  A    between atoms: C_23  and  C_24
REMARK   10  A    between atoms: C_23  and  N_52
REMARK                            x       y       z     vdW  Elec       q    Type
REMARK                         _______ _______ _______ _____ _____    ______ ____
ROOT
ATOM      1  N   UNL     1      -3.874   2.067  -1.384  0.00  0.00    -0.281 N 
ATOM      2  C   UNL     1      -3.441   1.455  -0.263  0.00  0.00    +0.204 C 
ATOM      3  O   UNL     1      -4.182   1.343   0.691  0.00  0.00    -0.277 OA
ATOM      4  H   UNL     1      -3.260   2.224  -2.118  0.00  0.00    +0.155 HD
ENDROOT
BRANCH   1   7
ATOM      5  C   UNL     1      -4.782   4.938  -1.971  0.00  0.00    +0.067 C 
ATOM      6  C   UNL     1      -5.655   3.730  -1.745  0.00  0.00    +0.059 A 
ATOM      7  C   UNL     1      -5.218   2.477  -1.489  0.00  0.00    +0.121 A 
ATOM      8  C   UNL     1      -6.399   1.626  -1.346  0.00  0.00    +0.293 A 
ATOM      9  O   UNL     1      -6.407   0.430  -1.116  0.00  0.00    -0.264 OA
ATOM     10  N   UNL     1      -7.477   2.419  -1.516  0.00  0.00    -0.216 N 
ATOM     11  N   UNL     1      -7.025   3.719  -1.767  0.00  0.00    -0.282 N 
ATOM     12  C   UNL     1      -7.880   4.883  -2.012  0.00  0.00    +0.171 C 
BRANCH  10  13
ATOM     13  C   UNL     1      -8.814   2.011  -1.459  0.00  0.00    +0.067 A 
ATOM     14  C   UNL     1      -9.729   2.730  -0.700  0.00  0.00    +0.028 A 
ATOM     15  C   UNL     1     -11.049   2.327  -0.650  0.00  0.00    +0.002 A 
ATOM     16  C   UNL     1     -11.458   1.204  -1.345  0.00  0.00    +0.000 A 
ATOM     17  C   UNL     1     -10.548   0.483  -2.097  0.00  0.00    +0.002 A 
ATOM     18  C   UNL     1      -9.228   0.883  -2.156  0.00  0.00    +0.028 A 
ENDBRANCH  10  13
ENDBRANCH   1   7
BRANCH   2  19
ATOM     19  C   UNL     1      -2.038   0.911  -0.195  0.00  0.00    +0.027 C 
BRANCH  19  20
ATOM     20  N   UNL     1      -1.819   0.300   1.129  0.00  0.00    +0.390 N 
ATOM     21  H   UNL     1      -2.679  -0.173   1.430  0.00  0.00    -0.084 HD
ATOM     22  H   UNL     1      -1.578   1.035   1.806  0.00  0.00    -0.084 HD
BRANCH  20  23
ATOM     23  C   UNL     1      -0.720  -0.681   1.065  0.00  0.00    -0.046 C 
BRANCH  23  24
ATOM     24  C   UNL     1      -0.603  -1.380   2.396  0.00  0.00    -0.064 A 
ATOM     25  C   UNL     1       0.224  -0.865   3.376  0.00  0.00    +0.002 A 
ATOM     26  C   UNL     1       0.327  -1.503   4.598  0.00  0.00    +0.000 A 
ATOM     27  C   UNL     1      -0.390  -2.662   4.836  0.00  0.00    +0.000 A 
ATOM     28  C   UNL     1      -1.212  -3.179   3.853  0.00  0.00    +0.000 A 
ATOM     29  C   UNL     1      -1.319  -2.538   2.633  0.00  0.00    +0.002 A 
ENDBRANCH  23  24
ENDBRANCH  20  23
ENDBRANCH  19  20
BRANCH  19  30
ATOM     30  C   UNL     1      -1.038   2.051  -0.404  0.00  0.00    +0.118 C 
BRANCH  30  31
ATOM     31  C   UNL     1      -1.270   3.118   0.635  0.00  0.00    +0.355 C 
ATOM     32  O   UNL     1      -2.193   3.018   1.409  0.00  0.00    -0.246 OA
ATOM     33  O   UNL     1      -0.447   4.177   0.705  0.00  0.00    -0.246 OA
ENDBRANCH  30  31
ENDBRANCH  19  30
ENDBRANCH   2  19
TORSDOF 8
