REMARK  Name = ZINC39692475
REMARK  6 active torsions:
REMARK  status: ('A' for Active; 'I' for Inactive)
REMARK    1  A    between atoms: C_1  and  C_2
REMARK    2  A    between atoms: C_3  and  C_35
REMARK    3  A    between atoms: C_9  and  C_13
REMARK    4  A    between atoms: C_13  and  S_14
REMARK    5  A    between atoms: S_14  and  C_15
REMARK    6  A    between atoms: N_29  and  C_30
REMARK                            x       y       z     vdW  Elec       q    Type
REMARK                         _______ _______ _______ _____ _____    ______ ____
ROOT
ATOM      1  C   UNL     1       4.551  -6.622  -0.056  0.00  0.00    +0.255 C 
ATOM      2  N   UNL     1       4.240  -7.358   1.173  0.00  0.00    -0.243 NA
ATOM      3  C   UNL     1       3.342  -8.275   1.150  0.00  0.00    +0.107 C 
ATOM      4  C   UNL     1       2.670  -8.751  -0.102  0.00  0.00    +0.069 C 
ATOM      5  C   UNL     1       1.615  -9.546   0.020  0.00  0.00    -0.042 C 
ATOM      6  C   UNL     1       1.099  -9.735   1.458  0.00  0.00    +0.079 C 
ATOM      7  S   UNL     1       2.581  -9.244   2.424  0.00  0.00    -0.098 S 
ATOM      8  C   UNL     1       0.863 -11.256   1.513  0.00  0.00    +0.019 C 
ATOM      9  C   UNL     1       0.200 -11.544   0.143  0.00  0.00    +0.006 C 
ATOM     10  C   UNL     1       0.652 -10.412  -0.785  0.00  0.00    +0.033 C 
ATOM     11  C   UNL     1       3.280  -8.287  -1.392  0.00  0.00    +0.252 C 
ATOM     12  O   UNL     1       2.940  -8.738  -2.468  0.00  0.00    -0.270 OA
ATOM     13  N   UNL     1       4.231  -7.338  -1.276  0.00  0.00    -0.264 N 
ENDROOT
BRANCH  13  14
ATOM     14  C   UNL     1       4.998  -7.005  -2.478  0.00  0.00    +0.079 C 
ATOM     15  C   UNL     1       4.045  -6.562  -3.608  0.00  0.00    +0.022 C 
ATOM     16  C   UNL     1       4.681  -7.147  -4.893  0.00  0.00    +0.002 C 
ATOM     17  C   UNL     1       5.211  -8.522  -4.417  0.00  0.00    +0.002 C 
ATOM     18  C   UNL     1       5.739  -8.252  -2.993  0.00  0.00    +0.022 C 
ENDBRANCH  13  14
BRANCH   1  19
ATOM     19  S   UNL     1       3.624  -5.063  -0.043  0.00  0.00    -0.107 S 
BRANCH  19  20
ATOM     20  C   UNL     1       1.887  -5.585  -0.037  0.00  0.00    +0.147 C 
BRANCH  20  29
ATOM     21  C   UNL     1      -0.018   1.503   0.010  0.00  0.00    +0.087 C 
ATOM     22  C   UNL     1       0.002  -0.004   0.002  0.00  0.00    +0.119 A 
ATOM     23  C   UNL     1      -1.102  -0.806   0.003  0.00  0.00    +0.118 A 
ATOM     24  C   UNL     1      -0.586  -2.186  -0.007  0.00  0.00    +0.118 A 
ATOM     25  C   UNL     1      -1.171  -3.470  -0.011  0.00  0.00    +0.263 A 
ATOM     26  O   UNL     1      -2.382  -3.607  -0.006  0.00  0.00    -0.267 OA
ATOM     27  N   UNL     1      -0.348  -4.544  -0.020  0.00  0.00    -0.309 N 
ATOM     28  H   UNL     1      -0.720  -5.439  -0.023  0.00  0.00    +0.170 HD
ATOM     29  C   UNL     1       0.997  -4.369  -0.026  0.00  0.00    +0.124 A 
ATOM     30  N   UNL     1       1.547  -3.188  -0.022  0.00  0.00    -0.198 NA
ATOM     31  C   UNL     1       0.804  -2.070  -0.013  0.00  0.00    +0.235 A 
ATOM     32  O   UNL     1       1.106  -0.761  -0.013  0.00  0.00    -0.441 OA
BRANCH  23  33
ATOM     33  C   UNL     1      -2.507  -0.383   0.012  0.00  0.00    +0.391 C 
ATOM     34  O   UNL     1      -2.788   0.808   0.020  0.00  0.00    -0.240 OA
ATOM     35  O   UNL     1      -3.398  -1.222   0.012  0.00  0.00    -0.240 OA
ENDBRANCH  23  33
ENDBRANCH  20  29
ENDBRANCH  19  20
ENDBRANCH   1  19
TORSDOF 5
