REMARK  Name = ZINC16927037
REMARK  6 active torsions:
REMARK  status: ('A' for Active; 'I' for Inactive)
REMARK    1  A    between atoms: C_2  and  C_3
REMARK    2  A    between atoms: C_3  and  N_4
REMARK    3  A    between atoms: C_8  and  C_9
REMARK    4  A    between atoms: N_18  and  C_19
REMARK    5  A    between atoms: C_22  and  O_27
REMARK    6  A    between atoms: C_24  and  C_25
REMARK                            x       y       z     vdW  Elec       q    Type
REMARK                         _______ _______ _______ _____ _____    ______ ____
ROOT
ATOM      1  N   UNL     1       0.325   2.605  -0.910  0.00  0.00    -0.242 N 
ATOM      2  C   UNL     1       1.509   3.109  -0.607  0.00  0.00    +0.259 C 
ATOM      3  O   UNL     1       2.436   2.398  -0.268  0.00  0.00    -0.269 OA
ATOM      4  C   UNL     1       1.655   4.576  -0.701  0.00  0.00    +0.078 C 
ATOM      5  C   UNL     1       2.740   5.351  -0.452  0.00  0.00    +0.028 C 
ATOM      6  S   UNL     1       0.016   5.055  -1.229  0.00  0.00    -0.049 S 
ATOM      7  C   UNL     1      -0.710   3.426  -1.298  0.00  0.00    +0.169 C 
ATOM      8  N   UNL     1      -1.938   3.091  -1.636  0.00  0.00    -0.225 NA
ENDROOT
BRANCH   5   9
ATOM      9  C   UNL     1       2.713   6.782  -0.785  0.00  0.00    -0.024 A 
ATOM     10  C   UNL     1       1.654   7.311  -1.531  0.00  0.00    +0.009 A 
ATOM     11  C   UNL     1       1.633   8.655  -1.835  0.00  0.00    +0.016 A 
ATOM     12  C   UNL     1       2.663   9.480  -1.414  0.00  0.00    +0.018 A 
ATOM     13  C   UNL     1       3.717   8.963  -0.679  0.00  0.00    +0.016 A 
ATOM     14  C   UNL     1       3.750   7.622  -0.362  0.00  0.00    +0.009 A 
ATOM     15 BR   UNL     1       2.629  11.321  -1.843  0.00  0.00    -0.050 Br
ENDBRANCH   5   9
BRANCH   8  16
ATOM     16  C   UNL     1      -2.865   4.058  -1.881  0.00  0.00    +0.081 A 
ATOM     17  C   UNL     1      -2.986   5.151  -1.018  0.00  0.00    +0.032 A 
ATOM     18  C   UNL     1      -3.921   6.129  -1.271  0.00  0.00    +0.047 A 
ATOM     19  C   UNL     1      -4.758   6.036  -2.379  0.00  0.00    +0.118 A 
ATOM     20  C   UNL     1      -4.660   4.961  -3.242  0.00  0.00    +0.062 A 
ATOM     21  C   UNL     1      -3.713   3.960  -3.004  0.00  0.00    +0.092 A 
BRANCH  21  22
ATOM     22  C   UNL     1      -3.603   2.814  -3.918  0.00  0.00    +0.389 C 
ATOM     23  O   UNL     1      -2.779   1.946  -3.708  0.00  0.00    -0.241 OA
ATOM     24  O   UNL     1      -4.416   2.725  -4.990  0.00  0.00    -0.241 OA
ENDBRANCH  21  22
BRANCH  19  25
ATOM     25  O   UNL     1      -5.680   7.008  -2.612  0.00  0.00    -0.507 OA
ATOM     26  H   UNL     1      -6.538   6.845  -2.195  0.00  0.00    +0.292 HD
ENDBRANCH  19  25
ENDBRANCH   8  16
BRANCH   1  27
ATOM     27  C   UNL     1       0.114   1.157  -0.839  0.00  0.00    +0.142 C 
BRANCH  27  29
ATOM     28  C   UNL     1      -1.475   0.115   0.695  0.00  0.00    +0.005 C 
ATOM     29  C   UNL     1      -0.360   0.786   0.543  0.00  0.00    -0.015 C 
ENDBRANCH  27  29
ENDBRANCH   1  27
TORSDOF 6
