REMARK  Name = ZINC03319400
REMARK  7 active torsions:
REMARK  status: ('A' for Active; 'I' for Inactive)
REMARK    1  A    between atoms: C_1  and  C_2
REMARK    2  A    between atoms: C_5  and  N_8
REMARK    3  A    between atoms: C_9  and  C_11
REMARK    4  A    between atoms: C_11  and  C_13
REMARK    5  A    between atoms: C_11  and  N_14
REMARK    6  A    between atoms: C_25  and  O_27
REMARK    7  A    between atoms: O_27  and  C_28
REMARK                            x       y       z     vdW  Elec       q    Type
REMARK                         _______ _______ _______ _____ _____    ______ ____
ROOT
ATOM      1  N   UNL     1       0.001  -0.002   0.003  0.00  0.00    -0.212 N 
ATOM      2  C   UNL     1      -0.015   1.347   0.017  0.00  0.00    +0.252 C 
ATOM      3  O   UNL     1      -0.988   2.069   0.034  0.00  0.00    -0.272 OA
ATOM      4  C   UNL     1       1.438   1.768   0.000  0.00  0.00    +0.138 C 
ATOM      5  C   UNL     1       1.737   2.580  -1.254  0.00  0.00    +0.040 C 
ATOM      6  C   UNL     1       3.158   3.145  -1.139  0.00  0.00    +0.008 C 
ATOM      7  C   UNL     1       3.170   4.205  -0.039  0.00  0.00    +0.036 C 
ATOM      8  C   UNL     1       2.569   3.661   1.230  0.00  0.00    -0.038 A 
ATOM      9  C   UNL     1       1.768   2.539   1.247  0.00  0.00    -0.012 A 
ATOM     10  C   UNL     1       1.238   2.090   2.450  0.00  0.00    +0.010 A 
ATOM     11  C   UNL     1       1.508   2.753   3.628  0.00  0.00    +0.046 A 
ATOM     12  C   UNL     1       2.317   3.879   3.614  0.00  0.00    +0.120 A 
ATOM     13  C   UNL     1       2.844   4.329   2.415  0.00  0.00    +0.049 A 
ATOM     14  N   UNL     1       2.175   0.498  -0.023  0.00  0.00    -0.281 N 
ATOM     15  C   UNL     1       1.250  -0.481  -0.020  0.00  0.00    +0.310 C 
ATOM     16  O   UNL     1       1.520  -1.666  -0.035  0.00  0.00    -0.252 OA
ATOM     17  H   UNL     1       3.139   0.386  -0.039  0.00  0.00    +0.152 HD
ENDROOT
BRANCH   1  18
ATOM     18  C   UNL     1      -1.202  -0.839   0.012  0.00  0.00    +0.168 C 
ATOM     19  C   UNL     1      -1.226  -1.710  -1.246  0.00  0.00    +0.038 C 
BRANCH  18  21
ATOM     20  N   UNL     1      -2.205  -2.582   1.452  0.00  0.00    -0.284 N 
ATOM     21  C   UNL     1      -1.191  -1.722   1.233  0.00  0.00    +0.238 C 
ATOM     22  O   UNL     1      -0.270  -1.658   2.019  0.00  0.00    -0.273 OA
ATOM     23  H   UNL     1      -2.974  -2.586   0.861  0.00  0.00    +0.155 HD
BRANCH  20  28
ATOM     24  C   UNL     1      -1.978  -6.179   5.833  0.00  0.00    +0.044 C 
ATOM     25  C   UNL     1      -2.038  -5.223   4.669  0.00  0.00    -0.050 A 
ATOM     26  C   UNL     1      -1.501  -3.955   4.790  0.00  0.00    +0.005 A 
ATOM     27  C   UNL     1      -1.555  -3.077   3.725  0.00  0.00    +0.023 A 
ATOM     28  C   UNL     1      -2.149  -3.469   2.533  0.00  0.00    +0.033 A 
ATOM     29  C   UNL     1      -2.692  -4.742   2.417  0.00  0.00    +0.023 A 
ATOM     30  C   UNL     1      -2.631  -5.617   3.483  0.00  0.00    +0.005 A 
ENDBRANCH  20  28
ENDBRANCH  18  21
ENDBRANCH   1  18
BRANCH  12  31
ATOM     31  O   UNL     1       2.591   4.539   4.770  0.00  0.00    -0.495 OA
ATOM     32  C   UNL     1       2.012   4.017   5.968  0.00  0.00    +0.277 C 
ENDBRANCH  12  31
TORSDOF 4
