REMARK  Name = ZINC10153926
REMARK  11 active torsions:
REMARK  status: ('A' for Active; 'I' for Inactive)
REMARK    1  A    between atoms: C_1  and  C_2
REMARK    2  A    between atoms: C_5  and  O_9
REMARK    3  A    between atoms: C_7  and  C_8
REMARK    4  A    between atoms: O_9  and  C_10
REMARK    5  A    between atoms: C_10  and  C_12
REMARK    6  A    between atoms: C_10  and  C_13
REMARK    7  A    between atoms: N_15  and  N_16
REMARK    8  A    between atoms: N_16  and  C_17
REMARK    9  A    between atoms: C_17  and  N_19
REMARK   10  A    between atoms: C_20  and  C_22
REMARK   11  A    between atoms: C_25  and  C_29
REMARK                            x       y       z     vdW  Elec       q    Type
REMARK                         _______ _______ _______ _____ _____    ______ ____
ROOT
ATOM      1  N   UNL     1      -6.316   3.324   0.370  0.00  0.00    -0.245 N 
ATOM      2  H   UNL     1      -7.181   3.739   0.226  0.00  0.00    +0.172 HD
ENDROOT
BRANCH   1   5
ATOM      3  C   UNL     1      -7.301   1.161   0.239  0.00  0.00    +0.270 C 
ATOM      4  O   UNL     1      -8.382   1.679   0.059  0.00  0.00    -0.270 OA
ATOM      5  N   UNL     1      -6.205   1.928   0.406  0.00  0.00    -0.232 N 
ATOM      6  H   UNL     1      -5.340   1.514   0.550  0.00  0.00    +0.173 HD
BRANCH   3   7
ATOM      7  C   UNL     1      -7.181  -0.341   0.277  0.00  0.00    +0.257 C 
ATOM      8  C   UNL     1      -6.334  -0.815  -0.905  0.00  0.00    +0.062 C 
BRANCH   7   9
ATOM      9  O   UNL     1      -8.483  -0.924   0.194  0.00  0.00    -0.480 OA
BRANCH   9  14
ATOM     10  C   UNL     1      -9.118  -6.081   2.369  0.00  0.00    +0.044 C 
ATOM     11  C   UNL     1      -8.948  -4.702   1.786  0.00  0.00    -0.047 A 
ATOM     12  C   UNL     1      -7.692  -4.126   1.731  0.00  0.00    +0.007 A 
ATOM     13  C   UNL     1      -7.534  -2.861   1.198  0.00  0.00    +0.046 A 
ATOM     14  C   UNL     1      -8.636  -2.169   0.719  0.00  0.00    +0.122 A 
ATOM     15  C   UNL     1      -9.896  -2.747   0.780  0.00  0.00    +0.049 A 
ATOM     16  C   UNL     1     -10.048  -4.014   1.309  0.00  0.00    -0.044 A 
ATOM     17  C   UNL     1     -11.415  -4.644   1.372  0.00  0.00    +0.044 C 
ENDBRANCH   9  14
ENDBRANCH   7   9
ENDBRANCH   3   7
ENDBRANCH   1   5
BRANCH   1  18
ATOM     18  C   UNL     1      -5.221   4.092   0.537  0.00  0.00    +0.153 C 
ATOM     19  S   UNL     1      -5.356   5.798   0.494  0.00  0.00    -0.017 S 
BRANCH  18  20
ATOM     20  N   UNL     1      -4.019   3.516   0.737  0.00  0.00    -0.263 N 
ATOM     21  C   UNL     1      -2.923   4.283   0.904  0.00  0.00    +0.250 C 
ATOM     22  O   UNL     1      -3.019   5.494   0.873  0.00  0.00    -0.270 OA
ATOM     23  H   UNL     1      -3.942   2.549   0.762  0.00  0.00    +0.157 HD
BRANCH  21  24
ATOM     24  C   UNL     1      -1.605   3.652   1.124  0.00  0.00    +0.038 A 
ATOM     25  C   UNL     1      -1.491   2.261   1.154  0.00  0.00    +0.013 A 
ATOM     26  C   UNL     1      -0.258   1.678   1.363  0.00  0.00    +0.005 A 
ATOM     27  C   UNL     1       0.865   2.468   1.534  0.00  0.00    -0.036 A 
ATOM     28  C   UNL     1       0.759   3.848   1.501  0.00  0.00    +0.021 A 
ATOM     29  C   UNL     1      -0.469   4.444   1.296  0.00  0.00    +0.028 A 
ATOM     30 BR   UNL     1       2.301   4.918   1.735  0.00  0.00    -0.050 Br
ATOM     31  C   UNL     1       2.209   1.823   1.757  0.00  0.00    +0.045 C 
ENDBRANCH  21  24
ENDBRANCH  18  20
ENDBRANCH   1  18
TORSDOF 7
