REMARK  Name = ZINC12451387
REMARK  11 active torsions:
REMARK  status: ('A' for Active; 'I' for Inactive)
REMARK    1  A    between atoms: C_1  and  C_2
REMARK    2  A    between atoms: C_6  and  N_9
REMARK    3  A    between atoms: C_7  and  C_8
REMARK    4  A    between atoms: C_14  and  C_15
REMARK    5  A    between atoms: C_14  and  N_66
REMARK    6  A    between atoms: C_19  and  O_21
REMARK    7  A    between atoms: O_21  and  C_22
REMARK    8  A    between atoms: C_22  and  C_23
REMARK    9  A    between atoms: C_23  and  C_24
REMARK   10  A    between atoms: C_24  and  N_25
REMARK   11  A    between atoms: C_26  and  C_28
REMARK                            x       y       z     vdW  Elec       q    Type
REMARK                         _______ _______ _______ _____ _____    ______ ____
ROOT
ATOM      1  C   UNL     1     -10.843   3.195   0.076  0.00  0.00    -0.060 A 
ATOM      2  C   UNL     1     -10.823   4.578   0.084  0.00  0.00    +0.002 A 
ATOM      3  C   UNL     1      -9.617   5.254   0.081  0.00  0.00    +0.004 A 
ATOM      4  C   UNL     1      -8.429   4.550   0.076  0.00  0.00    +0.045 A 
ATOM      5  C   UNL     1      -8.446   3.163   0.064  0.00  0.00    +0.121 A 
ATOM      6  C   UNL     1      -9.657   2.486   0.066  0.00  0.00    +0.047 A 
ENDROOT
BRANCH   1   7
ATOM      7  C   UNL     1     -12.159   2.461   0.080  0.00  0.00    -0.043 C 
BRANCH   7  13
ATOM      8  N   UNL     1     -13.469   0.620   3.649  0.00  0.00    -0.333 N 
ATOM      9  C   UNL     1     -14.386   1.550   2.977  0.00  0.00    +0.086 C 
ATOM     10  C   UNL     1     -13.961   1.718   1.516  0.00  0.00    -0.059 C 
ATOM     11  C   UNL     1     -11.662   1.285   2.137  0.00  0.00    -0.059 C 
ATOM     12  C   UNL     1     -12.087   1.118   3.598  0.00  0.00    +0.086 C 
ATOM     13  N   UNL     1     -12.579   2.240   1.480  0.00  0.00    +0.384 N 
ATOM     14  H   UNL     1     -12.546   3.134   1.983  0.00  0.00    -0.081 HD
BRANCH   8  20
ATOM     15  C   UNL     1     -14.915  -2.527   7.136  0.00  0.00    +0.044 C 
ATOM     16  C   UNL     1     -14.576  -1.130   6.685  0.00  0.00    -0.046 A 
ATOM     17  C   UNL     1     -14.661  -0.076   7.577  0.00  0.00    +0.004 A 
ATOM     18  C   UNL     1     -14.351   1.207   7.167  0.00  0.00    +0.002 A 
ATOM     19  C   UNL     1     -13.954   1.442   5.865  0.00  0.00    +0.023 A 
ATOM     20  C   UNL     1     -13.869   0.386   4.966  0.00  0.00    +0.033 A 
ATOM     21  C   UNL     1     -14.187  -0.902   5.380  0.00  0.00    -0.027 A 
ATOM     22  C   UNL     1     -14.101  -2.049   4.407  0.00  0.00    +0.046 C 
ENDBRANCH   8  20
ENDBRANCH   7  13
ENDBRANCH   1   7
BRANCH   5  23
ATOM     23  O   UNL     1      -7.278   2.468   0.054  0.00  0.00    -0.492 OA
BRANCH  23  24
ATOM     24  C   UNL     1      -6.069   3.230   0.051  0.00  0.00    +0.230 C 
BRANCH  24  25
ATOM     25  C   UNL     1      -4.869   2.282   0.040  0.00  0.00    +0.060 C 
BRANCH  25  26
ATOM     26  C   UNL     1      -3.574   3.098   0.037  0.00  0.00    +0.108 C 
BRANCH  26  27
ATOM     27  N   UNL     1      -2.425   2.190   0.027  0.00  0.00    -0.311 N 
ATOM     28  C   UNL     1      -1.173   2.688   0.022  0.00  0.00    +0.251 C 
ATOM     29  O   UNL     1      -0.997   3.893   0.028  0.00  0.00    -0.270 OA
ATOM     30  H   UNL     1      -2.565   1.230   0.022  0.00  0.00    +0.149 HD
BRANCH  28  31
ATOM     31  C   UNL     1      -0.022   1.780   0.012  0.00  0.00    +0.074 A 
ATOM     32  C   UNL     1       1.330   2.083   0.001  0.00  0.00    +0.021 A 
ATOM     33  C   UNL     1       2.208   1.027  -0.013  0.00  0.00    +0.008 A 
ATOM     34  C   UNL     1       1.719  -0.241  -0.016  0.00  0.00    +0.046 A 
ATOM     35  S   UNL     1       0.002  -0.004   0.002  0.00  0.00    -0.092 S 
ENDBRANCH  28  31
ENDBRANCH  26  27
ENDBRANCH  25  26
ENDBRANCH  24  25
ENDBRANCH  23  24
ENDBRANCH   5  23
TORSDOF 9
