REMARK  Name = ZINC03382074
REMARK  5 active torsions:
REMARK  status: ('A' for Active; 'I' for Inactive)
REMARK    1  A    between atoms: C_4  and  N_7
REMARK    2  A    between atoms: C_11  and  C_25
REMARK    3  A    between atoms: C_16  and  S_17
REMARK    4  A    between atoms: S_17  and  C_18
REMARK    5  A    between atoms: C_18  and  C_19
REMARK                            x       y       z     vdW  Elec       q    Type
REMARK                         _______ _______ _______ _____ _____    ______ ____
ROOT
ATOM      1  N   UNL     1      -3.652   5.340  -2.707  0.00  0.00    -0.255 N 
ATOM      2  C   UNL     1      -3.127   4.704  -1.644  0.00  0.00    +0.268 A 
ATOM      3  O   UNL     1      -3.196   3.490  -1.555  0.00  0.00    -0.267 OA
ATOM      4  C   UNL     1      -2.482   5.467  -0.624  0.00  0.00    +0.081 A 
ATOM      5  C   UNL     1      -1.851   5.008   0.611  0.00  0.00    +0.010 A 
ATOM      6  C   UNL     1      -1.301   5.928   1.442  0.00  0.00    +0.057 A 
ATOM      7  S   UNL     1      -1.609   7.474   0.611  0.00  0.00    -0.076 S 
ATOM      8  C   UNL     1      -2.461   6.859  -0.820  0.00  0.00    +0.117 A 
ATOM      9  N   UNL     1      -2.998   7.428  -1.893  0.00  0.00    -0.215 NA
ATOM     10  C   UNL     1      -3.583   6.700  -2.823  0.00  0.00    +0.178 A 
ENDROOT
BRANCH   1  14
ATOM     11  C   UNL     1      -5.523   3.122  -5.699  0.00  0.00    +0.000 A 
ATOM     12  C   UNL     1      -4.168   3.384  -5.780  0.00  0.00    +0.002 A 
ATOM     13  C   UNL     1      -3.545   4.119  -4.790  0.00  0.00    +0.026 A 
ATOM     14  C   UNL     1      -4.281   4.594  -3.713  0.00  0.00    +0.052 A 
ATOM     15  C   UNL     1      -5.641   4.324  -3.631  0.00  0.00    +0.026 A 
ATOM     16  C   UNL     1      -6.259   3.594  -4.627  0.00  0.00    +0.002 A 
ENDBRANCH   1  14
BRANCH   5  17
ATOM     17  C   UNL     1      -1.807   3.570   0.945  0.00  0.00    +0.021 A 
ATOM     18  C   UNL     1      -0.737   2.804   1.326  0.00  0.00    +0.016 A 
ATOM     19  C   UNL     1      -0.940   1.466   1.589  0.00  0.00    +0.008 A 
ATOM     20  C   UNL     1      -2.188   0.950   1.462  0.00  0.00    +0.046 A 
ATOM     21  S   UNL     1      -3.133   2.374   0.948  0.00  0.00    -0.097 S 
ENDBRANCH   5  17
BRANCH  10  22
ATOM     22  S   UNL     1      -4.285   7.489  -4.233  0.00  0.00    -0.078 S 
BRANCH  22  23
ATOM     23  C   UNL     1      -3.903   9.216  -3.848  0.00  0.00    +0.173 C 
BRANCH  23  24
ATOM     24  C   UNL     1      -4.425  10.103  -4.949  0.00  0.00    +0.231 C 
ATOM     25  O   UNL     1      -4.998   9.616  -5.900  0.00  0.00    -0.274 OA
ATOM     26  N   UNL     1      -4.254  11.438  -4.877  0.00  0.00    -0.240 N 
ATOM     27  C   UNL     1      -4.721  12.232  -5.862  0.00  0.00    +0.303 C 
ATOM     28  O   UNL     1      -5.296  11.743  -6.815  0.00  0.00    -0.253 OA
ATOM     29  N   UNL     1      -4.550  13.566  -5.790  0.00  0.00    -0.313 N 
ATOM     30  H   UNL     1      -3.734  11.880  -4.015  0.00  0.00    +0.159 HD
ATOM     31  H   UNL     1      -4.931  14.214  -6.594  0.00  0.00    +0.146 HD
ATOM     32  H   UNL     1      -4.030  14.009  -4.927  0.00  0.00    +0.146 HD
ENDBRANCH  23  24
ENDBRANCH  22  23
ENDBRANCH  10  22
TORSDOF 5
