REMARK  Name = ZINC03175954
REMARK  12 active torsions:
REMARK  status: ('A' for Active; 'I' for Inactive)
REMARK    1  A    between atoms: C_1  and  C_2
REMARK    2  A    between atoms: C_4  and  C_29
REMARK    3  A    between atoms: C_5  and  S_9
REMARK    4  A    between atoms: C_6  and  C_8
REMARK    5  A    between atoms: S_9  and  N_12
REMARK    6  A    between atoms: N_12  and  C_13
REMARK    7  A    between atoms: C_13  and  C_15
REMARK    8  A    between atoms: C_13  and  C_17
REMARK    9  A    between atoms: C_15  and  O_16
REMARK   10  A    between atoms: C_17  and  C_19
REMARK   11  A    between atoms: C_17  and  O_28
REMARK   12  A    between atoms: C_22  and  N_25
REMARK                            x       y       z     vdW  Elec       q    Type
REMARK                         _______ _______ _______ _____ _____    ______ ____
ROOT
ATOM      1  C   UNL     1       5.561   0.553  -1.202  0.00  0.00    +0.135 C 
ENDROOT
BRANCH   1   2
ATOM      2  N   UNL     1       5.140  -0.434  -0.205  0.00  0.00    -0.182 NA
ATOM      3  H   UNL     1       5.311  -1.378  -0.354  0.00  0.00    +0.149 HD
BRANCH   2   4
ATOM      4  S   UNL     1       4.372   0.060   1.176  0.00  0.00    +0.059 S 
ATOM      5  O   UNL     1       5.148   1.122   1.714  0.00  0.00    -0.153 OA
ATOM      6  O   UNL     1       4.073  -1.115   1.917  0.00  0.00    -0.153 OA
BRANCH   4  11
ATOM      7  C   UNL     1      -0.916   2.451  -0.473  0.00  0.00    +0.044 C 
ATOM      8  C   UNL     1       0.406   1.854  -0.066  0.00  0.00    -0.050 A 
ATOM      9  C   UNL     1       0.523   0.487   0.105  0.00  0.00    +0.008 A 
ATOM     10  C   UNL     1       1.734  -0.061   0.485  0.00  0.00    -0.024 A 
ATOM     11  C   UNL     1       2.829   0.758   0.693  0.00  0.00    +0.111 A 
ATOM     12  C   UNL     1       2.711   2.125   0.522  0.00  0.00    -0.024 A 
ATOM     13  C   UNL     1       1.500   2.672   0.142  0.00  0.00    +0.008 A 
ATOM     14  C   UNL     1       3.904   3.018   0.749  0.00  0.00    +0.046 C 
ATOM     15  C   UNL     1       1.863  -1.551   0.671  0.00  0.00    +0.046 C 
ENDBRANCH   4  11
ENDBRANCH   2   4
ENDBRANCH   1   2
BRANCH   1  16
ATOM     16  C   UNL     1       4.515   0.631  -2.316  0.00  0.00    +0.179 C 
BRANCH  16  17
ATOM     17  O   UNL     1       4.458  -0.620  -3.005  0.00  0.00    -0.393 OA
ATOM     18  H   UNL     1       3.814  -0.643  -3.726  0.00  0.00    +0.209 HD
ENDBRANCH  16  17
ENDBRANCH   1  16
BRANCH   1  19
ATOM     19  C   UNL     1       6.908   0.135  -1.796  0.00  0.00    +0.165 C 
BRANCH  19  20
ATOM     20  C   UNL     1       7.914  -0.037  -0.688  0.00  0.00    -0.017 A 
ATOM     21  C   UNL     1       8.541   1.069  -0.146  0.00  0.00    +0.008 A 
ATOM     22  C   UNL     1       9.461   0.912   0.874  0.00  0.00    +0.033 A 
ATOM     23  C   UNL     1       9.761  -0.352   1.346  0.00  0.00    +0.126 A 
ATOM     24  C   UNL     1       9.137  -1.459   0.800  0.00  0.00    +0.033 A 
ATOM     25  C   UNL     1       8.214  -1.302  -0.216  0.00  0.00    +0.008 A 
BRANCH  23  26
ATOM     26  N   UNL     1      10.749  -0.521   2.434  0.00  0.00    +0.056 N 
ATOM     27  O   UNL     1      11.013  -1.635   2.850  0.00  0.00    -0.126 OA
ATOM     28  O   UNL     1      11.298   0.454   2.915  0.00  0.00    -0.126 OA
ENDBRANCH  23  26
ENDBRANCH  19  20
BRANCH  19  29
ATOM     29  O   UNL     1       7.363   1.143  -2.701  0.00  0.00    -0.385 OA
ATOM     30  H   UNL     1       7.547   1.994  -2.280  0.00  0.00    +0.210 HD
ENDBRANCH  19  29
ENDBRANCH   1  19
TORSDOF 9
