REMARK  Name = ZINC65617808
REMARK  5 active torsions:
REMARK  status: ('A' for Active; 'I' for Inactive)
REMARK    1  A    between atoms: C_4  and  N_7
REMARK    2  A    between atoms: C_11  and  C_12
REMARK    3  A    between atoms: C_12  and  N_13
REMARK    4  A    between atoms: C_14  and  C_16
REMARK    5  A    between atoms: C_21  and  O_22
REMARK                            x       y       z     vdW  Elec       q    Type
REMARK                         _______ _______ _______ _____ _____    ______ ____
ROOT
ATOM      1  N   UNL     1       2.406  -3.392   1.372  0.00  0.00    -0.304 N 
ATOM      2  C   UNL     1       1.597  -4.091   2.192  0.00  0.00    +0.248 C 
ATOM      3  O   UNL     1       1.521  -3.795   3.368  0.00  0.00    -0.270 OA
ATOM      4  H   UNL     1       2.467  -3.629   0.433  0.00  0.00    +0.149 HD
ENDROOT
BRANCH   2   5
ATOM      5  C   UNL     1       0.802  -5.215   1.661  0.00  0.00    +0.078 A 
ATOM      6  C   UNL     1       0.888  -5.564   0.314  0.00  0.00    +0.020 A 
ATOM      7  C   UNL     1       0.146  -6.620  -0.188  0.00  0.00    -0.043 A 
ATOM      8  C   UNL     1      -0.685  -7.338   0.649  0.00  0.00    -0.041 A 
ATOM      9  C   UNL     1      -0.781  -6.996   1.991  0.00  0.00    +0.050 A 
ATOM     10  C   UNL     1      -0.043  -5.946   2.508  0.00  0.00    +0.129 A 
ATOM     11  C   UNL     1      -1.506  -8.506   0.167  0.00  0.00    +0.035 C 
ATOM     12  C   UNL     1      -1.631  -8.484  -1.355  0.00  0.00    +0.005 C 
ATOM     13  C   UNL     1      -0.227  -8.342  -1.954  0.00  0.00    +0.005 C 
ATOM     14  C   UNL     1       0.284  -6.934  -1.655  0.00  0.00    +0.035 C 
BRANCH  10  15
ATOM     15  O   UNL     1      -0.139  -5.624   3.822  0.00  0.00    -0.506 OA
ATOM     16  H   UNL     1      -0.830  -4.978   4.019  0.00  0.00    +0.292 HD
ENDBRANCH  10  15
ENDBRANCH   2   5
BRANCH   1  17
ATOM     17  C   UNL     1       3.196  -2.276   1.898  0.00  0.00    +0.181 C 
BRANCH  17  22
ATOM     18  N   UNL     1       3.624  -0.653  -0.037  0.00  0.00    -0.284 N 
ATOM     19  C   UNL     1       4.676  -0.435  -0.876  0.00  0.00    +0.230 A 
ATOM     20  N   UNL     1       5.611  -1.285  -0.551  0.00  0.00    -0.137 NA
ATOM     21  N   UNL     1       5.216  -2.017   0.429  0.00  0.00    -0.133 NA
ATOM     22  C   UNL     1       4.010  -1.668   0.786  0.00  0.00    +0.155 A 
BRANCH  18  26
ATOM     23  C   UNL     1      -0.017   1.379   0.010  0.00  0.00    +0.000 A 
ATOM     24  C   UNL     1       1.170   2.089   0.002  0.00  0.00    +0.002 A 
ATOM     25  C   UNL     1       2.377   1.419  -0.013  0.00  0.00    +0.026 A 
ATOM     26  C   UNL     1       2.399   0.031  -0.021  0.00  0.00    +0.049 A 
ATOM     27  C   UNL     1       1.207  -0.680  -0.013  0.00  0.00    +0.026 A 
ATOM     28  C   UNL     1       0.002  -0.004   0.002  0.00  0.00    +0.002 A 
ENDBRANCH  18  26
ENDBRANCH  17  22
ENDBRANCH   1  17
TORSDOF 5
