REMARK  Name = ZINC22895719
REMARK  8 active torsions:
REMARK  status: ('A' for Active; 'I' for Inactive)
REMARK    1  A    between atoms: C_1  and  C_2
REMARK    2  A    between atoms: C_5  and  C_8
REMARK    3  A    between atoms: C_8  and  C_10
REMARK    4  A    between atoms: C_8  and  N_27
REMARK    5  A    between atoms: C_10  and  C_11
REMARK    6  A    between atoms: N_13  and  N_14
REMARK    7  A    between atoms: C_15  and  C_17
REMARK    8  A    between atoms: C_28  and  C_30
REMARK                            x       y       z     vdW  Elec       q    Type
REMARK                         _______ _______ _______ _____ _____    ______ ____
ROOT
ATOM      1  C   UNL     1      -1.198  -6.412   0.032  0.00  0.00    +0.231 C 
ATOM      2  O   UNL     1      -0.148  -6.902  -0.329  0.00  0.00    -0.274 OA
ATOM      3  N   UNL     1      -2.277  -7.197   0.224  0.00  0.00    -0.234 N 
ATOM      4  H   UNL     1      -3.116  -6.805   0.512  0.00  0.00    +0.173 HD
ENDROOT
BRANCH   3   5
ATOM      5  N   UNL     1      -2.186  -8.578   0.006  0.00  0.00    -0.234 N 
ATOM      6  C   UNL     1      -3.265  -9.362   0.198  0.00  0.00    +0.235 C 
ATOM      7  O   UNL     1      -4.315  -8.872   0.559  0.00  0.00    -0.274 OA
ATOM      8  H   UNL     1      -1.347  -8.969  -0.282  0.00  0.00    +0.173 HD
BRANCH   6   9
ATOM      9  C   UNL     1      -3.168 -10.848  -0.035  0.00  0.00    +0.049 C 
ATOM     10  C   UNL     1      -2.774 -11.110  -1.490  0.00  0.00    +0.019 C 
ATOM     11  C   UNL     1      -2.676 -12.618  -1.728  0.00  0.00    -0.009 C 
ATOM     12  C   UNL     1      -4.030 -13.270  -1.440  0.00  0.00    +0.007 C 
ATOM     13  C   UNL     1      -4.424 -13.007   0.015  0.00  0.00    -0.009 C 
ATOM     14  C   UNL     1      -4.523 -11.499   0.252  0.00  0.00    +0.019 C 
ATOM     15  C   UNL     1      -3.365 -13.601   0.945  0.00  0.00    +0.007 C 
ATOM     16  C   UNL     1      -2.010 -12.950   0.658  0.00  0.00    -0.009 C 
ATOM     17  C   UNL     1      -1.617 -13.213  -0.797  0.00  0.00    +0.007 C 
ATOM     18  C   UNL     1      -2.109 -11.442   0.895  0.00  0.00    +0.019 C 
ENDBRANCH   6   9
ENDBRANCH   3   5
BRANCH   1  19
ATOM     19  C   UNL     1      -1.295  -4.926   0.266  0.00  0.00    +0.124 C 
BRANCH  19  20
ATOM     20  C   UNL     1       0.059  -4.275  -0.021  0.00  0.00    +0.112 C 
BRANCH  20  25
ATOM     21  C   UNL     1      -0.429   1.466   0.417  0.00  0.00    +0.044 C 
ATOM     22  C   UNL     1      -0.301  -0.031   0.303  0.00  0.00    -0.050 A 
ATOM     23  C   UNL     1      -0.294  -0.813   1.442  0.00  0.00    +0.004 A 
ATOM     24  C   UNL     1      -0.177  -2.187   1.337  0.00  0.00    +0.006 A 
ATOM     25  C   UNL     1      -0.069  -2.778   0.093  0.00  0.00    -0.027 A 
ATOM     26  C   UNL     1      -0.077  -1.996  -1.047  0.00  0.00    +0.006 A 
ATOM     27  C   UNL     1      -0.198  -0.623  -0.942  0.00  0.00    +0.004 A 
ENDBRANCH  20  25
BRANCH  20  28
ATOM     28  N   UNL     1       1.048  -4.756   0.947  0.00  0.00    -0.308 N 
ATOM     29  C   UNL     1       2.356  -4.771   0.624  0.00  0.00    +0.210 C 
ATOM     30  O   UNL     1       2.725  -4.303  -0.432  0.00  0.00    -0.276 OA
ATOM     31  C   UNL     1       3.360  -5.370   1.575  0.00  0.00    +0.109 C 
ATOM     32  H   UNL     1       0.760  -5.064   1.821  0.00  0.00    +0.149 HD
ENDBRANCH  20  28
ENDBRANCH  19  20
ENDBRANCH   1  19
TORSDOF 6
