REMARK  Name = ZINC67045642
REMARK  11 active torsions:
REMARK  status: ('A' for Active; 'I' for Inactive)
REMARK    1  A    between atoms: C_1  and  C_2
REMARK    2  A    between atoms: C_2  and  C_3
REMARK    3  A    between atoms: C_3  and  N_4
REMARK    4  A    between atoms: C_7  and  C_10
REMARK    5  A    between atoms: C_10  and  N_11
REMARK    6  A    between atoms: C_12  and  C_14
REMARK    7  A    between atoms: C_16  and  N_25
REMARK    8  A    between atoms: C_19  and  N_20
REMARK    9  A    between atoms: N_20  and  S_21
REMARK   10  A    between atoms: S_21  and  C_24
REMARK   11  A    between atoms: C_26  and  C_28
REMARK                            x       y       z     vdW  Elec       q    Type
REMARK                         _______ _______ _______ _____ _____    ______ ____
ROOT
ATOM      1  C   UNL     1       0.076  -7.354   5.989  0.00  0.00    +0.063 A 
ATOM      2  C   UNL     1      -1.248  -6.955   6.184  0.00  0.00    +0.038 A 
ATOM      3  C   UNL     1      -2.091  -7.723   6.968  0.00  0.00    +0.034 A 
ATOM      4  C   UNL     1      -1.622  -8.890   7.563  0.00  0.00    +0.025 A 
ATOM      5  C   UNL     1      -0.316  -9.292   7.376  0.00  0.00    +0.029 A 
ATOM      6  C   UNL     1       0.541  -8.535   6.587  0.00  0.00    +0.086 A 
ENDROOT
BRANCH   3   7
ATOM      7  N   UNL     1      -3.420  -7.323   7.165  0.00  0.00    -0.286 N 
ATOM      8  C   UNL     1      -4.394  -8.249   7.265  0.00  0.00    +0.214 C 
ATOM      9  O   UNL     1      -4.111  -9.429   7.269  0.00  0.00    -0.276 OA
ATOM     10  C   UNL     1      -5.834  -7.819   7.372  0.00  0.00    +0.109 C 
ATOM     11  H   UNL     1      -3.638  -6.380   7.229  0.00  0.00    +0.155 HD
ENDBRANCH   3   7
BRANCH   1  13
ATOM     12  N   UNL     1       0.530  -5.407   4.581  0.00  0.00    -0.311 N 
ATOM     13  C   UNL     1       0.980  -6.541   5.154  0.00  0.00    +0.246 C 
ATOM     14  O   UNL     1       2.131  -6.894   4.982  0.00  0.00    -0.270 OA
ATOM     15  H   UNL     1      -0.389  -5.126   4.718  0.00  0.00    +0.149 HD
BRANCH  12  16
ATOM     16  C   UNL     1       1.427  -4.600   3.751  0.00  0.00    +0.106 C 
BRANCH  16  20
ATOM     17  N   UNL     1       0.782  -2.017   1.215  0.00  0.00    +0.380 N 
ATOM     18  C   UNL     1      -0.594  -2.534   1.365  0.00  0.00    -0.079 C 
ATOM     19  C   UNL     1      -0.447  -3.804   2.241  0.00  0.00    -0.016 C 
ATOM     20  C   UNL     1       0.673  -3.376   3.225  0.00  0.00    -0.012 C 
ATOM     21  C   UNL     1       1.592  -2.500   2.348  0.00  0.00    -0.074 C 
ATOM     22  H   UNL     1       1.177  -2.353   0.349  0.00  0.00    -0.082 HD
BRANCH  17  23
ATOM     23  C   UNL     1       0.761  -0.548   1.213  0.00  0.00    -0.079 C 
BRANCH  23  25
ATOM     24  C   UNL     1       0.004   1.480  -0.035  0.00  0.00    +0.002 C 
ATOM     25  C   UNL     1       0.026  -0.050  -0.033  0.00  0.00    -0.022 C 
ENDBRANCH  23  25
ENDBRANCH  17  23
ENDBRANCH  16  20
ENDBRANCH  12  16
ENDBRANCH   1  13
BRANCH   6  26
ATOM     26  N   UNL     1       1.856  -8.943   6.395  0.00  0.00    -0.102 NA
BRANCH  26  27
ATOM     27  S   UNL     1       2.401 -10.338   7.102  0.00  0.00    +0.059 S 
ATOM     28  O   UNL     1       2.322 -10.091   8.499  0.00  0.00    -0.154 OA
ATOM     29  O   UNL     1       1.632 -11.373   6.505  0.00  0.00    -0.154 OA
ATOM     30  C   UNL     1       4.136 -10.473   6.589  0.00  0.00    +0.220 C 
ENDBRANCH  26  27
ENDBRANCH   6  26
TORSDOF 8
