REMARK  Name = ZINC13154618
REMARK  12 active torsions:
REMARK  status: ('A' for Active; 'I' for Inactive)
REMARK    1  A    between atoms: C_1  and  C_2
REMARK    2  A    between atoms: C_2  and  C_3
REMARK    3  A    between atoms: C_3  and  C_4
REMARK    4  A    between atoms: C_4  and  O_5
REMARK    5  A    between atoms: O_5  and  C_6
REMARK    6  A    between atoms: C_9  and  N_12
REMARK    7  A    between atoms: C_16  and  N_20
REMARK    8  A    between atoms: N_20  and  C_21
REMARK    9  A    between atoms: C_21  and  C_22
REMARK   10  A    between atoms: C_22  and  C_23
REMARK   11  A    between atoms: C_26  and  S_29
REMARK   12  A    between atoms: S_29  and  N_32
REMARK                            x       y       z     vdW  Elec       q    Type
REMARK                         _______ _______ _______ _____ _____    ______ ____
ROOT
ATOM      1  N   UNL     1       1.838  -7.963  -3.103  0.00  0.00    -0.212 N 
ATOM      2  C   UNL     1       1.425  -8.839  -2.178  0.00  0.00    +0.225 C 
ATOM      3  O   UNL     1       0.921  -8.552  -1.114  0.00  0.00    -0.275 OA
ATOM      4  C   UNL     1       1.688 -10.245  -2.672  0.00  0.00    +0.090 C 
ATOM      5  C   UNL     1       2.330 -10.027  -4.058  0.00  0.00    +0.026 C 
ATOM      6  C   UNL     1       2.358  -8.521  -4.203  0.00  0.00    +0.213 C 
ATOM      7  O   UNL     1       2.786  -7.916  -5.162  0.00  0.00    -0.277 OA
ENDROOT
BRANCH   1  11
ATOM      8  C   UNL     1       1.512  -3.834  -2.603  0.00  0.00    +0.121 A 
ATOM      9  C   UNL     1       0.752  -4.478  -3.568  0.00  0.00    +0.047 A 
ATOM     10  C   UNL     1       0.859  -5.844  -3.734  0.00  0.00    +0.027 A 
ATOM     11  C   UNL     1       1.728  -6.574  -2.935  0.00  0.00    +0.044 A 
ATOM     12  C   UNL     1       2.489  -5.929  -1.969  0.00  0.00    +0.027 A 
ATOM     13  C   UNL     1       2.385  -4.562  -1.808  0.00  0.00    +0.047 A 
BRANCH   8  14
ATOM     14  O   UNL     1       1.406  -2.488  -2.441  0.00  0.00    -0.492 OA
BRANCH  14  15
ATOM     15  C   UNL     1       0.488  -1.802  -3.294  0.00  0.00    +0.229 C 
BRANCH  15  16
ATOM     16  C   UNL     1       0.507  -0.308  -2.966  0.00  0.00    +0.041 C 
BRANCH  16  18
ATOM     17  C   UNL     1      -0.458   1.921  -3.552  0.00  0.00    +0.004 C 
ATOM     18  C   UNL     1      -0.476   0.427  -3.880  0.00  0.00    -0.000 C 
ENDBRANCH  16  18
ENDBRANCH  15  16
ENDBRANCH  14  15
ENDBRANCH   8  14
ENDBRANCH   1  11
BRANCH   5  19
ATOM     19  N   UNL     1       1.504 -10.632  -5.111  0.00  0.00    +0.387 N 
ATOM     20  H   UNL     1       1.349 -11.606  -4.900  0.00  0.00    -0.085 HD
ATOM     21  H   UNL     1       0.617 -10.152  -5.160  0.00  0.00    -0.085 HD
BRANCH  19  22
ATOM     22  C   UNL     1       2.195 -10.515  -6.402  0.00  0.00    -0.077 C 
BRANCH  22  23
ATOM     23  C   UNL     1       1.335 -11.144  -7.500  0.00  0.00    +0.016 C 
BRANCH  23  24
ATOM     24  C   UNL     1       2.044 -11.025  -8.824  0.00  0.00    -0.049 A 
ATOM     25  C   UNL     1       1.842  -9.911  -9.618  0.00  0.00    +0.005 A 
ATOM     26  C   UNL     1       2.492  -9.802 -10.833  0.00  0.00    +0.029 A 
ATOM     27  C   UNL     1       3.345 -10.806 -11.254  0.00  0.00    +0.105 A 
ATOM     28  C   UNL     1       3.547 -11.918 -10.460  0.00  0.00    +0.029 A 
ATOM     29  C   UNL     1       2.900 -12.026  -9.243  0.00  0.00    +0.005 A 
BRANCH  27  30
ATOM     30  S   UNL     1       4.173 -10.666 -12.803  0.00  0.00    +0.056 S 
ATOM     31  O   UNL     1       4.491 -11.989 -13.214  0.00  0.00    -0.153 OA
ATOM     32  O   UNL     1       3.393  -9.787 -13.603  0.00  0.00    -0.153 OA
BRANCH  30  33
ATOM     33  N   UNL     1       5.612  -9.899 -12.521  0.00  0.00    -0.204 NA
ATOM     34  H   UNL     1       5.847  -9.623 -11.621  0.00  0.00    +0.144 HD
ATOM     35  H   UNL     1       6.221  -9.725 -13.256  0.00  0.00    +0.144 HD
ENDBRANCH  30  33
ENDBRANCH  27  30
ENDBRANCH  23  24
ENDBRANCH  22  23
ENDBRANCH  19  22
ENDBRANCH   5  19
TORSDOF 11
