REMARK  Name = ZINC65305720
REMARK  7 active torsions:
REMARK  status: ('A' for Active; 'I' for Inactive)
REMARK    1  A    between atoms: C_1  and  C_2
REMARK    2  A    between atoms: C_5  and  C_8
REMARK    3  A    between atoms: C_8  and  C_9
REMARK    4  A    between atoms: N_11  and  C_12
REMARK    5  A    between atoms: C_12  and  C_14
REMARK    6  A    between atoms: C_12  and  C_15
REMARK    7  A    between atoms: N_17  and  C_18
REMARK                            x       y       z     vdW  Elec       q    Type
REMARK                         _______ _______ _______ _____ _____    ______ ____
ROOT
ATOM      1  C   UNL     1       3.203  -7.936   0.542  0.00  0.00    +0.236 C 
ATOM      2  O   UNL     1       2.190  -8.476   0.934  0.00  0.00    -0.274 OA
ATOM      3  N   UNL     1       4.387  -8.573   0.636  0.00  0.00    -0.277 N 
ATOM      4  H   UNL     1       5.196  -8.141   0.322  0.00  0.00    +0.152 HD
ENDROOT
BRANCH   3   5
ATOM      5  C   UNL     1       4.450  -9.918   1.212  0.00  0.00    +0.269 C 
ATOM      6  N   UNL     1       4.380  -9.843   2.676  0.00  0.00    -0.348 N 
ATOM      7  C   UNL     1       5.480 -10.356   3.147  0.00  0.00    +0.061 A 
ATOM      8  C   UNL     1       5.983 -10.558   4.513  0.00  0.00    +0.027 A 
ATOM      9  C   UNL     1       7.190 -11.129   4.699  0.00  0.00    +0.002 A 
ATOM     10  C   UNL     1       8.004 -11.548   3.631  0.00  0.00    +0.002 A 
ATOM     11  C   UNL     1       7.638 -11.409   2.341  0.00  0.00    +0.027 A 
ATOM     12  C   UNL     1       6.341 -10.799   2.017  0.00  0.00    +0.061 A 
ATOM     13  N   UNL     1       5.740 -10.543   0.891  0.00  0.00    -0.348 N 
ATOM     14  H   UNL     1       3.647  -9.479   3.198  0.00  0.00    +0.163 HD
ATOM     15  H   UNL     1       6.081 -10.732   0.003  0.00  0.00    +0.163 HD
ENDBRANCH   3   5
BRANCH   1  16
ATOM     16  C   UNL     1       3.137  -6.551  -0.051  0.00  0.00    +0.156 C 
ATOM     17  C   UNL     1       3.653  -6.588  -1.491  0.00  0.00    +0.038 C 
BRANCH  16  20
ATOM     18  C   UNL     1       1.487  -4.759  -0.032  0.00  0.00    +0.218 C 
ATOM     19  O   UNL     1       2.398  -3.959  -0.033  0.00  0.00    -0.275 OA
ATOM     20  N   UNL     1       1.750  -6.081  -0.041  0.00  0.00    -0.304 N 
ATOM     21  H   UNL     1       1.021  -6.721  -0.040  0.00  0.00    +0.149 HD
BRANCH  18  22
ATOM     22  C   UNL     1       0.059  -4.275  -0.021  0.00  0.00    +0.130 C 
BRANCH  22  27
ATOM     23  C   UNL     1      -0.018   1.503   0.010  0.00  0.00    +0.044 C 
ATOM     24  C   UNL     1       0.002  -0.004   0.002  0.00  0.00    -0.050 A 
ATOM     25  C   UNL     1       0.006  -0.689  -1.199  0.00  0.00    +0.003 A 
ATOM     26  C   UNL     1       0.025  -2.071  -1.206  0.00  0.00    +0.004 A 
ATOM     27  C   UNL     1       0.040  -2.768  -0.013  0.00  0.00    -0.039 A 
ATOM     28  C   UNL     1       0.037  -2.084   1.188  0.00  0.00    +0.004 A 
ATOM     29  C   UNL     1       0.023  -0.702   1.195  0.00  0.00    +0.003 A 
ENDBRANCH  22  27
ENDBRANCH  18  22
ENDBRANCH  16  20
ENDBRANCH   1  16
TORSDOF 5
