REMARK  Name = ZINC35990912
REMARK  9 active torsions:
REMARK  status: ('A' for Active; 'I' for Inactive)
REMARK    1  A    between atoms: C_1  and  C_2
REMARK    2  A    between atoms: C_2  and  N_3
REMARK    3  A    between atoms: C_4  and  C_23
REMARK    4  A    between atoms: C_5  and  C_18
REMARK    5  A    between atoms: C_6  and  C_11
REMARK    6  A    between atoms: C_18  and  O_20
REMARK    7  A    between atoms: O_20  and  C_21
REMARK    8  A    between atoms: C_21  and  C_22
REMARK    9  A    between atoms: C_23  and  N_24
REMARK                            x       y       z     vdW  Elec       q    Type
REMARK                         _______ _______ _______ _____ _____    ______ ____
ROOT
ATOM      1  N   UNL     1       0.801  -0.911  -1.554  0.00  0.00    -0.258 N 
ATOM      2  C   UNL     1      -0.048  -0.596  -2.576  0.00  0.00    +0.041 C 
ATOM      3  C   UNL     1       0.351  -0.675  -3.864  0.00  0.00    +0.080 C 
ATOM      4  C   UNL     1       1.773  -1.124  -4.135  0.00  0.00    +0.144 C 
ATOM      5  N   UNL     1       2.608  -1.440  -2.964  0.00  0.00    -0.288 N 
ATOM      6  C   UNL     1       2.067  -1.308  -1.736  0.00  0.00    +0.307 C 
ATOM      7  O   UNL     1       2.749  -1.563  -0.763  0.00  0.00    -0.252 OA
ATOM      8  H   UNL     1       3.526  -1.732  -3.073  0.00  0.00    +0.151 HD
ENDROOT
BRANCH   4   9
ATOM      9  C   UNL     1       1.714  -2.351  -5.007  0.00  0.00    -0.022 A 
ATOM     10  C   UNL     1       1.441  -3.585  -4.446  0.00  0.00    +0.008 A 
ATOM     11  C   UNL     1       1.387  -4.711  -5.245  0.00  0.00    +0.038 A 
ATOM     12  C   UNL     1       1.604  -4.604  -6.608  0.00  0.00    +0.123 A 
ATOM     13  C   UNL     1       1.877  -3.368  -7.169  0.00  0.00    +0.038 A 
ATOM     14  C   UNL     1       1.926  -2.242  -6.369  0.00  0.00    +0.008 A 
ATOM     15  F   UNL     1       1.551  -5.704  -7.390  0.00  0.00    -0.205 F 
ENDBRANCH   4   9
BRANCH   1  17
ATOM     16  C   UNL     1       0.493   0.629   0.320  0.00  0.00    +0.025 C 
ATOM     17  C   UNL     1       0.301  -0.803  -0.181  0.00  0.00    +0.111 C 
ENDBRANCH   1  17
BRANCH   3  18
ATOM     18  C   UNL     1      -0.528  -0.350  -4.923  0.00  0.00    +0.339 C 
ATOM     19  O   UNL     1      -1.697  -0.106  -4.691  0.00  0.00    -0.245 OA
BRANCH  18  20
ATOM     20  O   UNL     1      -0.070  -0.309  -6.192  0.00  0.00    -0.462 OA
BRANCH  20  21
ATOM     21  C   UNL     1      -1.013   0.026  -7.212  0.00  0.00    +0.229 C 
ATOM     22  C   UNL     1      -0.315   0.022  -8.573  0.00  0.00    +0.048 C 
ENDBRANCH  20  21
ENDBRANCH  18  20
ENDBRANCH   3  18
BRANCH   2  23
ATOM     23  C   UNL     1      -1.454  -0.154  -2.262  0.00  0.00    +0.136 C 
BRANCH  23  24
ATOM     24  N   UNL     1      -2.361  -1.306  -2.350  0.00  0.00    -0.300 NA
ATOM     25  C   UNL     1      -2.155  -2.227  -1.223  0.00  0.00    +0.066 C 
ATOM     26  C   UNL     1      -3.075  -3.439  -1.384  0.00  0.00    -0.067 C 
ATOM     27  N   UNL     1      -4.473  -2.991  -1.424  0.00  0.00    +0.381 N 
ATOM     28  C   UNL     1      -4.669  -2.093  -2.569  0.00  0.00    -0.067 C 
ATOM     29  C   UNL     1      -3.763  -0.869  -2.418  0.00  0.00    +0.066 C 
ATOM     30  H   UNL     1      -5.080  -3.792  -1.518  0.00  0.00    -0.086 HD
ATOM     31  H   UNL     1      -4.694  -2.501  -0.571  0.00  0.00    -0.086 HD
ENDBRANCH  23  24
ENDBRANCH   2  23
TORSDOF 7
