REMARK  Name = ZINC08442821
REMARK  7 active torsions:
REMARK  status: ('A' for Active; 'I' for Inactive)
REMARK    1  A    between atoms: C_1  and  C_2
REMARK    2  A    between atoms: C_2  and  C_33
REMARK    3  A    between atoms: C_6  and  C_23
REMARK    4  A    between atoms: C_8  and  C_21
REMARK    5  A    between atoms: C_9  and  N_20
REMARK    6  A    between atoms: N_10  and  C_11
REMARK    7  A    between atoms: C_14  and  N_17
REMARK                            x       y       z     vdW  Elec       q    Type
REMARK                         _______ _______ _______ _____ _____    ______ ____
ROOT
ATOM      1  C   UNL     1       0.149   5.116   2.082  0.00  0.00    +0.011 C 
ATOM      2  C   UNL     1       0.074   5.482   0.598  0.00  0.00    -0.023 C 
ATOM      3  C   UNL     1      -0.007   4.206  -0.243  0.00  0.00    +0.058 C 
ATOM      4  C   UNL     1      -1.257   3.441   0.116  0.00  0.00    +0.025 C 
ATOM      5  C   UNL     1      -2.369   4.082   0.534  0.00  0.00    +0.025 C 
ATOM      6  C   UNL     1      -3.617   3.316   0.894  0.00  0.00    +0.097 C 
ATOM      7  C   UNL     1      -3.582   1.927   0.328  0.00  0.00    +0.077 C 
ATOM      8  C   UNL     1      -2.416   1.366  -0.089  0.00  0.00    +0.107 C 
ATOM      9  N   UNL     1      -1.240   2.075   0.005  0.00  0.00    -0.260 N 
ATOM     10  C   UNL     1      -2.397   5.483   0.650  0.00  0.00    +0.162 C 
ATOM     11  O   UNL     1      -3.420   6.032   1.010  0.00  0.00    -0.292 OA
ATOM     12  C   UNL     1      -1.185   6.316   0.336  0.00  0.00    +0.086 C 
ATOM     13  C   UNL     1       1.317   6.281   0.201  0.00  0.00    +0.011 C 
ENDROOT
BRANCH   6  14
ATOM     14  C   UNL     1      -3.732   3.236   2.394  0.00  0.00    -0.035 A 
ATOM     15  C   UNL     1      -2.737   2.621   3.131  0.00  0.00    +0.007 A 
ATOM     16  C   UNL     1      -2.839   2.552   4.508  0.00  0.00    +0.038 A 
ATOM     17  C   UNL     1      -3.943   3.089   5.148  0.00  0.00    +0.123 A 
ATOM     18  C   UNL     1      -4.942   3.700   4.408  0.00  0.00    +0.038 A 
ATOM     19  C   UNL     1      -4.835   3.773   3.032  0.00  0.00    +0.007 A 
ATOM     20  F   UNL     1      -4.047   3.017   6.493  0.00  0.00    -0.205 F 
ENDBRANCH   6  14
BRANCH   9  21
ATOM     21  C   UNL     1      -0.016   1.396  -0.019  0.00  0.00    +0.040 A 
ATOM     22  C   UNL     1       0.617   1.145  -1.230  0.00  0.00    +0.026 A 
ATOM     23  C   UNL     1       1.822   0.470  -1.250  0.00  0.00    +0.034 A 
ATOM     24  C   UNL     1       2.398   0.044  -0.067  0.00  0.00    +0.126 A 
ATOM     25  C   UNL     1       1.770   0.292   1.140  0.00  0.00    +0.034 A 
ATOM     26  C   UNL     1       0.565   0.967   1.167  0.00  0.00    +0.026 A 
BRANCH  24  27
ATOM     27  N   UNL     1       3.689  -0.680  -0.093  0.00  0.00    +0.056 N 
ATOM     28  O   UNL     1       4.197  -1.056   0.948  0.00  0.00    -0.126 OA
ATOM     29  O   UNL     1       4.242  -0.899  -1.155  0.00  0.00    -0.126 OA
ENDBRANCH  24  27
ENDBRANCH   9  21
BRANCH   8  30
ATOM     30  N   UNL     1      -2.410   0.091  -0.601  0.00  0.00    -0.345 N 
ATOM     31  H   UNL     1      -1.568  -0.341  -0.818  0.00  0.00    +0.144 HD
ATOM     32  H   UNL     1      -3.246  -0.378  -0.745  0.00  0.00    +0.144 HD
ENDBRANCH   8  30
BRANCH   7  33
ATOM     33  C   UNL     1      -4.799   1.180   0.222  0.00  0.00    +0.099 C 
ATOM     34  N   UNL     1      -5.765   0.587   0.137  0.00  0.00    -0.191 NA
ENDBRANCH   7  33
TORSDOF 5
