REMARK  Name = ZINC66956349
REMARK  5 active torsions:
REMARK  status: ('A' for Active; 'I' for Inactive)
REMARK    1  A    between atoms: C_3  and  N_16
REMARK    2  A    between atoms: C_6  and  C_7
REMARK    3  A    between atoms: N_19  and  C_20
REMARK    4  A    between atoms: N_24  and  C_26
REMARK    5  A    between atoms: C_26  and  C_27
REMARK                            x       y       z     vdW  Elec       q    Type
REMARK                         _______ _______ _______ _____ _____    ______ ____
ROOT
ATOM      1  N   UNL     1       3.581   2.134  -0.022  0.00  0.00    -0.269 N 
ATOM      2  C   UNL     1       4.701   1.398   0.125  0.00  0.00    +0.304 C 
ATOM      3  O   UNL     1       4.629   0.185   0.173  0.00  0.00    -0.253 OA
ATOM      4  N   UNL     1       5.900   2.007   0.218  0.00  0.00    -0.298 N 
ATOM      5  H   UNL     1       3.644   3.095  -0.136  0.00  0.00    +0.156 HD
ATOM      6  H   UNL     1       5.957   2.974   0.180  0.00  0.00    +0.150 HD
ENDROOT
BRANCH   1   9
ATOM      7  C   UNL     1       0.885  -0.222   0.804  0.00  0.00    +0.013 A 
ATOM      8  C   UNL     1       2.119   0.393   0.789  0.00  0.00    +0.024 A 
ATOM      9  C   UNL     1       2.329   1.511  -0.010  0.00  0.00    +0.035 A 
ATOM     10  C   UNL     1       1.298   2.012  -0.796  0.00  0.00    +0.024 A 
ATOM     11  C   UNL     1       0.063   1.401  -0.785  0.00  0.00    +0.013 A 
ATOM     12  C   UNL     1      -0.152   0.279   0.016  0.00  0.00    +0.019 A 
BRANCH  12  13
ATOM     13  C   UNL     1      -1.476  -0.379   0.029  0.00  0.00    +0.164 A 
ATOM     14  N   UNL     1      -1.927  -1.222   0.937  0.00  0.00    -0.129 NA
ATOM     15  N   UNL     1      -3.121  -1.596   0.631  0.00  0.00    -0.134 NA
ATOM     16  C   UNL     1      -3.495  -1.021  -0.472  0.00  0.00    +0.134 A 
ATOM     17  N   UNL     1      -2.468  -0.227  -0.889  0.00  0.00    -0.311 N 
ATOM     18  C   UNL     1      -2.486   0.598  -2.097  0.00  0.00    +0.125 C 
ATOM     19  C   UNL     1      -3.623   0.114  -3.005  0.00  0.00    +0.022 C 
ATOM     20  C   UNL     1      -4.919   0.013  -2.196  0.00  0.00    +0.009 C 
ATOM     21  C   UNL     1      -4.806  -1.156  -1.206  0.00  0.00    +0.076 C 
ENDBRANCH  12  13
ENDBRANCH   1   9
BRANCH   4  22
ATOM     22  C   UNL     1       7.117   1.207   0.378  0.00  0.00    +0.056 C 
ATOM     23  C   UNL     1       7.386   0.933   1.875  0.00  0.00    +0.002 C 
ATOM     24  C   UNL     1       8.927   1.065   1.980  0.00  0.00    -0.077 C 
ATOM     25  N   UNL     1       9.236   2.183   1.051  0.00  0.00    +0.381 N 
ATOM     26  C   UNL     1       8.343   1.996  -0.116  0.00  0.00    -0.056 C 
ATOM     27  H   UNL     1       9.046   3.068   1.497  0.00  0.00    -0.082 HD
BRANCH  25  28
ATOM     28  C   UNL     1      10.641   2.116   0.629  0.00  0.00    -0.075 C 
BRANCH  28  29
ATOM     29  C   UNL     1      11.548   2.379   1.833  0.00  0.00    -0.028 C 
ATOM     30  C   UNL     1      12.435   3.625   1.790  0.00  0.00    +0.002 C 
ATOM     31  C   UNL     1      13.057   2.238   1.624  0.00  0.00    +0.002 C 
ENDBRANCH  28  29
ENDBRANCH  25  28
ENDBRANCH   4  22
TORSDOF 5
