REMARK  Name = ZINC40744780
REMARK  12 active torsions:
REMARK  status: ('A' for Active; 'I' for Inactive)
REMARK    1  A    between atoms: C_1  and  C_2
REMARK    2  A    between atoms: C_7  and  C_8
REMARK    3  A    between atoms: C_8  and  O_9
REMARK    4  A    between atoms: O_9  and  C_10
REMARK    5  A    between atoms: C_15  and  C_16
REMARK    6  A    between atoms: C_16  and  N_17
REMARK    7  A    between atoms: N_17  and  C_18
REMARK    8  A    between atoms: C_18  and  C_19
REMARK    9  A    between atoms: C_19  and  C_20
REMARK   10  A    between atoms: C_20  and  S_21
REMARK   11  A    between atoms: S_21  and  C_22
REMARK   12  A    between atoms: N_26  and  C_27
REMARK                            x       y       z     vdW  Elec       q    Type
REMARK                         _______ _______ _______ _____ _____    ______ ____
ROOT
ATOM      1  C   UNL     1       0.053  -0.377   4.844  0.00  0.00    +0.122 A 
ATOM      2  C   UNL     1       0.031   0.997   5.035  0.00  0.00    +0.047 A 
ATOM      3  C   UNL     1       0.036   1.516   6.314  0.00  0.00    +0.019 A 
ATOM      4  C   UNL     1       0.064   0.667   7.406  0.00  0.00    +0.018 A 
ATOM      5  C   UNL     1       0.086  -0.703   7.219  0.00  0.00    +0.020 A 
ATOM      6  C   UNL     1       0.075  -1.227   5.940  0.00  0.00    -0.022 A 
ATOM      7 BR   UNL     1       0.071   1.380   9.158  0.00  0.00    -0.050 Br
ENDROOT
BRANCH   1   8
ATOM      8  O   UNL     1       0.048  -0.889   3.585  0.00  0.00    -0.487 OA
BRANCH   8   9
ATOM      9  C   UNL     1       0.025   0.045   2.504  0.00  0.00    +0.264 C 
BRANCH   9  16
ATOM     10  C   UNL     1      -0.018   1.503   0.010  0.00  0.00    +0.044 C 
ATOM     11  C   UNL     1       0.002  -0.004   0.002  0.00  0.00    -0.044 A 
ATOM     12  C   UNL     1       0.006  -0.689  -1.199  0.00  0.00    +0.004 A 
ATOM     13  C   UNL     1       0.025  -2.071  -1.207  0.00  0.00    +0.000 A 
ATOM     14  C   UNL     1       0.040  -2.768  -0.013  0.00  0.00    +0.000 A 
ATOM     15  C   UNL     1       0.037  -2.084   1.188  0.00  0.00    +0.007 A 
ATOM     16  C   UNL     1       0.023  -0.702   1.195  0.00  0.00    -0.007 A 
ENDBRANCH   9  16
ENDBRANCH   8   9
ENDBRANCH   1   8
BRANCH   6  17
ATOM     17  C   UNL     1       0.093  -2.720   5.736  0.00  0.00    -0.043 C 
BRANCH  17  18
ATOM     18  N   UNL     1       1.460  -3.154   5.418  0.00  0.00    +0.382 N 
ATOM     19  H   UNL     1       1.771  -2.696   4.575  0.00  0.00    -0.085 HD
ATOM     20  H   UNL     1       2.075  -2.912   6.180  0.00  0.00    -0.085 HD
BRANCH  18  21
ATOM     21  C   UNL     1       1.477  -4.610   5.220  0.00  0.00    -0.081 C 
BRANCH  21  22
ATOM     22  C   UNL     1       2.900  -5.062   4.888  0.00  0.00    -0.008 C 
BRANCH  22  23
ATOM     23  C   UNL     1       2.918  -6.578   4.681  0.00  0.00    +0.075 C 
BRANCH  23  24
ATOM     24  S   UNL     1       4.606  -7.115   4.289  0.00  0.00    -0.085 S 
BRANCH  24  25
ATOM     25  C   UNL     1       4.462  -8.859   4.082  0.00  0.00    +0.209 A 
ATOM     26  N   UNL     1       3.360  -9.570   4.190  0.00  0.00    -0.102 NA
ATOM     27  N   UNL     1       3.605 -10.813   3.978  0.00  0.00    -0.022 NA
ATOM     28  N   UNL     1       4.857 -10.986   3.725  0.00  0.00    -0.043 NA
ATOM     29  N   UNL     1       5.462  -9.718   3.777  0.00  0.00    -0.223 N 
ATOM     30  C   UNL     1       6.873  -9.396   3.552  0.00  0.00    +0.177 C 
ENDBRANCH  24  25
ENDBRANCH  23  24
ENDBRANCH  22  23
ENDBRANCH  21  22
ENDBRANCH  18  21
ENDBRANCH  17  18
ENDBRANCH   6  17
TORSDOF 10
