REMARK  Name = ZINC67028379
REMARK  8 active torsions:
REMARK  status: ('A' for Active; 'I' for Inactive)
REMARK    1  A    between atoms: C_1  and  C_2
REMARK    2  A    between atoms: C_3  and  C_16
REMARK    3  A    between atoms: C_4  and  C_11
REMARK    4  A    between atoms: N_9  and  C_10
REMARK    5  A    between atoms: N_18  and  C_19
REMARK    6  A    between atoms: C_24  and  C_25
REMARK    7  A    between atoms: C_25  and  C_26
REMARK    8  A    between atoms: C_25  and  C_27
REMARK                            x       y       z     vdW  Elec       q    Type
REMARK                         _______ _______ _______ _____ _____    ______ ____
ROOT
ATOM      1  C   UNL     1      -1.429  -1.299  -1.997  0.00  0.00    +0.061 C 
ATOM      2  C   UNL     1      -0.461  -1.221  -0.844  0.00  0.00    +0.019 C 
ATOM      3  C   UNL     1      -0.856  -0.656   0.317  0.00  0.00    +0.058 C 
ATOM      4  C   UNL     1       0.148  -0.598   1.450  0.00  0.00    +0.160 C 
ATOM      5  N   UNL     1       1.481  -1.167   1.191  0.00  0.00    -0.314 N 
ATOM      6  C   UNL     1       1.726  -1.699  -0.024  0.00  0.00    +0.137 C 
ATOM      7  S   UNL     1       3.272  -2.364  -0.340  0.00  0.00    -0.018 S 
ATOM      8  N   UNL     1       0.799  -1.728  -0.989  0.00  0.00    -0.289 N 
ATOM      9  C   UNL     1       1.157  -2.333  -2.274  0.00  0.00    +0.137 C 
ATOM     10  H   UNL     1       2.167  -1.160   1.877  0.00  0.00    +0.149 HD
ENDROOT
BRANCH   4  11
ATOM     11  C   UNL     1      -0.443  -1.322   2.632  0.00  0.00    +0.097 A 
ATOM     12  C   UNL     1       0.171  -2.380   3.221  0.00  0.00    +0.094 A 
ATOM     13  S   UNL     1      -0.909  -2.773   4.446  0.00  0.00    +0.028 S 
ATOM     14  N   UNL     1      -2.035  -1.643   4.179  0.00  0.00    -0.110 NA
ATOM     15  N   UNL     1      -1.591  -0.973   3.173  0.00  0.00    -0.144 NA
ENDBRANCH   4  11
BRANCH   3  16
ATOM     16  C   UNL     1      -2.163  -0.134   0.469  0.00  0.00    +0.248 C 
ATOM     17  O   UNL     1      -2.352   1.067   0.400  0.00  0.00    -0.270 OA
ATOM     18  N   UNL     1      -3.199  -0.967   0.692  0.00  0.00    -0.281 N 
ATOM     19  H   UNL     1      -3.040  -1.915   0.822  0.00  0.00    +0.155 HD
BRANCH  18  20
ATOM     20  C   UNL     1      -4.504  -0.465   0.735  0.00  0.00    +0.037 A 
ATOM     21  C   UNL     1      -4.732   0.846   1.133  0.00  0.00    +0.023 A 
ATOM     22  C   UNL     1      -6.021   1.340   1.174  0.00  0.00    +0.002 A 
ATOM     23  C   UNL     1      -7.084   0.530   0.819  0.00  0.00    +0.000 A 
ATOM     24  C   UNL     1      -6.861  -0.775   0.422  0.00  0.00    +0.006 A 
ATOM     25  C   UNL     1      -5.573  -1.273   0.373  0.00  0.00    -0.024 A 
BRANCH  25  26
ATOM     26  C   UNL     1      -5.330  -2.694  -0.066  0.00  0.00    +0.015 C 
ATOM     27  C   UNL     1      -6.121  -3.648   0.832  0.00  0.00    +0.012 C 
ATOM     28  C   UNL     1      -5.784  -2.865  -1.517  0.00  0.00    +0.012 C 
ENDBRANCH  25  26
ENDBRANCH  18  20
ENDBRANCH   3  16
TORSDOF 4
