REMARK  Name = ZINC09640460
REMARK  7 active torsions:
REMARK  status: ('A' for Active; 'I' for Inactive)
REMARK    1  A    between atoms: C_1  and  C_2
REMARK    2  A    between atoms: C_4  and  C_29
REMARK    3  A    between atoms: C_6  and  N_13
REMARK    4  A    between atoms: C_14  and  C_16
REMARK    5  A    between atoms: C_16  and  N_52
REMARK    6  A    between atoms: C_17  and  N_52
REMARK    7  A    between atoms: C_18  and  N_52
REMARK                            x       y       z     vdW  Elec       q    Type
REMARK                         _______ _______ _______ _____ _____    ______ ____
ROOT
ATOM      1  N   UNL     1       0.881  -5.060  -1.150  0.00  0.00    -0.257 N 
ATOM      2  C   UNL     1      -0.017  -4.079  -1.367  0.00  0.00    +0.203 C 
ATOM      3  O   UNL     1      -0.797  -4.165  -2.292  0.00  0.00    -0.277 OA
ATOM      4  H   UNL     1       1.505  -4.992  -0.410  0.00  0.00    +0.158 HD
ENDROOT
BRANCH   1  10
ATOM      5  C   UNL     1       1.870 -10.356  -4.231  0.00  0.00    +0.068 C 
ATOM      6  C   UNL     1       2.185  -9.388  -3.121  0.00  0.00    +0.070 A 
ATOM      7  C   UNL     1       1.419  -8.145  -2.988  0.00  0.00    +0.053 A 
ATOM      8  C   UNL     1       0.399  -7.549  -3.641  0.00  0.00    +0.114 A 
ATOM      9  O   UNL     1       0.112  -6.381  -3.037  0.00  0.00    -0.445 OA
ATOM     10  C   UNL     1       0.914  -6.165  -1.983  0.00  0.00    +0.206 A 
ATOM     11  C   UNL     1       1.778  -7.228  -1.878  0.00  0.00    +0.110 A 
ATOM     12  C   UNL     1       2.864  -7.634  -0.991  0.00  0.00    +0.277 A 
ATOM     13  O   UNL     1       3.203  -6.926  -0.060  0.00  0.00    -0.266 OA
ATOM     14  N   UNL     1       3.488  -8.807  -1.226  0.00  0.00    -0.242 N 
ATOM     15  H   UNL     1       4.212  -9.075  -0.638  0.00  0.00    +0.192 HD
ATOM     16  N   UNL     1       3.136  -9.649  -2.278  0.00  0.00    -0.175 NA
ATOM     17  C   UNL     1      -0.305  -8.102  -4.853  0.00  0.00    +0.087 C 
ENDBRANCH   1  10
BRANCH   2  18
ATOM     18  C   UNL     1      -0.053  -2.876  -0.460  0.00  0.00    +0.019 C 
BRANCH  18  20
ATOM     19  C   UNL     1      -0.729  -1.276  -2.147  0.00  0.00    -0.095 C 
ATOM     20  N   UNL     1      -1.135  -1.975  -0.909  0.00  0.00    +0.388 N 
ATOM     21  H   UNL     1      -1.976  -2.533  -1.102  0.00  0.00    -0.081 HD
BRANCH  20  22
ATOM     22  C   UNL     1      -1.445  -0.991   0.149  0.00  0.00    -0.037 C 
ATOM     23  C   UNL     1      -0.178  -0.249   0.570  0.00  0.00    -0.010 C 
ATOM     24  C   UNL     1      -0.502   0.597   1.807  0.00  0.00    +0.003 C 
ATOM     25  C   UNL     1      -0.733  -0.343   2.988  0.00  0.00    +0.035 C 
ATOM     26  C   UNL     1      -1.728  -1.414   2.626  0.00  0.00    -0.046 A 
ATOM     27  C   UNL     1      -2.047  -1.719   1.322  0.00  0.00    -0.058 A 
ATOM     28  C   UNL     1      -2.961  -2.730   1.056  0.00  0.00    +0.002 A 
ATOM     29  C   UNL     1      -3.556  -3.427   2.087  0.00  0.00    +0.000 A 
ATOM     30  C   UNL     1      -3.240  -3.117   3.397  0.00  0.00    +0.000 A 
ATOM     31  C   UNL     1      -2.331  -2.114   3.663  0.00  0.00    +0.004 A 
ENDBRANCH  20  22
ENDBRANCH  18  20
ENDBRANCH   2  18
TORSDOF 4
