REMARK  Name = ZINC37336659
REMARK  3 active torsions:
REMARK  status: ('A' for Active; 'I' for Inactive)
REMARK    1  A    between atoms: C_1  and  C_2
REMARK    2  A    between atoms: C_7  and  C_10
REMARK    3  A    between atoms: C_13  and  C_21
REMARK                            x       y       z     vdW  Elec       q    Type
REMARK                         _______ _______ _______ _____ _____    ______ ____
ROOT
ATOM      1  C   UNL     1       0.012   1.492   0.047  0.00  0.00    +0.039 C 
ATOM      2  C   UNL     1       0.023  -0.038   0.012  0.00  0.00    +0.133 C 
ATOM      3  C   UNL     1       0.729  -0.516  -1.262  0.00  0.00    +0.137 C 
ATOM      4  N   UNL     1       2.154  -0.161  -1.165  0.00  0.00    -0.312 N 
ATOM      5  C   UNL     1       2.878  -0.540   0.059  0.00  0.00    +0.137 C 
ATOM      6  C   UNL     1       2.068  -0.061   1.269  0.00  0.00    +0.133 C 
ATOM      7  O   UNL     1       0.724  -0.536   1.155  0.00  0.00    -0.371 OA
ATOM      8  C   UNL     1       2.697  -0.606   2.553  0.00  0.00    +0.039 C 
ATOM      9  C   UNL     1       2.795   0.509  -2.196  0.00  0.00    +0.100 A 
ATOM     10  C   UNL     1       2.098   0.734  -3.393  0.00  0.00    +0.057 A 
ATOM     11  C   UNL     1       2.728   1.404  -4.432  0.00  0.00    +0.075 A 
ATOM     12  C   UNL     1       4.107   1.843  -4.210  0.00  0.00    +0.013 A 
ATOM     13  C   UNL     1       4.825   2.526  -5.197  0.00  0.00    +0.011 A 
ATOM     14  C   UNL     1       6.108   2.917  -4.948  0.00  0.00    +0.001 A 
ATOM     15  C   UNL     1       6.711   2.644  -3.723  0.00  0.00    +0.002 A 
ATOM     16  C   UNL     1       6.040   1.982  -2.741  0.00  0.00    +0.026 A 
ATOM     17  C   UNL     1       4.716   1.563  -2.962  0.00  0.00    +0.049 A 
ATOM     18  N   UNL     1       4.030   0.916  -2.015  0.00  0.00    -0.343 N 
ATOM     19  H   UNL     1       4.462   0.737  -1.165  0.00  0.00    +0.167 HD
ENDROOT
BRANCH  11  20
ATOM     20  C   UNL     1       2.036   1.664  -5.710  0.00  0.00    +0.387 C 
ATOM     21  O   UNL     1       0.852   1.381  -5.833  0.00  0.00    -0.241 OA
ATOM     22  O   UNL     1       2.646   2.162  -6.646  0.00  0.00    -0.241 OA
ENDBRANCH  11  20
TORSDOF 1
