REMARK  Name = ZINC20236018
REMARK  7 active torsions:
REMARK  status: ('A' for Active; 'I' for Inactive)
REMARK    1  A    between atoms: C_1  and  C_2
REMARK    2  A    between atoms: C_6  and  O_8
REMARK    3  A    between atoms: O_8  and  C_9
REMARK    4  A    between atoms: C_9  and  C_10
REMARK    5  A    between atoms: C_10  and  N_11
REMARK    6  A    between atoms: C_13  and  C_20
REMARK    7  A    between atoms: C_30  and  C_32
REMARK                            x       y       z     vdW  Elec       q    Type
REMARK                         _______ _______ _______ _____ _____    ______ ____
ROOT
ATOM      1  N   UNL     1      -0.338  -6.130   2.965  0.00  0.00    -0.343 N 
ATOM      2  C   UNL     1      -1.320  -7.027   3.175  0.00  0.00    +0.095 A 
ATOM      3  C   UNL     1      -0.773  -8.288   3.314  0.00  0.00    +0.001 A 
ATOM      4  C   UNL     1       0.687  -8.120   3.171  0.00  0.00    +0.007 A 
ATOM      5  C   UNL     1       0.895  -6.749   2.949  0.00  0.00    +0.050 A 
ATOM      6  C   UNL     1       2.192  -6.278   2.769  0.00  0.00    +0.026 A 
ATOM      7  C   UNL     1       3.254  -7.155   2.806  0.00  0.00    +0.002 A 
ATOM      8  C   UNL     1       3.046  -8.509   3.022  0.00  0.00    +0.001 A 
ATOM      9  C   UNL     1       1.769  -8.994   3.212  0.00  0.00    +0.010 A 
ENDROOT
BRANCH   3  10
ATOM     10  C   UNL     1      -1.469  -9.496   3.546  0.00  0.00    +0.027 C 
ATOM     11  C   UNL     1      -2.604  -9.499   4.337  0.00  0.00    +0.084 C 
ATOM     12  C   UNL     1      -3.474 -10.704   4.472  0.00  0.00    +0.176 C 
ATOM     13  N   UNL     1      -3.026 -11.932   4.399  0.00  0.00    -0.280 NA
ATOM     14  N   UNL     1      -4.808 -10.385   4.684  0.00  0.00    -0.142 N 
ATOM     15  C   UNL     1      -5.176  -9.169   5.202  0.00  0.00    +0.168 C 
ATOM     16  N   UNL     1      -4.326  -8.172   5.436  0.00  0.00    -0.156 NA
ATOM     17  C   UNL     1      -3.029  -8.307   5.107  0.00  0.00    +0.273 C 
ATOM     18  O   UNL     1      -2.214  -7.459   5.434  0.00  0.00    -0.268 OA
ATOM     19  C   UNL     1      -6.564  -9.222   5.396  0.00  0.00    +0.091 C 
ATOM     20  C   UNL     1      -7.011 -10.416   4.948  0.00  0.00    +0.134 C 
ATOM     21  O   UNL     1      -5.977 -11.127   4.469  0.00  0.00    -0.375 OA
ATOM     22  C   UNL     1      -8.445 -10.877   4.980  0.00  0.00    +0.089 C 
ATOM     23  H   UNL     1      -2.082 -12.095   4.249  0.00  0.00    +0.188 HD
ENDBRANCH   3  10
BRANCH   1  24
ATOM     24  C   UNL     1      -0.550  -4.693   2.773  0.00  0.00    +0.163 C 
BRANCH  24  25
ATOM     25  C   UNL     1      -0.622  -4.383   1.276  0.00  0.00    +0.250 C 
BRANCH  25  26
ATOM     26  O   UNL     1      -0.829  -2.982   1.089  0.00  0.00    -0.490 OA
BRANCH  26  32
ATOM     27  C   UNL     1      -1.425   0.727  -2.027  0.00  0.00    +0.044 C 
ATOM     28  C   UNL     1      -1.207  -0.738  -1.750  0.00  0.00    -0.047 A 
ATOM     29  C   UNL     1      -1.096  -1.631  -2.800  0.00  0.00    +0.003 A 
ATOM     30  C   UNL     1      -0.896  -2.975  -2.549  0.00  0.00    +0.004 A 
ATOM     31  C   UNL     1      -0.806  -3.430  -1.247  0.00  0.00    +0.045 A 
ATOM     32  C   UNL     1      -0.917  -2.537  -0.192  0.00  0.00    +0.121 A 
ATOM     33  C   UNL     1      -1.112  -1.187  -0.447  0.00  0.00    +0.049 A 
ENDBRANCH  26  32
ENDBRANCH  25  26
ENDBRANCH  24  25
ENDBRANCH   1  24
TORSDOF 5
