REMARK  Name = ZINC36636632
REMARK  11 active torsions:
REMARK  status: ('A' for Active; 'I' for Inactive)
REMARK    1  A    between atoms: C_1  and  C_2
REMARK    2  A    between atoms: C_5  and  C_9
REMARK    3  A    between atoms: C_7  and  C_8
REMARK    4  A    between atoms: C_9  and  C_11
REMARK    5  A    between atoms: C_9  and  N_12
REMARK    6  A    between atoms: C_13  and  C_15
REMARK    7  A    between atoms: C_15  and  S_16
REMARK    8  A    between atoms: S_16  and  C_17
REMARK    9  A    between atoms: C_20  and  C_28
REMARK   10  A    between atoms: N_21  and  C_22
REMARK   11  A    between atoms: C_32  and  C_33
REMARK                            x       y       z     vdW  Elec       q    Type
REMARK                         _______ _______ _______ _____ _____    ______ ____
ROOT
ATOM      1  C   UNL     1       4.088  -8.524  -3.041  0.00  0.00    +0.197 A 
ATOM      2  N   UNL     1       4.340  -7.775  -4.089  0.00  0.00    -0.122 NA
ATOM      3  N   UNL     1       5.138  -8.387  -4.889  0.00  0.00    -0.128 NA
ATOM      4  C   UNL     1       5.447  -9.566  -4.402  0.00  0.00    +0.173 A 
ATOM      5  N   UNL     1       4.789  -9.690  -3.198  0.00  0.00    -0.270 N 
ENDROOT
BRANCH   5   6
ATOM      6  C   UNL     1       4.825 -10.783  -2.320  0.00  0.00    +0.051 A 
ATOM      7  C   UNL     1       6.010 -11.121  -1.680  0.00  0.00    +0.026 A 
ATOM      8  C   UNL     1       6.043 -12.198  -0.816  0.00  0.00    +0.002 A 
ATOM      9  C   UNL     1       4.897 -12.938  -0.587  0.00  0.00    +0.000 A 
ATOM     10  C   UNL     1       3.716 -12.604  -1.224  0.00  0.00    +0.002 A 
ATOM     11  C   UNL     1       3.676 -11.524  -2.085  0.00  0.00    +0.026 A 
ENDBRANCH   5   6
BRANCH   4  12
ATOM     12  C   UNL     1       6.338 -10.569  -5.024  0.00  0.00    +0.060 A 
ATOM     13  C   UNL     1       6.687 -11.894  -4.495  0.00  0.00    +0.053 A 
ATOM     14  C   UNL     1       7.519 -12.445  -5.395  0.00  0.00    +0.196 A 
ATOM     15  O   UNL     1       7.701 -11.584  -6.407  0.00  0.00    -0.467 OA
ATOM     16  C   UNL     1       6.999 -10.459  -6.207  0.00  0.00    +0.112 A 
ATOM     17  C   UNL     1       6.954  -9.271  -7.135  0.00  0.00    +0.087 C 
ENDBRANCH   4  12
BRANCH   1  18
ATOM     18  S   UNL     1       3.049  -8.104  -1.681  0.00  0.00    -0.076 S 
BRANCH  18  19
ATOM     19  C   UNL     1       2.437  -6.446  -2.092  0.00  0.00    +0.173 C 
BRANCH  19  21
ATOM     20  N   UNL     1       0.948  -4.746  -1.087  0.00  0.00    -0.308 N 
ATOM     21  C   UNL     1       1.524  -5.962  -0.996  0.00  0.00    +0.224 C 
ATOM     22  O   UNL     1       1.306  -6.665  -0.033  0.00  0.00    -0.275 OA
ATOM     23  H   UNL     1       1.121  -4.184  -1.858  0.00  0.00    +0.149 HD
BRANCH  20  24
ATOM     24  C   UNL     1       0.059  -4.275  -0.021  0.00  0.00    +0.100 C 
ATOM     25  C   UNL     1      -1.356  -4.802  -0.267  0.00  0.00    +0.033 C 
BRANCH  24  30
ATOM     26  C   UNL     1      -0.018   1.503   0.010  0.00  0.00    +0.044 C 
ATOM     27  C   UNL     1       0.002  -0.004   0.002  0.00  0.00    -0.048 A 
ATOM     28  C   UNL     1       0.006  -0.689  -1.199  0.00  0.00    +0.004 A 
ATOM     29  C   UNL     1       0.025  -2.071  -1.207  0.00  0.00    +0.006 A 
ATOM     30  C   UNL     1       0.040  -2.768  -0.013  0.00  0.00    -0.027 A 
ATOM     31  C   UNL     1       0.037  -2.084   1.188  0.00  0.00    +0.009 A 
ATOM     32  C   UNL     1       0.023  -0.702   1.195  0.00  0.00    -0.047 A 
ATOM     33  C   UNL     1       0.025   0.045   2.504  0.00  0.00    +0.044 C 
ENDBRANCH  24  30
ENDBRANCH  20  24
ENDBRANCH  19  21
ENDBRANCH  18  19
ENDBRANCH   1  18
TORSDOF 7
