REMARK  Name = ZINC13354118
REMARK  8 active torsions:
REMARK  status: ('A' for Active; 'I' for Inactive)
REMARK    1  A    between atoms: C_1  and  C_2
REMARK    2  A    between atoms: C_2  and  C_4
REMARK    3  A    between atoms: C_2  and  S_17
REMARK    4  A    between atoms: N_6  and  C_7
REMARK    5  A    between atoms: C_10  and  N_14
REMARK    6  A    between atoms: S_17  and  C_18
REMARK    7  A    between atoms: C_21  and  C_30
REMARK    8  A    between atoms: N_22  and  C_23
REMARK                            x       y       z     vdW  Elec       q    Type
REMARK                         _______ _______ _______ _____ _____    ______ ____
ROOT
ATOM      1  C   UNL     1       2.201   7.625  -1.266  0.00  0.00    +0.029 C 
ATOM      2  C   UNL     1       1.433   7.780   0.048  0.00  0.00    +0.137 C 
ENDROOT
BRANCH   2   3
ATOM      3  C   UNL     1       0.933   9.197   0.173  0.00  0.00    +0.230 C 
ATOM      4  O   UNL     1      -0.220   9.459  -0.097  0.00  0.00    -0.274 OA
ATOM      5  N   UNL     1       1.768  10.171   0.585  0.00  0.00    -0.283 N 
ATOM      6  H   UNL     1       2.671   9.951   0.863  0.00  0.00    +0.155 HD
BRANCH   5   7
ATOM      7  C   UNL     1       1.332  11.501   0.612  0.00  0.00    +0.052 A 
ATOM      8  C   UNL     1       0.012  11.794   0.930  0.00  0.00    +0.027 A 
ATOM      9  C   UNL     1      -0.415  13.107   0.956  0.00  0.00    +0.034 A 
ATOM     10  C   UNL     1       0.469  14.130   0.666  0.00  0.00    +0.128 A 
ATOM     11  C   UNL     1       1.784  13.843   0.349  0.00  0.00    +0.054 A 
ATOM     12  C   UNL     1       2.220  12.531   0.327  0.00  0.00    +0.064 A 
ATOM     13 CL   UNL     1       3.872  12.171  -0.064  0.00  0.00    -0.082 Cl
BRANCH  10  14
ATOM     14  N   UNL     1       0.007  15.536   0.695  0.00  0.00    +0.056 N 
ATOM     15  O   UNL     1      -1.151  15.791   0.974  0.00  0.00    -0.126 OA
ATOM     16  O   UNL     1       0.785  16.438   0.440  0.00  0.00    -0.126 OA
ENDBRANCH  10  14
ENDBRANCH   5   7
ENDBRANCH   2   3
BRANCH   2  17
ATOM     17  S   UNL     1       0.026   6.641   0.062  0.00  0.00    -0.075 S 
BRANCH  17  18
ATOM     18  C   UNL     1       0.880   5.100   0.057  0.00  0.00    +0.175 A 
ATOM     19  N   UNL     1       2.190   4.951   0.047  0.00  0.00    -0.229 NA
ATOM     20  C   UNL     1       2.500   3.658   0.053  0.00  0.00    +0.147 A 
ATOM     21  C   UNL     1       1.325   2.937   0.058  0.00  0.00    +0.156 A 
ATOM     22  N   UNL     1       0.294   3.873   0.065  0.00  0.00    -0.282 N 
BRANCH  22  23
ATOM     23  C   UNL     1      -1.081   3.603   0.077  0.00  0.00    +0.049 A 
ATOM     24  C   UNL     1      -1.871   3.970  -1.004  0.00  0.00    +0.029 A 
ATOM     25  C   UNL     1      -3.225   3.699  -0.992  0.00  0.00    +0.040 A 
ATOM     26  C   UNL     1      -3.797   3.070   0.101  0.00  0.00    +0.124 A 
ATOM     27  C   UNL     1      -3.011   2.707   1.183  0.00  0.00    +0.040 A 
ATOM     28  C   UNL     1      -1.656   2.973   1.172  0.00  0.00    +0.029 A 
ATOM     29  F   UNL     1      -5.123   2.810   0.113  0.00  0.00    -0.205 F 
ENDBRANCH  22  23
BRANCH  21  30
ATOM     30  C   UNL     1       1.192   1.526   0.062  0.00  0.00    +0.405 C 
ATOM     31  O   UNL     1       2.184   0.821   0.055  0.00  0.00    -0.239 OA
ATOM     32  O   UNL     1      -0.035   0.964   0.073  0.00  0.00    -0.239 OA
ENDBRANCH  21  30
ENDBRANCH  17  18
ENDBRANCH   2  17
TORSDOF 7
