REMARK  Name = ZINC60062875
REMARK  5 active torsions:
REMARK  status: ('A' for Active; 'I' for Inactive)
REMARK    1  A    between atoms: C_1  and  C_2
REMARK    2  A    between atoms: C_5  and  S_8
REMARK    3  A    between atoms: S_8  and  N_11
REMARK    4  A    between atoms: N_11  and  C_12
REMARK    5  A    between atoms: C_19  and  C_21
REMARK                            x       y       z     vdW  Elec       q    Type
REMARK                         _______ _______ _______ _____ _____    ______ ____
ROOT
ATOM      1  C   UNL     1       2.404  -4.609   1.212  0.00  0.00    +0.050 A 
ATOM      2  C   UNL     1       2.170  -3.420   1.902  0.00  0.00    +0.027 A 
ATOM      3  C   UNL     1       2.872  -3.125   3.035  0.00  0.00    +0.032 A 
ATOM      4  C   UNL     1       3.835  -4.018   3.513  0.00  0.00    +0.089 A 
ATOM      5  C   UNL     1       4.073  -5.217   2.821  0.00  0.00    +0.068 A 
ATOM      6  C   UNL     1       3.350  -5.509   1.673  0.00  0.00    +0.052 A 
ATOM      7  N   UNL     1       5.061  -5.875   3.526  0.00  0.00    -0.340 N 
ATOM      8  C   UNL     1       5.389  -5.091   4.590  0.00  0.00    +0.137 A 
ATOM      9  N   UNL     1       4.673  -4.005   4.583  0.00  0.00    -0.230 NA
ATOM     10  H   UNL     1       5.449  -6.736   3.305  0.00  0.00    +0.167 HD
ENDROOT
BRANCH   8  11
ATOM     11  C   UNL     1       6.430  -5.432   5.625  0.00  0.00    +0.184 C 
ATOM     12  C   UNL     1       7.467  -4.292   5.720  0.00  0.00    +0.042 C 
ATOM     13  C   UNL     1       8.798  -5.072   5.900  0.00  0.00    +0.031 C 
ATOM     14  C   UNL     1       8.520  -6.330   5.040  0.00  0.00    +0.161 C 
ATOM     15  O   UNL     1       7.127  -6.622   5.240  0.00  0.00    -0.369 OA
ENDBRANCH   8  11
BRANCH   1  16
ATOM     16  N   UNL     1       1.676  -4.896   0.053  0.00  0.00    -0.216 N 
ATOM     17  H   UNL     1       2.098  -4.816  -0.816  0.00  0.00    +0.174 HD
BRANCH  16  18
ATOM     18  S   UNL     1       0.094  -5.372   0.166  0.00  0.00    +0.072 S 
ATOM     19  O   UNL     1      -0.352  -5.617  -1.161  0.00  0.00    -0.150 OA
ATOM     20  O   UNL     1      -0.550  -4.442   1.026  0.00  0.00    -0.150 OA
BRANCH  18  25
ATOM     21  C   UNL     1       0.025 -10.689   3.016  0.00  0.00    +0.044 C 
ATOM     22  C   UNL     1       0.043  -9.361   2.304  0.00  0.00    -0.050 A 
ATOM     23  C   UNL     1      -0.157  -8.193   3.016  0.00  0.00    +0.005 A 
ATOM     24  C   UNL     1      -0.141  -6.974   2.363  0.00  0.00    +0.029 A 
ATOM     25  C   UNL     1       0.075  -6.925   0.998  0.00  0.00    +0.109 A 
ATOM     26  C   UNL     1       0.275  -8.093   0.287  0.00  0.00    +0.029 A 
ATOM     27  C   UNL     1       0.263  -9.311   0.941  0.00  0.00    +0.005 A 
ENDBRANCH  18  25
ENDBRANCH  16  18
ENDBRANCH   1  16
TORSDOF 4
