REMARK  Name = ZINC18367974
REMARK  9 active torsions:
REMARK  status: ('A' for Active; 'I' for Inactive)
REMARK    1  A    between atoms: C_1  and  C_2
REMARK    2  A    between atoms: C_3  and  N_9
REMARK    3  A    between atoms: C_4  and  C_8
REMARK    4  A    between atoms: N_5  and  C_7
REMARK    5  A    between atoms: C_10  and  C_12
REMARK    6  A    between atoms: C_12  and  C_14
REMARK    7  A    between atoms: C_12  and  S_15
REMARK    8  A    between atoms: S_15  and  C_16
REMARK    9  A    between atoms: C_19  and  C_21
REMARK                            x       y       z     vdW  Elec       q    Type
REMARK                         _______ _______ _______ _____ _____    ______ ____
ROOT
ATOM      1  C   UNL     1      -1.109   1.482   0.918  0.00  0.00    +0.139 C 
ATOM      2  C   UNL     1      -1.727   0.826  -0.318  0.00  0.00    +0.029 C 
ENDROOT
BRANCH   1   4
ATOM      3  N   UNL     1      -2.082   3.756   0.978  0.00  0.00    -0.282 N 
ATOM      4  C   UNL     1      -1.020   2.972   0.705  0.00  0.00    +0.230 C 
ATOM      5  O   UNL     1       0.006   3.465   0.287  0.00  0.00    -0.274 OA
ATOM      6  H   UNL     1      -2.925   3.356   1.244  0.00  0.00    +0.155 HD
BRANCH   3   9
ATOM      7  C   UNL     1      -0.070   5.485   2.611  0.00  0.00    +0.069 C 
ATOM      8  C   UNL     1      -1.075   5.965   1.595  0.00  0.00    +0.081 A 
ATOM      9  C   UNL     1      -1.968   5.155   0.878  0.00  0.00    +0.077 A 
ATOM     10  C   UNL     1      -2.698   5.960   0.065  0.00  0.00    +0.057 A 
ATOM     11  N   UNL     1      -2.282   7.237   0.272  0.00  0.00    -0.270 N 
ATOM     12  N   UNL     1      -1.264   7.207   1.233  0.00  0.00    -0.175 NA
ATOM     13  C   UNL     1      -2.803   8.432  -0.396  0.00  0.00    +0.172 C 
ATOM     14  C   UNL     1      -3.776   5.519  -0.891  0.00  0.00    +0.067 C 
ENDBRANCH   3   9
ENDBRANCH   1   4
BRANCH   1  15
ATOM     15  S   UNL     1       0.550   0.812   1.192  0.00  0.00    -0.053 S 
BRANCH  15  16
ATOM     16  C   UNL     1       0.147  -0.864   1.554  0.00  0.00    +0.278 A 
ATOM     17  N   UNL     1      -1.058  -1.383   1.589  0.00  0.00    -0.101 NA
ATOM     18  N   UNL     1      -0.979  -2.632   1.886  0.00  0.00    -0.105 NA
ATOM     19  C   UNL     1       0.281  -2.962   2.053  0.00  0.00    +0.265 A 
ATOM     20  O   UNL     1       1.021  -1.850   1.840  0.00  0.00    -0.410 OA
BRANCH  19  21
ATOM     21  C   UNL     1       0.794  -4.296   2.399  0.00  0.00    +0.104 A 
ATOM     22  C   UNL     1       2.107  -4.635   2.565  0.00  0.00    +0.032 A 
ATOM     23  C   UNL     1       2.148  -6.000   2.890  0.00  0.00    +0.020 A 
ATOM     24  C   UNL     1       0.877  -6.457   2.908  0.00  0.00    +0.083 A 
ATOM     25  N   UNL     1       0.039  -5.424   2.608  0.00  0.00    -0.357 N 
ATOM     26  H   UNL     1      -0.928  -5.477   2.553  0.00  0.00    +0.165 HD
ENDBRANCH  19  21
ENDBRANCH  15  16
ENDBRANCH   1  15
TORSDOF 5
