REMARK  Name = ZINC09331722
REMARK  10 active torsions:
REMARK  status: ('A' for Active; 'I' for Inactive)
REMARK    1  A    between atoms: C_1  and  C_2
REMARK    2  A    between atoms: C_2  and  N_54
REMARK    3  A    between atoms: C_3  and  C_4
REMARK    4  A    between atoms: C_3  and  N_54
REMARK    5  A    between atoms: C_5  and  C_6
REMARK    6  A    between atoms: C_5  and  N_54
REMARK    7  A    between atoms: C_6  and  N_7
REMARK    8  A    between atoms: C_8  and  C_24
REMARK    9  A    between atoms: C_11  and  C_12
REMARK   10  A    between atoms: C_11  and  O_19
REMARK                            x       y       z     vdW  Elec       q    Type
REMARK                         _______ _______ _______ _____ _____    ______ ____
ROOT
ATOM      1  N   UNL     1      -1.913   5.711   0.243  0.00  0.00    -0.285 N 
ATOM      2  C   UNL     1      -2.394   4.329   0.152  0.00  0.00    +0.144 C 
ATOM      3  C   UNL     1      -1.174   3.458  -0.042  0.00  0.00    +0.071 C 
ATOM      4  C   UNL     1      -1.148   2.085  -0.175  0.00  0.00    +0.133 C 
ATOM      5  C   UNL     1      -0.073   4.329  -0.064  0.00  0.00    +0.249 C 
ATOM      6  O   UNL     1       1.092   4.004  -0.206  0.00  0.00    -0.282 OA
ATOM      7  C   UNL     1      -0.576   5.718   0.116  0.00  0.00    +0.288 C 
ATOM      8  O   UNL     1       0.120   6.712   0.143  0.00  0.00    -0.266 OA
ENDROOT
BRANCH   4   9
ATOM      9  C   UNL     1       0.132   1.390  -0.395  0.00  0.00    +0.017 A 
ATOM     10  C   UNL     1       0.959   1.763  -1.460  0.00  0.00    +0.013 A 
ATOM     11  C   UNL     1       2.153   1.105  -1.663  0.00  0.00    +0.021 A 
ATOM     12  C   UNL     1       2.534   0.076  -0.816  0.00  0.00    +0.041 A 
ATOM     13  C   UNL     1       1.719  -0.298   0.240  0.00  0.00    +0.021 A 
ATOM     14  C   UNL     1       0.523   0.351   0.456  0.00  0.00    +0.013 A 
ATOM     15 CL   UNL     1       4.039  -0.748  -1.081  0.00  0.00    -0.084 Cl
ENDBRANCH   4   9
BRANCH   2  16
ATOM     16  C   UNL     1      -3.103   3.948   1.426  0.00  0.00    -0.022 A 
ATOM     17  C   UNL     1      -2.614   4.377   2.645  0.00  0.00    +0.007 A 
ATOM     18  C   UNL     1      -3.267   4.031   3.813  0.00  0.00    +0.015 A 
ATOM     19  C   UNL     1      -4.405   3.247   3.762  0.00  0.00    +0.018 A 
ATOM     20  C   UNL     1      -4.892   2.813   2.542  0.00  0.00    +0.015 A 
ATOM     21  C   UNL     1      -4.241   3.164   1.375  0.00  0.00    +0.007 A 
ATOM     22 BR   UNL     1      -5.295   2.768   5.360  0.00  0.00    -0.050 Br
ENDBRANCH   2  16
BRANCH   4  23
ATOM     23  O   UNL     1      -2.296   1.378  -0.104  0.00  0.00    -0.506 OA
ATOM     24  H   UNL     1      -2.097   0.406  -0.221  0.00  0.00    +0.292 HD
ENDBRANCH   4  23
BRANCH   1  25
ATOM     25  C   UNL     1      -2.756   6.894   0.436  0.00  0.00    +0.090 C 
BRANCH  25  26
ATOM     26  C   UNL     1      -3.185   7.442  -0.926  0.00  0.00    -0.060 C 
BRANCH  26  27
ATOM     27  N   UNL     1      -4.051   8.621  -0.715  0.00  0.00    +0.380 N 
ATOM     28  H   UNL     1      -4.801   8.370  -0.060  0.00  0.00    -0.082 HD
BRANCH  27  30
ATOM     29  C   UNL     1      -2.161  10.165  -1.109  0.00  0.00    -0.017 C 
ATOM     30  C   UNL     1      -3.262   9.730  -0.140  0.00  0.00    -0.082 C 
ENDBRANCH  27  30
BRANCH  27  31
ATOM     31  C   UNL     1      -4.654   9.042  -1.997  0.00  0.00    -0.082 C 
ATOM     32  C   UNL     1      -5.798  10.015  -1.707  0.00  0.00    -0.017 C 
ENDBRANCH  27  31
ENDBRANCH  26  27
ENDBRANCH  25  26
ENDBRANCH   1  25
TORSDOF 8
