REMARK  Name = ZINC16846071
REMARK  6 active torsions:
REMARK  status: ('A' for Active; 'I' for Inactive)
REMARK    1  A    between atoms: C_1  and  C_2
REMARK    2  A    between atoms: C_2  and  O_3
REMARK    3  A    between atoms: O_3  and  C_4
REMARK    4  A    between atoms: C_4  and  C_6
REMARK    5  A    between atoms: C_6  and  S_7
REMARK    6  A    between atoms: S_7  and  C_8
REMARK                            x       y       z     vdW  Elec       q    Type
REMARK                         _______ _______ _______ _____ _____    ______ ____
ROOT
ATOM      1  C   UNL     1       3.647  -4.598  -1.126  0.00  0.00    +0.199 A 
ATOM      2  N   UNL     1       4.402  -3.550  -1.363  0.00  0.00    -0.122 NA
ATOM      3  N   UNL     1       3.739  -2.465  -1.160  0.00  0.00    -0.128 NA
ATOM      4  C   UNL     1       2.520  -2.759  -0.781  0.00  0.00    +0.174 A 
ATOM      5  N   UNL     1       2.418  -4.133  -0.746  0.00  0.00    -0.241 N 
ATOM      6  C   UNL     1       1.243  -4.732  -0.381  0.00  0.00    +0.202 A 
ATOM      7  N   UNL     1       0.188  -4.023  -0.054  0.00  0.00    -0.208 NA
ATOM      8  C   UNL     1       0.199  -2.691  -0.059  0.00  0.00    +0.116 A 
ATOM      9  C   UNL     1       1.334  -1.955  -0.414  0.00  0.00    +0.056 A 
ATOM     10  C   UNL     1       1.198  -0.493  -0.374  0.00  0.00    -0.024 A 
ATOM     11  C   UNL     1       0.002  -0.004   0.002  0.00  0.00    -0.004 A 
ATOM     12  S   UNL     1      -1.000  -1.439   0.315  0.00  0.00    -0.073 S 
ATOM     13  C   UNL     1      -0.018   1.501   0.010  0.00  0.00    +0.043 C 
ATOM     14  C   UNL     1       1.471   1.909  -0.002  0.00  0.00    +0.010 C 
ATOM     15  C   UNL     1       2.127   0.687  -0.674  0.00  0.00    +0.037 C 
ATOM     16  N   UNL     1       1.166  -6.105  -0.355  0.00  0.00    -0.328 N 
ATOM     17  H   UNL     1       1.940  -6.638  -0.595  0.00  0.00    +0.145 HD
ATOM     18  H   UNL     1       0.338  -6.540  -0.098  0.00  0.00    +0.145 HD
ENDROOT
BRANCH   1  19
ATOM     19  S   UNL     1       4.127  -6.287  -1.270  0.00  0.00    -0.074 S 
BRANCH  19  20
ATOM     20  C   UNL     1       5.859  -6.207  -1.806  0.00  0.00    +0.197 C 
BRANCH  20  21
ATOM     21  C   UNL     1       6.399  -7.604  -1.969  0.00  0.00    +0.317 C 
ATOM     22  O   UNL     1       5.689  -8.556  -1.747  0.00  0.00    -0.250 OA
BRANCH  21  23
ATOM     23  O   UNL     1       7.669  -7.791  -2.361  0.00  0.00    -0.464 OA
BRANCH  23  25
ATOM     24  C   UNL     1       9.583  -9.177  -2.949  0.00  0.00    +0.048 C 
ATOM     25  C   UNL     1       8.122  -9.164  -2.497  0.00  0.00    +0.229 C 
ENDBRANCH  23  25
ENDBRANCH  21  23
ENDBRANCH  20  21
ENDBRANCH  19  20
ENDBRANCH   1  19
TORSDOF 5
