REMARK  Name = ZINC08704812
REMARK  5 active torsions:
REMARK  status: ('A' for Active; 'I' for Inactive)
REMARK    1  A    between atoms: C_1  and  C_2
REMARK    2  A    between atoms: C_5  and  N_9
REMARK    3  A    between atoms: N_12  and  C_13
REMARK    4  A    between atoms: N_12  and  C_14
REMARK    5  A    between atoms: C_14  and  C_15
REMARK                            x       y       z     vdW  Elec       q    Type
REMARK                         _______ _______ _______ _____ _____    ______ ____
ROOT
ATOM      1  N   UNL     1      -2.458   3.822   0.046  0.00  0.00    -0.269 N 
ATOM      2  C   UNL     1      -3.615   3.139  -0.048  0.00  0.00    +0.307 C 
ATOM      3  O   UNL     1      -3.604   1.923  -0.056  0.00  0.00    -0.252 OA
ATOM      4  N   UNL     1      -4.785   3.802  -0.135  0.00  0.00    -0.281 N 
ATOM      5  C   UNL     1      -4.798   5.267  -0.126  0.00  0.00    +0.134 C 
ATOM      6  H   UNL     1      -2.470   4.789   0.129  0.00  0.00    +0.156 HD
ENDROOT
BRANCH   1  11
ATOM      7  C   UNL     1       2.494   1.052  -0.043  0.00  0.00    +0.045 C 
ATOM      8  C   UNL     1       1.178   1.788  -0.020  0.00  0.00    -0.032 A 
ATOM      9  C   UNL     1       1.045   2.938   0.736  0.00  0.00    +0.006 A 
ATOM     10  C   UNL     1      -0.161   3.611   0.764  0.00  0.00    +0.024 A 
ATOM     11  C   UNL     1      -1.237   3.138   0.024  0.00  0.00    +0.036 A 
ATOM     12  C   UNL     1      -1.100   1.983  -0.734  0.00  0.00    +0.043 A 
ATOM     13  C   UNL     1       0.107   1.310  -0.754  0.00  0.00    +0.046 A 
ATOM     14 CL   UNL     1       0.279  -0.134  -1.701  0.00  0.00    -0.083 Cl
ENDBRANCH   1  11
BRANCH   4  15
ATOM     15  C   UNL     1      -6.043   3.059  -0.237  0.00  0.00    +0.185 C 
BRANCH  15  16
ATOM     16  C   UNL     1      -6.584   2.795   1.144  0.00  0.00    +0.151 A 
ATOM     17  N   UNL     1      -7.396   3.564   1.820  0.00  0.00    -0.133 NA
ATOM     18  N   UNL     1      -7.655   3.026   2.961  0.00  0.00    -0.134 NA
ATOM     19  C   UNL     1      -7.026   1.890   3.060  0.00  0.00    +0.133 A 
ATOM     20  N   UNL     1      -6.326   1.714   1.914  0.00  0.00    -0.313 N 
ATOM     21  C   UNL     1      -5.455   0.585   1.590  0.00  0.00    +0.125 C 
ATOM     22  C   UNL     1      -5.942  -0.662   2.333  0.00  0.00    +0.022 C 
ATOM     23  C   UNL     1      -5.274  -0.738   3.705  0.00  0.00    +0.002 C 
ATOM     24  C   UNL     1      -5.645   0.478   4.548  0.00  0.00    +0.008 C 
ATOM     25  C   UNL     1      -7.066   0.924   4.215  0.00  0.00    +0.076 C 
ENDBRANCH  15  16
ENDBRANCH   4  15
TORSDOF 3
