REMARK  Name = ZINC01882218
REMARK  5 active torsions:
REMARK  status: ('A' for Active; 'I' for Inactive)
REMARK    1  A    between atoms: C_1  and  C_2
REMARK    2  A    between atoms: C_2  and  N_3
REMARK    3  A    between atoms: N_3  and  C_4
REMARK    4  A    between atoms: C_4  and  C_5
REMARK    5  A    between atoms: C_6  and  C_8
REMARK                            x       y       z     vdW  Elec       q    Type
REMARK                         _______ _______ _______ _____ _____    ______ ____
ROOT
ATOM      1  C   UNL     1      -0.017   1.393   0.010  0.00  0.00    +0.076 A 
ATOM      2  C   UNL     1       1.188   2.103   0.002  0.00  0.00    +0.074 A 
ATOM      3  C   UNL     1       2.388   1.419  -0.013  0.00  0.00    +0.080 A 
ATOM      4  C   UNL     1       2.400   0.034  -0.021  0.00  0.00    +0.080 A 
ATOM      5  C   UNL     1       1.209  -0.675  -0.013  0.00  0.00    +0.080 A 
ATOM      6  C   UNL     1       0.002  -0.004   0.002  0.00  0.00    +0.074 A 
ATOM      7 CL   UNL     1      -1.488  -0.894   0.011  0.00  0.00    -0.081 Cl
ATOM      8 CL   UNL     1       1.235  -2.411  -0.022  0.00  0.00    -0.080 Cl
ATOM      9 CL   UNL     1       3.913  -0.817  -0.039  0.00  0.00    -0.080 Cl
ATOM     10 CL   UNL     1       3.885   2.298  -0.022  0.00  0.00    -0.080 Cl
ATOM     11 CL   UNL     1       1.175   3.839   0.011  0.00  0.00    -0.081 Cl
ENDROOT
BRANCH   1  13
ATOM     12  N   UNL     1      -1.896   2.454  -1.143  0.00  0.00    -0.298 N 
ATOM     13  C   UNL     1      -1.304   2.117   0.020  0.00  0.00    +0.250 C 
ATOM     14  O   UNL     1      -1.828   2.410   1.077  0.00  0.00    -0.270 OA
BRANCH  12  16
ATOM     15  C   UNL     1      -2.910   4.680  -1.126  0.00  0.00    +0.024 C 
ATOM     16  C   UNL     1      -3.173   3.172  -1.133  0.00  0.00    +0.104 C 
ENDBRANCH  12  16
BRANCH  12  17
ATOM     17  C   UNL     1      -1.264   2.102  -2.417  0.00  0.00    +0.104 C 
ATOM     18  C   UNL     1      -1.751   0.722  -2.863  0.00  0.00    +0.024 C 
ENDBRANCH  12  17
ENDBRANCH   1  13
TORSDOF 3
