REMARK  Name = ZINC12705582
REMARK  10 active torsions:
REMARK  status: ('A' for Active; 'I' for Inactive)
REMARK    1  A    between atoms: C_1  and  C_2
REMARK    2  A    between atoms: C_2  and  N_67
REMARK    3  A    between atoms: C_6  and  C_8
REMARK    4  A    between atoms: C_8  and  N_9
REMARK    5  A    between atoms: N_9  and  C_10
REMARK    6  A    between atoms: C_10  and  C_11
REMARK    7  A    between atoms: C_14  and  C_24
REMARK    8  A    between atoms: C_16  and  C_23
REMARK    9  A    between atoms: N_27  and  C_28
REMARK   10  A    between atoms: C_28  and  C_29
REMARK                            x       y       z     vdW  Elec       q    Type
REMARK                         _______ _______ _______ _____ _____    ______ ____
ROOT
ATOM      1  N   UNL     1       5.589   3.354  -2.933  0.00  0.00    -0.283 N 
ATOM      2  C   UNL     1       5.215   3.118  -1.660  0.00  0.00    +0.303 C 
ATOM      3  O   UNL     1       5.902   3.518  -0.740  0.00  0.00    -0.253 OA
ATOM      4  N   UNL     1       4.079   2.439  -1.407  0.00  0.00    -0.295 N 
ATOM      5  H   UNL     1       3.530   2.120  -2.140  0.00  0.00    +0.151 HD
ENDROOT
BRANCH   1   6
ATOM      6  C   UNL     1       4.760   2.873  -4.042  0.00  0.00    +0.094 C 
BRANCH   6  10
ATOM      7  C   UNL     1       1.567   4.590  -3.723  0.00  0.00    -0.078 C 
ATOM      8  C   UNL     1       1.356   3.497  -4.800  0.00  0.00    -0.020 C 
ATOM      9  C   UNL     1       2.750   3.387  -5.459  0.00  0.00    -0.016 C 
ATOM     10  C   UNL     1       3.734   3.945  -4.414  0.00  0.00    -0.051 C 
ATOM     11  N   UNL     1       2.931   4.304  -3.246  0.00  0.00    +0.382 N 
ATOM     12  H   UNL     1       2.909   3.519  -2.585  0.00  0.00    -0.081 HD
BRANCH  11  14
ATOM     13  C   UNL     1       2.537   6.008  -1.496  0.00  0.00    -0.017 C 
ATOM     14  C   UNL     1       3.510   5.503  -2.564  0.00  0.00    -0.082 C 
ENDBRANCH  11  14
ENDBRANCH   6  10
ENDBRANCH   1   6
BRANCH   1  15
ATOM     15  C   UNL     1       6.824   4.093  -3.209  0.00  0.00    +0.149 C 
BRANCH  15  16
ATOM     16  C   UNL     1       7.974   3.125  -3.316  0.00  0.00    +0.035 A 
ATOM     17  C   UNL     1       8.355   2.662  -4.532  0.00  0.00    +0.020 A 
ATOM     18  C   UNL     1       9.480   1.726  -4.603  0.00  0.00    +0.002 A 
ATOM     19  C   UNL     1       9.922   1.218  -5.829  0.00  0.00    -0.041 A 
ATOM     20  C   UNL     1      10.971   0.343  -5.860  0.00  0.00    +0.007 A 
ATOM     21  C   UNL     1      11.601  -0.046  -4.686  0.00  0.00    -0.048 A 
ATOM     22  C   UNL     1      11.182   0.442  -3.467  0.00  0.00    +0.029 A 
ATOM     23  C   UNL     1      10.117   1.334  -3.410  0.00  0.00    +0.050 A 
ATOM     24  N   UNL     1       9.677   1.838  -2.205  0.00  0.00    -0.322 N 
ATOM     25  H   UNL     1      10.117   1.567  -1.384  0.00  0.00    +0.169 HD
ATOM     26  C   UNL     1       8.647   2.701  -2.151  0.00  0.00    +0.254 A 
ATOM     27  O   UNL     1       8.285   3.126  -1.067  0.00  0.00    -0.268 OA
ATOM     28  C   UNL     1      12.757  -1.012  -4.745  0.00  0.00    +0.044 C 
ATOM     29  C   UNL     1       9.245   1.634  -7.109  0.00  0.00    +0.044 C 
ENDBRANCH  15  16
ENDBRANCH   1  15
BRANCH   4  30
ATOM     30  C   UNL     1       3.672   2.182  -0.023  0.00  0.00    +0.141 C 
BRANCH  30  31
ATOM     31  C   UNL     1       2.377   1.411  -0.015  0.00  0.00    -0.030 A 
ATOM     32  C   UNL     1       1.171   2.086   0.002  0.00  0.00    +0.005 A 
ATOM     33  C   UNL     1      -0.017   1.378   0.010  0.00  0.00    +0.000 A 
ATOM     34  C   UNL     1       0.002  -0.004   0.002  0.00  0.00    +0.000 A 
ATOM     35  C   UNL     1       1.208  -0.679  -0.013  0.00  0.00    +0.000 A 
ATOM     36  C   UNL     1       2.396   0.029  -0.022  0.00  0.00    +0.005 A 
ENDBRANCH  30  31
ENDBRANCH   4  30
TORSDOF 7
