REMARK  Name = ZINC17004442
REMARK  5 active torsions:
REMARK  status: ('A' for Active; 'I' for Inactive)
REMARK    1  A    between atoms: C_1  and  C_2
REMARK    2  A    between atoms: C_2  and  C_4
REMARK    3  A    between atoms: C_10  and  C_29
REMARK    4  A    between atoms: C_21  and  C_28
REMARK    5  A    between atoms: C_23  and  C_26
REMARK                            x       y       z     vdW  Elec       q    Type
REMARK                         _______ _______ _______ _____ _____    ______ ____
ROOT
ATOM      1  C   UNL     1       0.941   7.495  -1.531  0.00  0.00    +0.061 C 
ATOM      2  C   UNL     1       1.966   7.362  -2.684  0.00  0.00    +0.012 C 
ATOM      3  C   UNL     1       2.371   5.863  -2.752  0.00  0.00    +0.005 C 
ATOM      4  C   UNL     1       1.284   5.176  -1.914  0.00  0.00    -0.001 C 
ATOM      5  C   UNL     1       1.091   6.169  -0.752  0.00  0.00    -0.019 C 
ATOM      6  C   UNL     1      -0.112   5.812   0.088  0.00  0.00    +0.008 C 
ATOM      7  C   UNL     1      -0.330   4.291   0.101  0.00  0.00    +0.005 C 
ATOM      8  C   UNL     1       1.002   3.566  -0.040  0.00  0.00    -0.001 C 
ATOM      9  C   UNL     1       1.545   3.776  -1.457  0.00  0.00    -0.004 C 
ATOM     10  C   UNL     1       2.996   3.316  -1.506  0.00  0.00    +0.004 C 
ATOM     11  C   UNL     1       3.054   1.853  -1.040  0.00  0.00    +0.005 C 
ATOM     12  C   UNL     1       1.643   1.301  -0.861  0.00  0.00    -0.001 C 
ATOM     13  C   UNL     1       0.875   2.065   0.221  0.00  0.00    -0.022 C 
ATOM     14  C   UNL     1      -0.597   1.644   0.125  0.00  0.00    +0.045 C 
ATOM     15  C   UNL     1      -0.693   0.147   0.176  0.00  0.00    -0.012 C 
ATOM     16  C   UNL     1       0.310  -0.661  -0.117  0.00  0.00    -0.020 C 
ATOM     17  C   UNL     1       1.682  -0.184  -0.501  0.00  0.00    +0.031 C 
ATOM     18  C   UNL     1       1.415   1.744   1.616  0.00  0.00    +0.012 C 
ATOM     19  C   UNL     1       2.344   6.302   0.117  0.00  0.00    +0.012 C 
ENDROOT
BRANCH   1  21
ATOM     20  C   UNL     1       0.234   9.318   0.194  0.00  0.00    +0.086 C 
ATOM     21  C   UNL     1       1.299   8.650  -0.637  0.00  0.00    +0.134 C 
ATOM     22  O   UNL     1       2.440   9.042  -0.586  0.00  0.00    -0.297 OA
ENDBRANCH   1  21
BRANCH  15  23
ATOM     23  C   UNL     1      -1.967  -0.448   0.581  0.00  0.00    +0.254 C 
ATOM     24  O   UNL     1      -2.907   0.265   0.864  0.00  0.00    -0.296 OA
ENDBRANCH  15  23
TORSDOF 2
