REMARK  Name = ZINC23872792
REMARK  6 active torsions:
REMARK  status: ('A' for Active; 'I' for Inactive)
REMARK    1  A    between atoms: C_1  and  C_2
REMARK    2  A    between atoms: C_2  and  C_4
REMARK    3  A    between atoms: C_7  and  N_10
REMARK    4  A    between atoms: C_11  and  C_13
REMARK    5  A    between atoms: C_13  and  S_14
REMARK    6  A    between atoms: S_14  and  C_15
REMARK                            x       y       z     vdW  Elec       q    Type
REMARK                         _______ _______ _______ _____ _____    ______ ____
ROOT
ATOM      1  C   UNL     1       0.204   4.453  -0.137  0.00  0.00    +0.173 C 
ENDROOT
BRANCH   1   3
ATOM      2  N   UNL     1      -0.512   6.814   0.040  0.00  0.00    -0.285 N 
ATOM      3  C   UNL     1       0.493   5.932  -0.133  0.00  0.00    +0.227 C 
ATOM      4  O   UNL     1       1.629   6.329  -0.284  0.00  0.00    -0.275 OA
ATOM      5  H   UNL     1      -1.552   6.460   0.093  0.00  0.00    +0.155 HD
BRANCH   2   9
ATOM      6  C   UNL     1       0.321  10.877   0.371  0.00  0.00    +0.017 A 
ATOM      7  C   UNL     1      -0.865  10.450  -0.240  0.00  0.00    +0.013 A 
ATOM      8  C   UNL     1      -1.135   9.111  -0.347  0.00  0.00    +0.024 A 
ATOM      9  C   UNL     1      -0.233   8.175   0.151  0.00  0.00    +0.033 A 
ATOM     10  C   UNL     1       0.944   8.594   0.764  0.00  0.00    +0.024 A 
ATOM     11  C   UNL     1       1.225   9.932   0.870  0.00  0.00    +0.013 A 
BRANCH   6  13
ATOM     12  C   UNL     1       1.944  12.766   1.032  0.00  0.00    +0.091 C 
ATOM     13  C   UNL     1       0.615  12.311   0.487  0.00  0.00    +0.160 C 
ATOM     14  O   UNL     1      -0.213  13.129   0.146  0.00  0.00    -0.292 OA
ENDBRANCH   6  13
ENDBRANCH   2   9
ENDBRANCH   1   3
BRANCH   1  15
ATOM     15  S   UNL     1       1.750   3.537  -0.389  0.00  0.00    -0.076 S 
BRANCH  15  16
ATOM     16  C   UNL     1       1.251   1.847  -0.369  0.00  0.00    +0.198 A 
ATOM     17  N   UNL     1       0.027   1.406  -0.206  0.00  0.00    -0.120 NA
ATOM     18  N   UNL     1       0.058   0.006  -0.254  0.00  0.00    -0.107 NA
ATOM     19  C   UNL     1       1.301  -0.366  -0.445  0.00  0.00    +0.260 A 
ATOM     20  N   UNL     1       2.074   0.763  -0.521  0.00  0.00    -0.258 N 
ATOM     21  C   UNL     1       3.435   0.667  -0.721  0.00  0.00    +0.037 A 
ATOM     22  C   UNL     1       4.012  -0.541  -0.842  0.00  0.00    +0.039 A 
ATOM     23  C   UNL     1       3.215  -1.714  -0.762  0.00  0.00    +0.278 A 
ATOM     24  O   UNL     1       3.733  -2.811  -0.869  0.00  0.00    -0.265 OA
ATOM     25  N   UNL     1       1.886  -1.615  -0.567  0.00  0.00    -0.171 NA
ATOM     26  C   UNL     1       5.504  -0.394  -1.054  0.00  0.00    +0.043 C 
ATOM     27  C   UNL     1       5.704   1.077  -1.479  0.00  0.00    +0.011 C 
ATOM     28  C   UNL     1       4.476   1.761  -0.840  0.00  0.00    +0.055 C 
ENDBRANCH  15  16
ENDBRANCH   1  15
TORSDOF 5
