REMARK  Name = ZINC42792021
REMARK  9 active torsions:
REMARK  status: ('A' for Active; 'I' for Inactive)
REMARK    1  A    between atoms: C_1  and  C_2
REMARK    2  A    between atoms: C_4  and  C_26
REMARK    3  A    between atoms: C_5  and  S_11
REMARK    4  A    between atoms: C_7  and  C_8
REMARK    5  A    between atoms: S_11  and  N_14
REMARK    6  A    between atoms: N_14  and  C_15
REMARK    7  A    between atoms: C_19  and  C_21
REMARK    8  A    between atoms: C_21  and  O_23
REMARK    9  A    between atoms: O_23  and  C_24
REMARK                            x       y       z     vdW  Elec       q    Type
REMARK                         _______ _______ _______ _____ _____    ______ ____
ROOT
ATOM      1  S   UNL     1       0.107  -4.284  -0.203  0.00  0.00    +0.073 S 
ATOM      2  O   UNL     1       1.202  -4.668  -1.024  0.00  0.00    -0.150 OA
ATOM      3  O   UNL     1       0.068  -4.556   1.191  0.00  0.00    -0.150 OA
ENDROOT
BRANCH   1   8
ATOM      4  C   UNL     1      -0.498   1.695  -0.851  0.00  0.00    +0.044 C 
ATOM      5  C   UNL     1      -0.347   0.205  -0.685  0.00  0.00    -0.036 A 
ATOM      6  C   UNL     1      -0.237  -0.607  -1.795  0.00  0.00    +0.009 A 
ATOM      7  C   UNL     1      -0.099  -1.975  -1.645  0.00  0.00    -0.024 A 
ATOM      8  C   UNL     1      -0.070  -2.540  -0.382  0.00  0.00    +0.112 A 
ATOM      9  C   UNL     1      -0.179  -1.742   0.737  0.00  0.00    +0.044 A 
ATOM     10  C   UNL     1      -0.313  -0.358   0.593  0.00  0.00    +0.068 A 
ATOM     11  C   UNL     1       0.020  -2.855  -2.863  0.00  0.00    +0.046 C 
BRANCH  10  12
ATOM     12  C   UNL     1      -0.423   0.504   1.786  0.00  0.00    +0.387 C 
ATOM     13  O   UNL     1       0.300   1.483   1.901  0.00  0.00    -0.241 OA
ATOM     14  O   UNL     1      -1.238   0.239   2.658  0.00  0.00    -0.241 OA
ENDBRANCH  10  12
ENDBRANCH   1   8
BRANCH   1  15
ATOM     15  N   UNL     1      -1.244  -4.983  -0.859  0.00  0.00    -0.216 N 
ATOM     16  H   UNL     1      -1.160  -5.582  -1.617  0.00  0.00    +0.174 HD
BRANCH  15  17
ATOM     17  C   UNL     1      -2.504  -4.709  -0.321  0.00  0.00    +0.049 A 
ATOM     18  C   UNL     1      -2.692  -4.737   1.057  0.00  0.00    +0.026 A 
ATOM     19  C   UNL     1      -3.936  -4.467   1.595  0.00  0.00    +0.022 A 
ATOM     20  C   UNL     1      -5.002  -4.167   0.768  0.00  0.00    +0.055 A 
ATOM     21  C   UNL     1      -4.823  -4.136  -0.617  0.00  0.00    +0.079 A 
ATOM     22  C   UNL     1      -3.564  -4.404  -1.159  0.00  0.00    +0.041 A 
ATOM     23 CL   UNL     1      -6.562  -3.830   1.450  0.00  0.00    -0.083 Cl
BRANCH  21  24
ATOM     24  C   UNL     1      -5.959  -3.816  -1.504  0.00  0.00    +0.340 C 
ATOM     25  O   UNL     1      -7.052  -3.579  -1.030  0.00  0.00    -0.245 OA
BRANCH  24  26
ATOM     26  O   UNL     1      -5.783  -3.786  -2.840  0.00  0.00    -0.464 OA
ATOM     27  C   UNL     1      -6.926  -3.470  -3.637  0.00  0.00    +0.280 C 
ENDBRANCH  24  26
ENDBRANCH  21  24
ENDBRANCH  15  17
ENDBRANCH   1  15
TORSDOF 6
