REMARK  Name = ZINC12146194
REMARK  8 active torsions:
REMARK  status: ('A' for Active; 'I' for Inactive)
REMARK    1  A    between atoms: C_1  and  C_2
REMARK    2  A    between atoms: C_3  and  C_28
REMARK    3  A    between atoms: N_5  and  C_8
REMARK    4  A    between atoms: C_6  and  C_7
REMARK    5  A    between atoms: C_8  and  C_9
REMARK    6  A    between atoms: N_11  and  C_12
REMARK    7  A    between atoms: C_23  and  C_27
REMARK    8  A    between atoms: C_24  and  C_26
REMARK                            x       y       z     vdW  Elec       q    Type
REMARK                         _______ _______ _______ _____ _____    ______ ____
ROOT
ATOM      1  C   UNL     1       0.661   8.210   1.004  0.00  0.00    +0.076 C 
ATOM      2  C   UNL     1       1.335   7.608  -0.232  0.00  0.00    +0.041 C 
ATOM      3  C   UNL     1       1.367   6.084  -0.098  0.00  0.00    +0.110 C 
ATOM      4  N   UNL     1      -0.004   5.574   0.032  0.00  0.00    -0.301 N 
ATOM      5  C   UNL     1      -0.655   6.102   1.238  0.00  0.00    +0.110 C 
ATOM      6  C   UNL     1      -0.748   7.626   1.143  0.00  0.00    +0.041 C 
ATOM      7  C   UNL     1      -0.021   4.205   0.025  0.00  0.00    +0.198 A 
ATOM      8  N   UNL     1      -1.214   3.551   0.033  0.00  0.00    -0.295 N 
ATOM      9  H   UNL     1      -2.044   4.053   0.044  0.00  0.00    +0.172 HD
ATOM     10  C   UNL     1      -1.239   2.201   0.020  0.00  0.00    +0.256 A 
ATOM     11  O   UNL     1      -2.300   1.599   0.021  0.00  0.00    -0.267 OA
ATOM     12  C   UNL     1      -0.018   1.503   0.010  0.00  0.00    +0.035 A 
ATOM     13  C   UNL     1       1.147   2.212   0.003  0.00  0.00    +0.050 A 
ATOM     14  N   UNL     1       1.119   3.543   0.010  0.00  0.00    -0.221 NA
ATOM     15  C   UNL     1       2.469   1.488  -0.013  0.00  0.00    +0.066 C 
ATOM     16  C   UNL     1       0.002  -0.004   0.002  0.00  0.00    +0.051 C 
ENDROOT
BRANCH   1  19
ATOM     17  C   UNL     1       0.504  10.452   1.946  0.00  0.00    +0.235 C 
ATOM     18  O   UNL     1       0.511   9.955   3.053  0.00  0.00    -0.274 OA
ATOM     19  N   UNL     1       0.575   9.665   0.854  0.00  0.00    -0.311 N 
ATOM     20  H   UNL     1       0.569  10.062  -0.031  0.00  0.00    +0.149 HD
BRANCH  17  21
ATOM     21  C   UNL     1       0.416  11.948   1.793  0.00  0.00    +0.239 C 
BRANCH  21  26
ATOM     22  C   UNL     1       1.744  14.074   6.133  0.00  0.00    +0.047 C 
ATOM     23  C   UNL     1       0.922  13.499   5.009  0.00  0.00    -0.007 A 
ATOM     24  C   UNL     1      -0.474  13.410   4.971  0.00  0.00    +0.063 A 
ATOM     25  N   UNL     1      -0.818  12.860   3.835  0.00  0.00    -0.176 NA
ATOM     26  N   UNL     1       0.350  12.572   3.116  0.00  0.00    -0.259 N 
ATOM     27  C   UNL     1       1.403  12.977   3.857  0.00  0.00    +0.040 A 
ATOM     28  C   UNL     1       2.856  12.867   3.470  0.00  0.00    +0.065 C 
ATOM     29  C   UNL     1      -1.418  13.873   6.051  0.00  0.00    +0.068 C 
ENDBRANCH  21  26
ENDBRANCH  17  21
ENDBRANCH   1  19
TORSDOF 3
