REMARK  Name = ZINC11855283
REMARK  5 active torsions:
REMARK  status: ('A' for Active; 'I' for Inactive)
REMARK    1  A    between atoms: C_4  and  C_7
REMARK    2  A    between atoms: C_16  and  N_25
REMARK    3  A    between atoms: C_18  and  C_20
REMARK    4  A    between atoms: C_26  and  C_28
REMARK    5  A    between atoms: C_33  and  C_34
REMARK                            x       y       z     vdW  Elec       q    Type
REMARK                         _______ _______ _______ _____ _____    ______ ____
ROOT
ATOM      1  C   UNL     1       4.224   4.921   1.470  0.00  0.00    +0.080 A 
ATOM      2  C   UNL     1       4.571   5.622   0.326  0.00  0.00    +0.098 A 
ATOM      3  C   UNL     1       4.587   4.941  -0.902  0.00  0.00    +0.253 A 
ATOM      4  O   UNL     1       4.887   5.523  -1.931  0.00  0.00    -0.268 OA
ATOM      5  N   UNL     1       4.271   3.629  -0.922  0.00  0.00    -0.291 N 
ATOM      6  H   UNL     1       4.281   3.142  -1.760  0.00  0.00    +0.172 HD
ATOM      7  C   UNL     1       3.932   2.990   0.230  0.00  0.00    +0.234 A 
ATOM      8  N   UNL     1       3.914   3.619   1.383  0.00  0.00    -0.212 NA
ATOM      9  N   UNL     1       3.606   1.649   0.187  0.00  0.00    -0.185 N 
ATOM     10  C   UNL     1       2.344   1.131   0.098  0.00  0.00    +0.132 A 
ATOM     11  C   UNL     1       2.453  -0.221   0.089  0.00  0.00    +0.074 A 
ATOM     12  C   UNL     1       3.825  -0.544   0.167  0.00  0.00    +0.102 A 
ATOM     13  N   UNL     1       4.509   0.580   0.229  0.00  0.00    -0.162 NA
ENDROOT
BRANCH   1  17
ATOM     14  C   UNL     1       4.145   6.886   5.238  0.00  0.00    +0.000 A 
ATOM     15  C   UNL     1       3.929   5.522   5.168  0.00  0.00    +0.001 A 
ATOM     16  C   UNL     1       3.953   4.878   3.948  0.00  0.00    +0.010 A 
ATOM     17  C   UNL     1       4.196   5.606   2.784  0.00  0.00    +0.001 A 
ATOM     18  C   UNL     1       4.418   6.981   2.861  0.00  0.00    +0.010 A 
ATOM     19  C   UNL     1       4.386   7.614   4.086  0.00  0.00    +0.001 A 
ENDBRANCH   1  17
BRANCH  12  20
ATOM     20  C   UNL     1       4.394  -1.908   0.182  0.00  0.00    +0.039 A 
ATOM     21  C   UNL     1       5.705  -2.295   0.260  0.00  0.00    +0.018 A 
ATOM     22  C   UNL     1       6.000  -3.641   0.258  0.00  0.00    +0.008 A 
ATOM     23  C   UNL     1       4.986  -4.540   0.179  0.00  0.00    +0.046 A 
ATOM     24  S   UNL     1       3.551  -3.481   0.111  0.00  0.00    -0.095 S 
ENDBRANCH  12  20
BRANCH  10  25
ATOM     25  N   UNL     1       1.160   1.861   0.032  0.00  0.00    -0.266 N 
ATOM     26  C   UNL     1      -0.027   1.222   0.055  0.00  0.00    +0.250 C 
ATOM     27  O   UNL     1      -0.064   0.007   0.036  0.00  0.00    -0.270 OA
ATOM     28  H   UNL     1       1.189   2.828  -0.029  0.00  0.00    +0.157 HD
BRANCH  26  29
ATOM     29  C   UNL     1      -1.283   1.999   0.097  0.00  0.00    +0.049 A 
ATOM     30  C   UNL     1      -1.249   3.392   0.018  0.00  0.00    +0.013 A 
ATOM     31  C   UNL     1      -2.426   4.111   0.053  0.00  0.00    +0.001 A 
ATOM     32  C   UNL     1      -3.638   3.455   0.178  0.00  0.00    +0.001 A 
ATOM     33  C   UNL     1      -3.678   2.074   0.262  0.00  0.00    +0.013 A 
ATOM     34  C   UNL     1      -2.509   1.343   0.222  0.00  0.00    +0.067 A 
BRANCH  34  35
ATOM     35  C   UNL     1      -2.555  -0.160   0.315  0.00  0.00    +0.418 C 
ATOM     36  F   UNL     1      -3.885  -0.580   0.433  0.00  0.00    -0.166 F 
ATOM     37  F   UNL     1      -1.992  -0.716  -0.839  0.00  0.00    -0.166 F 
ATOM     38  F   UNL     1      -1.832  -0.581   1.436  0.00  0.00    -0.166 F 
ENDBRANCH  34  35
ENDBRANCH  26  29
ENDBRANCH  10  25
TORSDOF 5
