REMARK  Name = ZINC42627427
REMARK  5 active torsions:
REMARK  status: ('A' for Active; 'I' for Inactive)
REMARK    1  A    between atoms: C_4  and  C_7
REMARK    2  A    between atoms: C_7  and  C_9
REMARK    3  A    between atoms: C_7  and  N_14
REMARK    4  A    between atoms: N_14  and  S_15
REMARK    5  A    between atoms: S_15  and  C_18
REMARK                            x       y       z     vdW  Elec       q    Type
REMARK                         _______ _______ _______ _____ _____    ______ ____
ROOT
ATOM      1  S   UNL     1       4.922  -2.334  -1.827  0.00  0.00    +0.059 S 
ATOM      2  O   UNL     1       4.523  -3.485  -2.559  0.00  0.00    -0.153 OA
ATOM      3  O   UNL     1       5.422  -1.164  -2.459  0.00  0.00    -0.153 OA
ENDROOT
BRANCH   1   4
ATOM      4  C   UNL     1       6.165  -2.864  -0.695  0.00  0.00    +0.107 A 
ATOM      5  C   UNL     1       7.080  -1.953  -0.200  0.00  0.00    +0.032 A 
ATOM      6  C   UNL     1       8.058  -2.361   0.689  0.00  0.00    +0.049 A 
ATOM      7  C   UNL     1       8.121  -3.685   1.085  0.00  0.00    +0.142 A 
ATOM      8  C   UNL     1       7.198  -4.604   0.586  0.00  0.00    +0.078 A 
ATOM      9  C   UNL     1       6.218  -4.188  -0.300  0.00  0.00    +0.055 A 
ATOM     10  N   UNL     1       7.274  -5.943   0.994  0.00  0.00    -0.280 N 
ATOM     11  C   UNL     1       8.016  -6.256   2.078  0.00  0.00    +0.255 C 
ATOM     12  O   UNL     1       8.122  -7.412   2.431  0.00  0.00    -0.272 OA
ATOM     13  C   UNL     1       8.712  -5.163   2.849  0.00  0.00    +0.325 C 
ATOM     14  O   UNL     1       9.075  -4.104   1.959  0.00  0.00    -0.481 OA
ATOM     15  H   UNL     1       6.802  -6.634   0.504  0.00  0.00    +0.155 HD
ENDBRANCH   1   4
BRANCH   1  16
ATOM     16  N   UNL     1       3.611  -1.865  -0.930  0.00  0.00    -0.175 NA
ATOM     17  H   UNL     1       2.778  -2.356  -0.996  0.00  0.00    +0.149 HD
BRANCH  16  18
ATOM     18  C   UNL     1       3.711  -0.707  -0.038  0.00  0.00    +0.172 C 
BRANCH  18  22
ATOM     19  C   UNL     1      -0.017   1.378   0.010  0.00  0.00    +0.000 A 
ATOM     20  C   UNL     1       1.171   2.086   0.002  0.00  0.00    +0.000 A 
ATOM     21  C   UNL     1       2.377   1.411  -0.013  0.00  0.00    +0.005 A 
ATOM     22  C   UNL     1       2.396   0.029  -0.020  0.00  0.00    -0.022 A 
ATOM     23  C   UNL     1       1.208  -0.679  -0.012  0.00  0.00    +0.005 A 
ATOM     24  C   UNL     1       0.002  -0.004   0.002  0.00  0.00    +0.000 A 
ENDBRANCH  18  22
BRANCH  18  25
ATOM     25  C   UNL     1       4.044  -1.175   1.356  0.00  0.00    +0.128 A 
ATOM     26  C   UNL     1       4.893  -0.570   2.207  0.00  0.00    +0.046 A 
ATOM     27  C   UNL     1       4.904  -1.342   3.391  0.00  0.00    +0.041 A 
ATOM     28  C   UNL     1       4.061  -2.372   3.193  0.00  0.00    +0.195 A 
ATOM     29  O   UNL     1       3.539  -2.262   1.961  0.00  0.00    -0.466 OA
ENDBRANCH  18  25
ENDBRANCH  16  18
ENDBRANCH   1  16
TORSDOF 5
