REMARK  Name = ZINC67025697
REMARK  10 active torsions:
REMARK  status: ('A' for Active; 'I' for Inactive)
REMARK    1  A    between atoms: C_1  and  C_2
REMARK    2  A    between atoms: C_7  and  C_8
REMARK    3  A    between atoms: C_8  and  C_10
REMARK    4  A    between atoms: C_8  and  N_26
REMARK    5  A    between atoms: C_10  and  C_11
REMARK    6  A    between atoms: N_13  and  C_14
REMARK    7  A    between atoms: C_17  and  C_20
REMARK    8  A    between atoms: N_22  and  C_23
REMARK    9  A    between atoms: N_22  and  O_24
REMARK   10  A    between atoms: O_24  and  C_25
REMARK                            x       y       z     vdW  Elec       q    Type
REMARK                         _______ _______ _______ _____ _____    ______ ____
ROOT
ATOM      1  C   UNL     1      -1.767   0.681   2.571  0.00  0.00    +0.123 C 
ENDROOT
BRANCH   1   2
ATOM      2  C   UNL     1      -1.905   1.415   3.880  0.00  0.00    +0.219 C 
ATOM      3  O   UNL     1      -0.916   1.803   4.465  0.00  0.00    -0.275 OA
ATOM      4  N   UNL     1      -3.128   1.642   4.399  0.00  0.00    -0.285 N 
ATOM      5  H   UNL     1      -3.913   1.262   3.976  0.00  0.00    +0.155 HD
BRANCH   4   6
ATOM      6  C   UNL     1      -3.264   2.424   5.546  0.00  0.00    +0.033 A 
ATOM      7  C   UNL     1      -2.428   3.519   5.743  0.00  0.00    +0.024 A 
ATOM      8  C   UNL     1      -2.559   4.293   6.873  0.00  0.00    +0.015 A 
ATOM      9  C   UNL     1      -3.534   3.979   7.824  0.00  0.00    +0.039 A 
ATOM     10  C   UNL     1      -4.372   2.879   7.623  0.00  0.00    +0.015 A 
ATOM     11  C   UNL     1      -4.239   2.112   6.488  0.00  0.00    +0.024 A 
BRANCH   9  12
ATOM     12  C   UNL     1      -3.678   4.806   9.038  0.00  0.00    +0.269 C 
ATOM     13  O   UNL     1      -3.165   5.908   9.087  0.00  0.00    -0.268 OA
ATOM     14  N   UNL     1      -4.377   4.341  10.092  0.00  0.00    -0.180 N 
ATOM     15  C   UNL     1      -4.634   5.211  11.242  0.00  0.00    +0.167 C 
BRANCH  14  16
ATOM     16  O   UNL     1      -4.864   3.011  10.087  0.00  0.00    -0.280 OA
ATOM     17  C   UNL     1      -4.008   2.077  10.749  0.00  0.00    +0.227 C 
ENDBRANCH  14  16
ENDBRANCH   9  12
ENDBRANCH   4   6
ENDBRANCH   1   2
BRANCH   1  18
ATOM     18  C   UNL     1      -0.286   0.558   2.209  0.00  0.00    +0.114 C 
BRANCH  18  25
ATOM     19  C   UNL     1       2.250   0.636   0.826  0.00  0.00    +0.044 C 
ATOM     20  C   UNL     1       1.061  -0.029   0.182  0.00  0.00    -0.045 A 
ATOM     21  C   UNL     1       1.184  -0.607  -1.067  0.00  0.00    +0.004 A 
ATOM     22  C   UNL     1       0.094  -1.218  -1.658  0.00  0.00    +0.000 A 
ATOM     23  C   UNL     1      -1.121  -1.250  -0.998  0.00  0.00    +0.000 A 
ATOM     24  C   UNL     1      -1.244  -0.673   0.252  0.00  0.00    +0.006 A 
ATOM     25  C   UNL     1      -0.152  -0.067   0.844  0.00  0.00    -0.024 A 
ENDBRANCH  18  25
BRANCH  18  26
ATOM     26  N   UNL     1       0.391  -0.284   3.199  0.00  0.00    -0.292 N 
ATOM     27  C   UNL     1      -0.001  -1.561   3.378  0.00  0.00    +0.298 C 
ATOM     28  O   UNL     1      -0.853  -2.042   2.658  0.00  0.00    -0.253 OA
ATOM     29  N   UNL     1       0.553  -2.305   4.356  0.00  0.00    -0.313 N 
ATOM     30  H   UNL     1       1.121   0.078   3.726  0.00  0.00    +0.151 HD
ATOM     31  H   UNL     1       1.234  -1.921   4.931  0.00  0.00    +0.146 HD
ATOM     32  H   UNL     1       0.272  -3.224   4.485  0.00  0.00    +0.146 HD
ENDBRANCH  18  26
ENDBRANCH   1  18
TORSDOF 7
