REMARK  Name = ZINC20704843
REMARK  7 active torsions:
REMARK  status: ('A' for Active; 'I' for Inactive)
REMARK    1  A    between atoms: C_1  and  C_2
REMARK    2  A    between atoms: C_2  and  C_3
REMARK    3  A    between atoms: C_3  and  C_5
REMARK    4  A    between atoms: C_3  and  N_6
REMARK    5  A    between atoms: C_7  and  C_9
REMARK    6  A    between atoms: C_22  and  C_25
REMARK    7  A    between atoms: C_29  and  N_31
REMARK                            x       y       z     vdW  Elec       q    Type
REMARK                         _______ _______ _______ _____ _____    ______ ____
ROOT
ATOM      1  C   UNL     1       1.253   1.967   0.001  0.00  0.00    +0.037 A 
ATOM      2  C   UNL     1       1.234   3.365   0.003  0.00  0.00    +0.015 A 
ATOM      3  C   UNL     1       2.421   4.059  -0.000  0.00  0.00    +0.024 A 
ATOM      4  C   UNL     1       3.634   3.374  -0.018  0.00  0.00    +0.031 A 
ATOM      5  C   UNL     1       3.664   1.985  -0.023  0.00  0.00    -0.019 A 
ATOM      6  C   UNL     1       2.470   1.286  -0.015  0.00  0.00    +0.019 A 
ATOM      7  C   UNL     1       4.945   1.212  -0.037  0.00  0.00    +0.049 C 
ATOM      8  C   UNL     1       5.218   0.620  -1.399  0.00  0.00    -0.023 C 
ATOM      9  C   UNL     1       6.492   0.630  -1.662  0.00  0.00    -0.030 C 
ATOM     10  C   UNL     1       7.261   1.255  -0.514  0.00  0.00    +0.033 C 
ATOM     11  C   UNL     1       6.181   2.095   0.229  0.00  0.00    +0.029 C 
ATOM     12  C   UNL     1       6.042   3.424  -0.517  0.00  0.00    +0.105 C 
ATOM     13  N   UNL     1       4.823   4.100  -0.062  0.00  0.00    -0.336 N 
ATOM     14  H   UNL     1       4.859   5.158   0.235  0.00  0.00    +0.147 HD
ENDROOT
BRANCH  12  15
ATOM     15  C   UNL     1       7.239   4.293  -0.227  0.00  0.00    -0.025 A 
ATOM     16  C   UNL     1       7.303   5.010   0.953  0.00  0.00    +0.007 A 
ATOM     17  C   UNL     1       8.402   5.802   1.222  0.00  0.00    +0.022 A 
ATOM     18  C   UNL     1       9.435   5.887   0.305  0.00  0.00    +0.071 A 
ATOM     19  C   UNL     1       9.368   5.174  -0.879  0.00  0.00    +0.145 A 
ATOM     20  C   UNL     1       8.270   4.378  -1.144  0.00  0.00    +0.039 A 
ATOM     21 CL   UNL     1      10.813   6.888   0.639  0.00  0.00    -0.081 Cl
BRANCH  19  22
ATOM     22  N   UNL     1      10.472   5.264  -1.861  0.00  0.00    +0.058 N 
ATOM     23  O   UNL     1      10.413   4.636  -2.902  0.00  0.00    -0.126 OA
ATOM     24  O   UNL     1      11.439   5.966  -1.627  0.00  0.00    -0.126 OA
ENDBRANCH  19  22
ENDBRANCH  12  15
BRANCH   1  26
ATOM     25  N   UNL     1      -1.191   1.870   0.018  0.00  0.00    -0.309 N 
ATOM     26  C   UNL     1      -0.014   1.212   0.009  0.00  0.00    +0.244 C 
ATOM     27  O   UNL     1       0.002  -0.004   0.002  0.00  0.00    -0.270 OA
ATOM     28  H   UNL     1      -1.206   2.970   0.024  0.00  0.00    +0.149 HD
BRANCH  25  29
ATOM     29  C   UNL     1      -2.449   1.120   0.020  0.00  0.00    +0.070 C 
ATOM     30  C   UNL     1      -2.830   0.759  -1.417  0.00  0.00    +0.028 C 
BRANCH  29  32
ATOM     31  C   UNL     1      -3.233   2.236   2.113  0.00  0.00    +0.005 C 
ATOM     32  C   UNL     1      -3.554   1.979   0.639  0.00  0.00    +0.018 C 
ENDBRANCH  29  32
ENDBRANCH  25  29
ENDBRANCH   1  26
TORSDOF 5
