REMARK  Name = ZINC59772153
REMARK  7 active torsions:
REMARK  status: ('A' for Active; 'I' for Inactive)
REMARK    1  A    between atoms: C_1  and  C_2
REMARK    2  A    between atoms: C_5  and  N_8
REMARK    3  A    between atoms: N_8  and  S_9
REMARK    4  A    between atoms: S_9  and  C_12
REMARK    5  A    between atoms: C_15  and  N_18
REMARK    6  A    between atoms: C_19  and  C_21
REMARK    7  A    between atoms: C_26  and  C_29
REMARK                            x       y       z     vdW  Elec       q    Type
REMARK                         _______ _______ _______ _____ _____    ______ ____
ROOT
ATOM      1  C   UNL     1       0.428  -4.540   2.675  0.00  0.00    +0.109 A 
ATOM      2  C   UNL     1       0.911  -3.448   3.371  0.00  0.00    +0.030 A 
ATOM      3  C   UNL     1       0.427  -3.163   4.633  0.00  0.00    +0.025 A 
ATOM      4  C   UNL     1      -0.546  -3.975   5.202  0.00  0.00    +0.034 A 
ATOM      5  C   UNL     1      -1.029  -5.071   4.499  0.00  0.00    +0.025 A 
ATOM      6  C   UNL     1      -0.545  -5.348   3.236  0.00  0.00    +0.030 A 
ENDROOT
BRANCH   4   7
ATOM      7  N   UNL     1      -1.037  -3.689   6.478  0.00  0.00    -0.278 N 
ATOM      8  C   UNL     1      -1.407  -4.693   7.298  0.00  0.00    +0.304 C 
ATOM      9  O   UNL     1      -1.225  -5.846   6.966  0.00  0.00    -0.265 OA
ATOM     10  H   UNL     1      -1.113  -2.768   6.774  0.00  0.00    +0.155 HD
BRANCH   8  11
ATOM     11  C   UNL     1      -2.039  -4.386   8.615  0.00  0.00    +0.305 C 
ATOM     12  O   UNL     1      -2.220  -3.233   8.948  0.00  0.00    -0.265 OA
ATOM     13  N   UNL     1      -2.409  -5.390   9.435  0.00  0.00    -0.260 N 
ATOM     14  C   UNL     1      -2.999  -5.104  10.665  0.00  0.00    +0.168 A 
ATOM     15  C   UNL     1      -3.274  -3.816  11.176  0.00  0.00    +0.091 A 
ATOM     16  C   UNL     1      -3.844  -3.959  12.385  0.00  0.00    +0.136 A 
ATOM     17  O   UNL     1      -3.936  -5.272  12.652  0.00  0.00    -0.358 OA
ATOM     18  N   UNL     1      -3.402  -5.981  11.549  0.00  0.00    -0.063 NA
ATOM     19  C   UNL     1      -4.300  -2.841  13.286  0.00  0.00    +0.089 C 
ATOM     20  H   UNL     1      -2.264  -6.312   9.170  0.00  0.00    +0.157 HD
ENDBRANCH   8  11
ENDBRANCH   4   7
BRANCH   1  21
ATOM     21  S   UNL     1       1.048  -4.901   1.065  0.00  0.00    +0.072 S 
ATOM     22  O   UNL     1       0.712  -6.255   0.794  0.00  0.00    -0.150 OA
ATOM     23  O   UNL     1       2.388  -4.427   1.030  0.00  0.00    -0.150 OA
BRANCH  21  24
ATOM     24  N   UNL     1       0.191  -3.976  -0.008  0.00  0.00    -0.216 N 
ATOM     25  H   UNL     1       0.648  -3.317  -0.553  0.00  0.00    +0.174 HD
BRANCH  24  30
ATOM     26  C   UNL     1      -5.416  -4.666  -0.499  0.00  0.00    +0.044 C 
ATOM     27  C   UNL     1      -3.926  -4.483  -0.369  0.00  0.00    -0.050 A 
ATOM     28  C   UNL     1      -3.393  -3.210  -0.274  0.00  0.00    +0.005 A 
ATOM     29  C   UNL     1      -2.028  -3.039  -0.154  0.00  0.00    +0.025 A 
ATOM     30  C   UNL     1      -1.190  -4.146  -0.129  0.00  0.00    +0.048 A 
ATOM     31  C   UNL     1      -1.729  -5.423  -0.225  0.00  0.00    +0.025 A 
ATOM     32  C   UNL     1      -3.095  -5.588  -0.339  0.00  0.00    +0.005 A 
ENDBRANCH  24  30
ENDBRANCH  21  24
ENDBRANCH   1  21
TORSDOF 5
