REMARK  Name = ZINC41176576
REMARK  7 active torsions:
REMARK  status: ('A' for Active; 'I' for Inactive)
REMARK    1  A    between atoms: C_1  and  C_2
REMARK    2  A    between atoms: C_6  and  N_8
REMARK    3  A    between atoms: C_10  and  C_15
REMARK    4  A    between atoms: C_15  and  N_16
REMARK    5  A    between atoms: N_16  and  S_17
REMARK    6  A    between atoms: S_17  and  C_20
REMARK    7  A    between atoms: C_25  and  C_26
REMARK                            x       y       z     vdW  Elec       q    Type
REMARK                         _______ _______ _______ _____ _____    ______ ____
ROOT
ATOM      1  N   UNL     1       0.703  -3.071   2.342  0.00  0.00    -0.234 N 
ATOM      2  C   UNL     1       0.659  -4.526   2.586  0.00  0.00    +0.163 C 
ATOM      3  C   UNL     1       0.852  -4.606   4.119  0.00  0.00    +0.211 C 
ATOM      4  O   UNL     1       0.392  -3.310   4.548  0.00  0.00    -0.444 OA
ATOM      5  C   UNL     1       0.566  -2.451   3.529  0.00  0.00    +0.408 C 
ATOM      6  O   UNL     1       0.593  -1.244   3.664  0.00  0.00    -0.226 OA
ENDROOT
BRANCH   1  12
ATOM      7  C   UNL     1       1.082   1.054  -0.307  0.00  0.00    +0.044 C 
ATOM      8  C   UNL     1       1.051  -0.450  -0.214  0.00  0.00    -0.049 A 
ATOM      9  C   UNL     1       1.181  -1.216  -1.358  0.00  0.00    +0.003 A 
ATOM     10  C   UNL     1       1.153  -2.596  -1.277  0.00  0.00    +0.002 A 
ATOM     11  C   UNL     1       0.994  -3.214  -0.052  0.00  0.00    +0.023 A 
ATOM     12  C   UNL     1       0.863  -2.448   1.099  0.00  0.00    +0.040 A 
ATOM     13  C   UNL     1       0.898  -1.062   1.015  0.00  0.00    +0.027 A 
ENDBRANCH   1  12
BRANCH   3  14
ATOM     14  C   UNL     1      -0.008  -5.719   4.721  0.00  0.00    +0.152 C 
BRANCH  14  15
ATOM     15  N   UNL     1       0.199  -5.766   6.171  0.00  0.00    -0.186 NA
ATOM     16  H   UNL     1       0.960  -5.314   6.567  0.00  0.00    +0.148 HD
BRANCH  15  17
ATOM     17  S   UNL     1      -0.866  -6.593   7.133  0.00  0.00    +0.059 S 
ATOM     18  O   UNL     1      -0.374  -6.495   8.462  0.00  0.00    -0.153 OA
ATOM     19  O   UNL     1      -2.168  -6.154   6.768  0.00  0.00    -0.153 OA
BRANCH  17  20
ATOM     20  C   UNL     1      -0.764  -8.293   6.682  0.00  0.00    +0.108 A 
ATOM     21  C   UNL     1      -1.855  -8.925   6.114  0.00  0.00    +0.029 A 
ATOM     22  C   UNL     1      -1.775 -10.258   5.761  0.00  0.00    +0.002 A 
ATOM     23  C   UNL     1      -0.603 -10.961   5.974  0.00  0.00    +0.000 A 
ATOM     24  C   UNL     1       0.488 -10.329   6.541  0.00  0.00    +0.005 A 
ATOM     25  C   UNL     1       0.409  -8.994   6.891  0.00  0.00    -0.024 A 
ATOM     26  C   UNL     1       1.600  -8.304   7.504  0.00  0.00    +0.046 C 
ENDBRANCH  17  20
ENDBRANCH  15  17
ENDBRANCH  14  15
ENDBRANCH   3  14
TORSDOF 5
