REMARK  Name = ZINC23332543
REMARK  10 active torsions:
REMARK  status: ('A' for Active; 'I' for Inactive)
REMARK    1  A    between atoms: C_1  and  C_2
REMARK    2  A    between atoms: C_4  and  C_22
REMARK    3  A    between atoms: N_6  and  C_7
REMARK    4  A    between atoms: C_10  and  C_13
REMARK    5  A    between atoms: N_15  and  C_16
REMARK    6  A    between atoms: C_16  and  C_18
REMARK    7  A    between atoms: C_16  and  C_19
REMARK    8  A    between atoms: C_19  and  C_20
REMARK    9  A    between atoms: C_19  and  C_21
REMARK   10  A    between atoms: C_25  and  C_27
REMARK                            x       y       z     vdW  Elec       q    Type
REMARK                         _______ _______ _______ _____ _____    ______ ____
ROOT
ATOM      1  C   UNL     1      -0.017   1.393   0.010  0.00  0.00    +0.066 A 
ATOM      2  C   UNL     1      -1.232   2.071   0.019  0.00  0.00    +0.028 A 
ATOM      3  C   UNL     1      -1.254   3.447   0.033  0.00  0.00    +0.015 A 
ATOM      4  C   UNL     1      -0.054   4.164   0.025  0.00  0.00    +0.037 A 
ATOM      5  C   UNL     1       1.164   3.480   0.010  0.00  0.00    +0.015 A 
ATOM      6  C   UNL     1       1.179   2.103   0.002  0.00  0.00    +0.028 A 
ENDROOT
BRANCH   1  12
ATOM      7  C   UNL     1      -2.048  -0.374   1.484  0.00  0.00    +0.067 C 
ATOM      8  C   UNL     1      -0.880  -0.819   0.642  0.00  0.00    +0.057 A 
ATOM      9  C   UNL     1      -0.525  -2.096   0.387  0.00  0.00    +0.071 A 
ATOM     10  C   UNL     1       0.624  -2.071  -0.433  0.00  0.00    +0.163 A 
ATOM     11  N   UNL     1       0.936  -0.811  -0.661  0.00  0.00    -0.160 NA
ATOM     12  N   UNL     1       0.002  -0.004   0.002  0.00  0.00    -0.235 N 
ATOM     13 BR   UNL     1      -1.405  -3.644   1.022  0.00  0.00    -0.046 Br
BRANCH  10  14
ATOM     14  C   UNL     1       1.350  -3.252  -0.947  0.00  0.00    +0.270 A 
ATOM     15  N   UNL     1       1.047  -4.510  -0.726  0.00  0.00    -0.106 NA
ATOM     16  N   UNL     1       1.897  -5.263  -1.330  0.00  0.00    -0.112 NA
ATOM     17  C   UNL     1       2.769  -4.523  -1.954  0.00  0.00    +0.215 A 
ATOM     18  O   UNL     1       2.445  -3.237  -1.734  0.00  0.00    -0.419 OA
ATOM     19  C   UNL     1       3.928  -5.019  -2.780  0.00  0.00    +0.111 C 
ENDBRANCH  10  14
ENDBRANCH   1  12
BRANCH   4  20
ATOM     20  C   UNL     1      -0.074   5.641   0.033  0.00  0.00    +0.244 C 
ATOM     21  O   UNL     1       0.970   6.263   0.025  0.00  0.00    -0.270 OA
ATOM     22  N   UNL     1      -1.251   6.298   0.047  0.00  0.00    -0.309 N 
ATOM     23  H   UNL     1      -2.196   5.736   0.054  0.00  0.00    +0.149 HD
BRANCH  22  24
ATOM     24  C   UNL     1      -1.270   7.763   0.055  0.00  0.00    +0.073 C 
ATOM     25  C   UNL     1      -1.138   8.268   1.493  0.00  0.00    +0.028 C 
BRANCH  24  26
ATOM     26  C   UNL     1      -2.591   8.258  -0.539  0.00  0.00    +0.003 C 
ATOM     27  C   UNL     1      -3.749   7.833   0.365  0.00  0.00    +0.009 C 
ATOM     28  C   UNL     1      -2.561   9.784  -0.647  0.00  0.00    +0.009 C 
ENDBRANCH  24  26
ENDBRANCH  22  24
ENDBRANCH   4  20
TORSDOF 5
