REMARK  Name = ZINC41584043
REMARK  10 active torsions:
REMARK  status: ('A' for Active; 'I' for Inactive)
REMARK    1  A    between atoms: C_1  and  C_2
REMARK    2  A    between atoms: C_2  and  C_3
REMARK    3  A    between atoms: C_3  and  C_4
REMARK    4  A    between atoms: C_4  and  N_5
REMARK    5  A    between atoms: N_5  and  C_6
REMARK    6  A    between atoms: N_5  and  C_7
REMARK    7  A    between atoms: C_7  and  C_8
REMARK    8  A    between atoms: C_9  and  O_28
REMARK    9  A    between atoms: C_11  and  C_27
REMARK   10  A    between atoms: C_16  and  C_17
REMARK                            x       y       z     vdW  Elec       q    Type
REMARK                         _______ _______ _______ _____ _____    ______ ____
ROOT
ATOM      1  C   UNL     1      -4.424  -4.063   0.223  0.00  0.00    +0.020 A 
ATOM      2  C   UNL     1      -4.959  -4.273   1.484  0.00  0.00    +0.122 A 
ATOM      3  C   UNL     1      -6.124  -5.018   1.644  0.00  0.00    +0.050 A 
ATOM      4  C   UNL     1      -6.753  -5.550   0.554  0.00  0.00    -0.033 A 
ATOM      5  C   UNL     1      -6.226  -5.347  -0.721  0.00  0.00    +0.071 A 
ATOM      6  C   UNL     1      -5.054  -4.593  -0.895  0.00  0.00    +0.145 A 
ATOM      7  O   UNL     1      -4.744  -4.528  -2.209  0.00  0.00    -0.451 OA
ATOM      8  C   UNL     1      -5.643  -5.195  -2.971  0.00  0.00    +0.176 C 
ATOM      9  C   UNL     1      -5.613  -5.318  -4.322  0.00  0.00    +0.058 C 
ATOM     10  C   UNL     1      -6.650  -5.773  -2.067  0.00  0.00    +0.232 C 
ATOM     11  O   UNL     1      -7.623  -6.443  -2.365  0.00  0.00    -0.283 OA
ATOM     12  C   UNL     1      -8.014  -6.357   0.730  0.00  0.00    +0.045 C 
ENDROOT
BRANCH   9  13
ATOM     13  C   UNL     1      -4.460  -4.814  -5.080  0.00  0.00    -0.020 A 
ATOM     14  C   UNL     1      -4.497  -4.783  -6.479  0.00  0.00    +0.009 A 
ATOM     15  C   UNL     1      -3.412  -4.310  -7.184  0.00  0.00    +0.022 A 
ATOM     16  C   UNL     1      -2.285  -3.865  -6.512  0.00  0.00    +0.059 A 
ATOM     17  C   UNL     1      -2.240  -3.893  -5.127  0.00  0.00    +0.060 A 
ATOM     18  C   UNL     1      -3.321  -4.359  -4.407  0.00  0.00    +0.029 A 
ATOM     19 CL   UNL     1      -0.822  -3.333  -4.295  0.00  0.00    -0.082 Cl
ATOM     20 CL   UNL     1      -0.922  -3.272  -7.410  0.00  0.00    -0.082 Cl
ENDBRANCH   9  13
BRANCH   2  21
ATOM     21  O   UNL     1      -4.341  -3.748   2.573  0.00  0.00    -0.506 OA
ATOM     22  H   UNL     1      -4.644  -2.860   2.807  0.00  0.00    +0.292 HD
ENDBRANCH   2  21
BRANCH   1  23
ATOM     23  C   UNL     1      -3.162  -3.255   0.066  0.00  0.00    -0.036 C 
BRANCH  23  24
ATOM     24  N   UNL     1      -3.506  -1.837  -0.108  0.00  0.00    +0.381 N 
ATOM     25  C   UNL     1      -4.240  -1.662  -1.368  0.00  0.00    -0.096 C 
ATOM     26  H   UNL     1      -4.083  -1.535   0.663  0.00  0.00    -0.082 HD
BRANCH  24  27
ATOM     27  C   UNL     1      -2.276  -1.035  -0.142  0.00  0.00    -0.079 C 
BRANCH  27  28
ATOM     28  C   UNL     1      -2.637   0.451  -0.196  0.00  0.00    -0.019 C 
BRANCH  28  30
ATOM     29  C   UNL     1      -1.717   2.772  -0.286  0.00  0.00    +0.004 C 
ATOM     30  C   UNL     1      -1.356   1.286  -0.232  0.00  0.00    -0.005 C 
ENDBRANCH  28  30
ENDBRANCH  27  28
ENDBRANCH  24  27
ENDBRANCH  23  24
ENDBRANCH   1  23
TORSDOF 7
