REMARK  Name = ZINC40797370
REMARK  4 active torsions:
REMARK  status: ('A' for Active; 'I' for Inactive)
REMARK    1  A    between atoms: C_1  and  C_2
REMARK    2  A    between atoms: C_11  and  C_13
REMARK    3  A    between atoms: C_11  and  C_14
REMARK    4  A    between atoms: N_16  and  C_17
REMARK                            x       y       z     vdW  Elec       q    Type
REMARK                         _______ _______ _______ _____ _____    ______ ____
ROOT
ATOM      1  C   UNL     1       0.048   1.503   0.001  0.00  0.00    +0.044 C 
ATOM      2  C   UNL     1       0.056  -0.004  -0.006  0.00  0.00    -0.048 A 
ATOM      3  C   UNL     1       0.056  -0.688  -1.208  0.00  0.00    +0.007 A 
ATOM      4  C   UNL     1       0.058  -2.071  -1.222  0.00  0.00    +0.048 A 
ATOM      5  C   UNL     1       0.063  -2.773  -0.029  0.00  0.00    +0.144 A 
ATOM      6  C   UNL     1       0.074  -2.084   1.182  0.00  0.00    +0.076 A 
ATOM      7  C   UNL     1       0.070  -0.698   1.190  0.00  0.00    +0.030 A 
ATOM      8  N   UNL     1       0.114  -2.802   2.385  0.00  0.00    -0.279 N 
ATOM      9  C   UNL     1       0.360  -4.129   2.352  0.00  0.00    +0.270 C 
ATOM     10  O   UNL     1       0.290  -4.787   3.369  0.00  0.00    -0.271 OA
ATOM     11  C   UNL     1       0.721  -4.791   1.046  0.00  0.00    +0.258 C 
ATOM     12  O   UNL     1       0.047  -4.133  -0.029  0.00  0.00    -0.465 OA
ATOM     13  C   UNL     1       2.233  -4.700   0.830  0.00  0.00    +0.076 C 
ATOM     14  H   UNL     1      -0.033  -2.351   3.231  0.00  0.00    +0.155 HD
ENDROOT
BRANCH  11  15
ATOM     15  C   UNL     1       0.307  -6.239   1.087  0.00  0.00    +0.270 C 
ATOM     16  O   UNL     1       0.204  -6.811   2.151  0.00  0.00    -0.271 OA
ATOM     17  N   UNL     1       0.052  -6.899  -0.060  0.00  0.00    -0.281 N 
ATOM     18  H   UNL     1       0.056  -6.423  -0.905  0.00  0.00    +0.155 HD
BRANCH  17  19
ATOM     19  C   UNL     1      -0.220  -8.273  -0.032  0.00  0.00    +0.052 A 
ATOM     20  C   UNL     1       0.254  -9.054   1.013  0.00  0.00    +0.026 A 
ATOM     21  C   UNL     1      -0.014 -10.408   1.039  0.00  0.00    +0.022 A 
ATOM     22  C   UNL     1      -0.755 -10.988   0.024  0.00  0.00    +0.042 A 
ATOM     23  C   UNL     1      -1.229 -10.212  -1.020  0.00  0.00    +0.041 A 
ATOM     24  C   UNL     1      -0.968  -8.855  -1.047  0.00  0.00    +0.064 A 
ATOM     25 CL   UNL     1      -1.569  -7.881  -2.353  0.00  0.00    -0.082 Cl
ATOM     26 CL   UNL     1      -1.090 -12.691   0.059  0.00  0.00    -0.083 Cl
ENDBRANCH  17  19
ENDBRANCH  11  15
TORSDOF 2
