REMARK  Name = ZINC12805158
REMARK  5 active torsions:
REMARK  status: ('A' for Active; 'I' for Inactive)
REMARK    1  A    between atoms: N_9  and  N_13
REMARK    2  A    between atoms: C_14  and  C_16
REMARK    3  A    between atoms: C_16  and  C_17
REMARK    4  A    between atoms: C_17  and  N_52
REMARK    5  A    between atoms: C_21  and  C_24
REMARK                            x       y       z     vdW  Elec       q    Type
REMARK                         _______ _______ _______ _____ _____    ______ ____
ROOT
ATOM      1  N   UNL     1      -1.146  -0.807   0.009  0.00  0.00    -0.224 N 
ATOM      2  C   UNL     1      -1.536  -1.435  -1.118  0.00  0.00    +0.228 C 
ATOM      3  O   UNL     1      -0.893  -1.305  -2.138  0.00  0.00    -0.274 OA
ATOM      4  H   UNL     1      -1.660  -0.911   0.825  0.00  0.00    +0.174 HD
ENDROOT
BRANCH   1  13
ATOM      5  C   UNL     1       3.533   3.799  -0.011  0.00  0.00    +0.000 C 
ATOM      6  C   UNL     1       3.220   2.976  -1.262  0.00  0.00    +0.003 C 
ATOM      7  C   UNL     1       1.741   2.581  -1.255  0.00  0.00    +0.035 C 
ATOM      8  C   UNL     1       1.435   1.768  -0.002  0.00  0.00    +0.114 C 
ATOM      9  C   UNL     1       1.765   2.567   1.254  0.00  0.00    +0.035 C 
ATOM     10  C   UNL     1       3.244   2.962   1.237  0.00  0.00    +0.003 C 
ATOM     11  C   UNL     1      -0.016   1.345   0.009  0.00  0.00    +0.263 C 
ATOM     12  O   UNL     1      -0.991   2.066   0.018  0.00  0.00    -0.271 OA
ATOM     13  N   UNL     1       0.002  -0.004   0.002  0.00  0.00    -0.137 N 
ATOM     14  C   UNL     1       1.253  -0.480  -0.013  0.00  0.00    +0.326 C 
ATOM     15  O   UNL     1       1.526  -1.665  -0.021  0.00  0.00    -0.251 OA
ATOM     16  N   UNL     1       2.176   0.501  -0.016  0.00  0.00    -0.284 N 
ATOM     17  H   UNL     1       3.140   0.392  -0.026  0.00  0.00    +0.151 HD
ENDBRANCH   1  13
BRANCH   2  18
ATOM     18  C   UNL     1      -2.771  -2.299  -1.110  0.00  0.00    +0.079 C 
BRANCH  18  19
ATOM     19  C   UNL     1      -2.989  -2.889  -2.505  0.00  0.00    -0.070 C 
BRANCH  19  25
ATOM     20  C   UNL     1      -5.303  -3.056  -1.813  0.00  0.00    -0.079 C 
ATOM     21  C   UNL     1      -6.490  -4.015  -1.696  0.00  0.00    -0.018 C 
ATOM     22  C   UNL     1      -6.922  -4.457  -3.097  0.00  0.00    +0.008 C 
ATOM     23  C   UNL     1      -5.734  -5.114  -3.806  0.00  0.00    +0.077 C 
ATOM     24  C   UNL     1      -4.569  -4.124  -3.861  0.00  0.00    -0.067 C 
ATOM     25  N   UNL     1      -4.185  -3.756  -2.482  0.00  0.00    +0.380 N 
ATOM     26  H   UNL     1      -3.967  -4.612  -1.957  0.00  0.00    -0.082 HD
BRANCH  23  27
ATOM     27  C   UNL     1      -6.140  -5.506  -5.228  0.00  0.00    +0.391 C 
ATOM     28  F   UNL     1      -5.053  -6.102  -5.876  0.00  0.00    -0.171 F 
ATOM     29  F   UNL     1      -7.205  -6.411  -5.176  0.00  0.00    -0.171 F 
ATOM     30  F   UNL     1      -6.533  -4.363  -5.932  0.00  0.00    -0.171 F 
ENDBRANCH  23  27
ENDBRANCH  19  25
ENDBRANCH  18  19
ENDBRANCH   2  18
TORSDOF 5
