REMARK  Name = ZINC27390160
REMARK  6 active torsions:
REMARK  status: ('A' for Active; 'I' for Inactive)
REMARK    1  A    between atoms: C_1  and  C_2
REMARK    2  A    between atoms: C_7  and  C_8
REMARK    3  A    between atoms: C_8  and  N_9
REMARK    4  A    between atoms: C_16  and  C_18
REMARK    5  A    between atoms: N_20  and  C_27
REMARK    6  A    between atoms: C_21  and  C_24
REMARK                            x       y       z     vdW  Elec       q    Type
REMARK                         _______ _______ _______ _____ _____    ______ ____
ROOT
ATOM      1  N   UNL     1       1.174   2.035   0.062  0.00  0.00    +0.383 N 
ATOM      2  C   UNL     1      -0.128   1.376   0.162  0.00  0.00    -0.077 C 
ATOM      3  C   UNL     1      -0.066  -0.098   0.172  0.00  0.00    +0.000 C 
ATOM      4  C   UNL     1       0.726  -0.579   1.414  0.00  0.00    +0.106 C 
ATOM      5  N   UNL     1       2.123  -0.234   1.260  0.00  0.00    -0.298 N 
ATOM      6  C   UNL     1       2.686   1.055   1.712  0.00  0.00    +0.089 C 
ATOM      7  C   UNL     1       1.749   2.231   1.375  0.00  0.00    -0.059 C 
ATOM      8  C   UNL     1       2.947  -1.128   0.678  0.00  0.00    +0.262 C 
ATOM      9  O   UNL     1       4.117  -0.848   0.495  0.00  0.00    -0.269 OA
ATOM     10  H   UNL     1       1.853   1.376  -0.500  0.00  0.00    -0.081 HD
ENDROOT
BRANCH   8  11
ATOM     11  C   UNL     1       2.435  -2.436   0.268  0.00  0.00    +0.123 C 
ATOM     12  N   UNL     1       1.192  -2.795   0.298  0.00  0.00    -0.178 NA
ATOM     13  N   UNL     1       0.967  -4.094  -0.152  0.00  0.00    -0.212 N 
ATOM     14  C   UNL     1       2.254  -4.698  -0.531  0.00  0.00    +0.189 C 
ATOM     15  C   UNL     1       3.277  -3.579  -0.252  0.00  0.00    +0.096 C 
BRANCH  13  16
ATOM     16  C   UNL     1      -0.277  -4.723  -0.225  0.00  0.00    +0.052 A 
ATOM     17  C   UNL     1      -0.371  -6.029  -0.693  0.00  0.00    +0.025 A 
ATOM     18  C   UNL     1      -1.603  -6.649  -0.760  0.00  0.00    +0.002 A 
ATOM     19  C   UNL     1      -2.744  -5.970  -0.372  0.00  0.00    +0.000 A 
ATOM     20  C   UNL     1      -2.654  -4.669   0.090  0.00  0.00    +0.002 A 
ATOM     21  C   UNL     1      -1.425  -4.044   0.165  0.00  0.00    +0.025 A 
ENDBRANCH  13  16
BRANCH  14  22
ATOM     22  C   UNL     1       2.547  -5.907   0.319  0.00  0.00    +0.233 C 
ATOM     23  O   UNL     1       1.909  -6.106   1.331  0.00  0.00    -0.274 OA
ATOM     24  N   UNL     1       3.517  -6.768  -0.046  0.00  0.00    -0.328 N 
ATOM     25  H   UNL     1       3.731  -7.651   0.574  0.00  0.00    +0.145 HD
ATOM     26  H   UNL     1       4.095  -6.588  -0.964  0.00  0.00    +0.145 HD
ENDBRANCH  14  22
ENDBRANCH   8  11
BRANCH   1  27
ATOM     27  C   UNL     1       1.065   3.309  -0.661  0.00  0.00    -0.043 C 
BRANCH  27  34
ATOM     28  C   UNL     1       3.313   2.630  -2.344  0.00  0.00    +0.044 C 
ATOM     29  C   UNL     1       3.434   3.746  -1.339  0.00  0.00    -0.049 A 
ATOM     30  C   UNL     1       4.621   4.445  -1.222  0.00  0.00    +0.003 A 
ATOM     31  C   UNL     1       4.733   5.469  -0.300  0.00  0.00    +0.000 A 
ATOM     32  C   UNL     1       3.657   5.794   0.505  0.00  0.00    +0.000 A 
ATOM     33  C   UNL     1       2.469   5.099   0.385  0.00  0.00    +0.002 A 
ATOM     34  C   UNL     1       2.359   4.071  -0.533  0.00  0.00    -0.061 A 
ENDBRANCH  27  34
ENDBRANCH   1  27
TORSDOF 5
