REMARK  Name = ZINC42400241
REMARK  2 active torsions:
REMARK  status: ('A' for Active; 'I' for Inactive)
REMARK    1  A    between atoms: C_6  and  C_7
REMARK    2  A    between atoms: C_7  and  C_8
REMARK                            x       y       z     vdW  Elec       q    Type
REMARK                         _______ _______ _______ _____ _____    ______ ____
ROOT
ATOM      1  C   UNL     1      -1.738  -1.024  -1.408  0.00  0.00    +0.135 A 
ATOM      2  N   UNL     1      -2.512  -0.138  -2.001  0.00  0.00    -0.236 NA
ATOM      3  C   UNL     1      -2.923  -0.322  -3.247  0.00  0.00    +0.049 A 
ATOM      4  C   UNL     1      -2.529  -1.463  -3.922  0.00  0.00    +0.011 A 
ATOM      5  C   UNL     1      -1.714  -2.375  -3.266  0.00  0.00    +0.136 A 
ATOM      6  N   UNL     1      -1.338  -2.120  -2.021  0.00  0.00    -0.220 NA
ATOM      7 CL   UNL     1      -1.189  -3.823  -4.066  0.00  0.00    -0.062 Cl
ATOM      8  C   UNL     1      -3.111  -1.463  -5.316  0.00  0.00    +0.040 C 
ATOM      9  C   UNL     1      -4.252  -0.422  -5.277  0.00  0.00    +0.011 C 
ATOM     10  C   UNL     1      -3.799   0.524  -4.143  0.00  0.00    +0.056 C 
ENDROOT
BRANCH   1  11
ATOM     11  C   UNL     1      -1.293  -0.775   0.010  0.00  0.00    +0.111 C 
BRANCH  11  17
ATOM     12  C   UNL     1      -0.017   1.378   0.010  0.00  0.00    +0.005 A 
ATOM     13  C   UNL     1       1.171   2.086   0.002  0.00  0.00    +0.015 A 
ATOM     14  C   UNL     1       2.378   1.411  -0.013  0.00  0.00    +0.018 A 
ATOM     15  C   UNL     1       2.396   0.027  -0.021  0.00  0.00    +0.015 A 
ATOM     16  C   UNL     1       1.208  -0.679  -0.013  0.00  0.00    +0.005 A 
ATOM     17  C   UNL     1       0.002  -0.004   0.002  0.00  0.00    -0.040 A 
ATOM     18 BR   UNL     1       4.003   2.378  -0.024  0.00  0.00    -0.050 Br
ENDBRANCH  11  17
ENDBRANCH   1  11
TORSDOF 2
