REMARK  Name = ZINC04026895
REMARK  1 active torsions:
REMARK  status: ('A' for Active; 'I' for Inactive)
REMARK    1  A    between atoms: C_15  and  N_17
REMARK                            x       y       z     vdW  Elec       q    Type
REMARK                         _______ _______ _______ _____ _____    ______ ____
ROOT
ATOM      1  C   UNL     1      -0.013   1.086   0.008  0.00  0.00    +0.005 C 
ATOM      2  C   UNL     1      -0.772   1.603  -1.222  0.00  0.00    +0.005 C 
ATOM      3  C   UNL     1      -2.122   0.896  -1.259  0.00  0.00    +0.031 C 
ATOM      4  C   UNL     1      -2.834   0.992   0.073  0.00  0.00    -0.065 C 
ATOM      5  C   UNL     1      -2.224   1.264   1.186  0.00  0.00    -0.070 C 
ATOM      6  C   UNL     1      -0.743   1.586   1.248  0.00  0.00    +0.031 C 
ATOM      7  C   UNL     1      -2.922   1.280   2.529  0.00  0.00    +0.036 C 
ATOM      8  C   UNL     1      -4.432   1.307   2.410  0.00  0.00    +0.014 C 
ATOM      9  C   UNL     1      -4.960   2.698   2.095  0.00  0.00    +0.006 C 
ATOM     10  C   UNL     1      -4.511   3.150   0.706  0.00  0.00    +0.001 C 
ATOM     11  C   UNL     1      -4.979   2.124  -0.348  0.00  0.00    +0.010 C 
ATOM     12  C   UNL     1      -4.335   0.774   0.001  0.00  0.00    +0.035 C 
ATOM     13  C   UNL     1      -4.872   0.297   1.348  0.00  0.00    +0.083 C 
ENDROOT
BRANCH  13  14
ATOM     14  N   UNL     1      -4.322  -1.024   1.662  0.00  0.00    -0.314 N 
ATOM     15  C   UNL     1      -4.989  -1.853   2.489  0.00  0.00    +0.325 C 
ATOM     16  O   UNL     1      -6.045  -1.504   2.973  0.00  0.00    -0.280 OA
ATOM     17  H   UNL     1      -3.477  -1.302   1.274  0.00  0.00    +0.149 HD
ENDBRANCH  13  14
TORSDOF 1
