REMARK  Name = ZINC21871122
REMARK  8 active torsions:
REMARK  status: ('A' for Active; 'I' for Inactive)
REMARK    1  A    between atoms: C_1  and  C_2
REMARK    2  A    between atoms: C_2  and  C_3
REMARK    3  A    between atoms: C_2  and  C_4
REMARK    4  A    between atoms: C_2  and  C_5
REMARK    5  A    between atoms: C_8  and  N_11
REMARK    6  A    between atoms: C_12  and  C_14
REMARK    7  A    between atoms: C_14  and  N_15
REMARK    8  A    between atoms: C_16  and  C_18
REMARK                            x       y       z     vdW  Elec       q    Type
REMARK                         _______ _______ _______ _____ _____    ______ ____
ROOT
ATOM      1  C   UNL     1       2.425  -4.236  -0.258  0.00  0.00    +0.200 C 
ENDROOT
BRANCH   1   3
ATOM      2  N   UNL     1       1.237  -2.079  -0.020  0.00  0.00    -0.284 N 
ATOM      3  C   UNL     1       2.410  -2.734  -0.137  0.00  0.00    +0.234 C 
ATOM      4  O   UNL     1       3.452  -2.114  -0.144  0.00  0.00    -0.274 OA
ATOM      5  H   UNL     1       0.298  -2.645   0.073  0.00  0.00    +0.155 HD
BRANCH   2   9
ATOM      6  C   UNL     1       1.168   2.086  -0.017  0.00  0.00    -0.042 A 
ATOM      7  C   UNL     1       2.111   1.412  -0.771  0.00  0.00    +0.006 A 
ATOM      8  C   UNL     1       2.137   0.031  -0.774  0.00  0.00    +0.023 A 
ATOM      9  C   UNL     1       1.214  -0.680  -0.019  0.00  0.00    +0.033 A 
ATOM     10  C   UNL     1       0.268  -0.001   0.737  0.00  0.00    +0.023 A 
ATOM     11  C   UNL     1       0.248   1.380   0.736  0.00  0.00    +0.006 A 
BRANCH   6  13
ATOM     12  C   UNL     1       0.910   4.100  -1.440  0.00  0.00    +0.015 C 
ATOM     13  C   UNL     1       1.143   3.593  -0.015  0.00  0.00    -0.013 C 
ATOM     14  C   UNL     1       0.013   4.083   0.892  0.00  0.00    +0.015 C 
ATOM     15  C   UNL     1       2.481   4.125   0.503  0.00  0.00    +0.015 C 
ENDBRANCH   6  13
ENDBRANCH   2   9
ENDBRANCH   1   3
BRANCH   1  16
ATOM     16  N   UNL     1       3.809  -4.703  -0.371  0.00  0.00    -0.306 N 
ATOM     17  C   UNL     1       4.069  -6.020  -0.491  0.00  0.00    +0.220 C 
ATOM     18  O   UNL     1       3.157  -6.819  -0.505  0.00  0.00    -0.275 OA
ATOM     19  H   UNL     1       4.637  -3.978  -0.358  0.00  0.00    +0.149 HD
BRANCH  17  20
ATOM     20  C   UNL     1       5.493  -6.500  -0.607  0.00  0.00    +0.048 C 
ATOM     21  C   UNL     1       6.140  -5.881  -1.848  0.00  0.00    +0.019 C 
ATOM     22  C   UNL     1       7.585  -6.368  -1.966  0.00  0.00    -0.009 C 
ATOM     23  C   UNL     1       7.601  -7.893  -2.089  0.00  0.00    +0.007 C 
ATOM     24  C   UNL     1       6.954  -8.512  -0.848  0.00  0.00    -0.009 C 
ATOM     25  C   UNL     1       5.508  -8.025  -0.730  0.00  0.00    +0.019 C 
ATOM     26  C   UNL     1       7.737  -8.093   0.398  0.00  0.00    +0.007 C 
ATOM     27  C   UNL     1       7.721  -6.568   0.521  0.00  0.00    -0.009 C 
ATOM     28  C   UNL     1       8.368  -5.949  -0.720  0.00  0.00    +0.007 C 
ATOM     29  C   UNL     1       6.275  -6.080   0.639  0.00  0.00    +0.019 C 
ENDBRANCH  17  20
ENDBRANCH   1  16
TORSDOF 5
