REMARK  Name = ZINC11592366
REMARK  8 active torsions:
REMARK  status: ('A' for Active; 'I' for Inactive)
REMARK    1  A    between atoms: C_1  and  C_2
REMARK    2  A    between atoms: C_2  and  C_4
REMARK    3  A    between atoms: C_2  and  N_11
REMARK    4  A    between atoms: C_12  and  C_14
REMARK    5  A    between atoms: C_14  and  S_15
REMARK    6  A    between atoms: S_15  and  C_16
REMARK    7  A    between atoms: C_19  and  C_22
REMARK    8  A    between atoms: N_20  and  N_21
REMARK                            x       y       z     vdW  Elec       q    Type
REMARK                         _______ _______ _______ _____ _____    ______ ____
ROOT
ATOM      1  C   UNL     1      -1.331   2.079   0.020  0.00  0.00    +0.173 C 
ENDROOT
BRANCH   1   3
ATOM      2  N   UNL     1       0.002  -0.004   0.002  0.00  0.00    -0.308 N 
ATOM      3  C   UNL     1      -0.016   1.344   0.009  0.00  0.00    +0.224 C 
ATOM      4  O   UNL     1       1.026   1.964   0.003  0.00  0.00    -0.275 OA
ATOM      5  H   UNL     1      -0.831  -0.500   0.007  0.00  0.00    +0.149 HD
BRANCH   2   7
ATOM      6  C   UNL     1       1.773  -0.851  -1.456  0.00  0.00    +0.033 C 
ATOM      7  C   UNL     1       1.281  -0.719  -0.014  0.00  0.00    +0.100 C 
BRANCH   7   8
ATOM      8  C   UNL     1       1.096  -2.091   0.581  0.00  0.00    -0.027 A 
ATOM      9  C   UNL     1      -0.045  -2.819   0.299  0.00  0.00    +0.006 A 
ATOM     10  C   UNL     1      -0.213  -4.080   0.841  0.00  0.00    +0.015 A 
ATOM     11  C   UNL     1       0.757  -4.609   1.673  0.00  0.00    +0.018 A 
ATOM     12  C   UNL     1       1.897  -3.879   1.959  0.00  0.00    +0.015 A 
ATOM     13  C   UNL     1       2.066  -2.620   1.412  0.00  0.00    +0.006 A 
ATOM     14 BR   UNL     1       0.525  -6.330   2.421  0.00  0.00    -0.050 Br
ENDBRANCH   7   8
ENDBRANCH   2   7
ENDBRANCH   1   3
BRANCH   1  15
ATOM     15  S   UNL     1      -1.025   3.863   0.028  0.00  0.00    -0.075 S 
BRANCH  15  16
ATOM     16  C   UNL     1      -2.683   4.458   0.039  0.00  0.00    +0.209 A 
ATOM     17  N   UNL     1      -3.774   3.726   0.041  0.00  0.00    -0.120 NA
ATOM     18  N   UNL     1      -4.814   4.480   0.050  0.00  0.00    -0.123 NA
ATOM     19  C   UNL     1      -4.451   5.745   0.055  0.00  0.00    +0.217 A 
ATOM     20  N   UNL     1      -3.074   5.768   0.053  0.00  0.00    -0.221 N 
BRANCH  19  21
ATOM     21  C   UNL     1      -5.347   6.912   0.066  0.00  0.00    +0.173 A 
ATOM     22  C   UNL     1      -6.679   6.896   0.352  0.00  0.00    +0.053 A 
ATOM     23  C   UNL     1      -7.132   8.225   0.246  0.00  0.00    +0.042 A 
ATOM     24  C   UNL     1      -6.070   8.979  -0.103  0.00  0.00    +0.196 A 
ATOM     25  O   UNL     1      -4.994   8.182  -0.212  0.00  0.00    -0.460 OA
ENDBRANCH  19  21
BRANCH  20  26
ATOM     26  N   UNL     1      -2.267   6.870   0.062  0.00  0.00    -0.294 N 
ATOM     27  H   UNL     1      -2.057   7.172  -0.878  0.00  0.00    +0.163 HD
ATOM     28  H   UNL     1      -2.682   7.618   0.597  0.00  0.00    +0.163 HD
ENDBRANCH  20  26
ENDBRANCH  15  16
ENDBRANCH   1  15
TORSDOF 7
