REMARK  Name = ZINC08617313
REMARK  6 active torsions:
REMARK  status: ('A' for Active; 'I' for Inactive)
REMARK    1  A    between atoms: C_1  and  O_2
REMARK    2  A    between atoms: O_2  and  C_3
REMARK    3  A    between atoms: C_8  and  C_9
REMARK    4  A    between atoms: C_15  and  S_17
REMARK    5  A    between atoms: S_17  and  C_18
REMARK    6  A    between atoms: C_18  and  C_19
REMARK                            x       y       z     vdW  Elec       q    Type
REMARK                         _______ _______ _______ _____ _____    ______ ____
ROOT
ATOM      1  C   UNL     1      -0.013  -2.830  -0.013  0.00  0.00    +0.253 C 
ATOM      2  O   UNL     1       1.066  -2.270  -0.019  0.00  0.00    -0.270 OA
ATOM      3  N   UNL     1      -0.074  -4.177  -0.019  0.00  0.00    -0.259 N 
ATOM      4  C   UNL     1       1.099  -4.926  -0.034  0.00  0.00    +0.189 A 
ATOM      5  N   UNL     1       2.362  -4.529  -0.037  0.00  0.00    -0.125 NA
ATOM      6  N   UNL     1       3.320  -5.349  -0.051  0.00  0.00    -0.133 NA
ATOM      7  C   UNL     1       3.121  -6.659  -0.064  0.00  0.00    +0.160 A 
ATOM      8  S   UNL     1       1.331  -6.702  -0.045  0.00  0.00    -0.024 S 
ATOM      9  H   UNL     1      -0.934  -4.624  -0.014  0.00  0.00    +0.157 HD
ENDROOT
BRANCH   1  15
ATOM     10  C   UNL     1      -1.198  -0.636   0.010  0.00  0.00    +0.132 A 
ATOM     11  C   UNL     1      -2.373   0.100   0.019  0.00  0.00    +0.046 A 
ATOM     12  C   UNL     1      -3.594  -0.545   0.027  0.00  0.00    +0.004 A 
ATOM     13  C   UNL     1      -3.656  -1.929   0.026  0.00  0.00    +0.001 A 
ATOM     14  C   UNL     1      -2.498  -2.676   0.017  0.00  0.00    +0.017 A 
ATOM     15  C   UNL     1      -1.256  -2.037   0.003  0.00  0.00    +0.079 A 
BRANCH  10  17
ATOM     16  C   UNL     1      -0.017   1.425   0.010  0.00  0.00    +0.277 C 
ATOM     17  O   UNL     1       0.002  -0.004   0.002  0.00  0.00    -0.494 OA
ENDBRANCH  10  17
ENDBRANCH   1  15
BRANCH   7  18
ATOM     18  S   UNL     1       4.285  -7.982  -0.085  0.00  0.00    -0.091 S 
BRANCH  18  19
ATOM     19  C   UNL     1       5.896  -7.149  -0.086  0.00  0.00    +0.129 C 
BRANCH  19  20
ATOM     20  C   UNL     1       6.995  -8.180  -0.104  0.00  0.00    +0.030 A 
ATOM     21  C   UNL     1       7.674  -8.384  -1.252  0.00  0.00    +0.073 A 
ATOM     22  C   UNL     1       8.711  -9.345  -1.301  0.00  0.00    +0.190 A 
ATOM     23  O   UNL     1       9.337  -9.545  -2.329  0.00  0.00    -0.287 OA
ATOM     24  C   UNL     1       9.010 -10.096  -0.069  0.00  0.00    +0.045 A 
ATOM     25  C   UNL     1      10.017 -11.060  -0.030  0.00  0.00    +0.014 A 
ATOM     26  C   UNL     1      10.264 -11.735   1.133  0.00  0.00    +0.001 A 
ATOM     27  C   UNL     1       9.521 -11.467   2.274  0.00  0.00    +0.002 A 
ATOM     28  C   UNL     1       8.522 -10.519   2.257  0.00  0.00    +0.026 A 
ATOM     29  C   UNL     1       8.255  -9.820   1.083  0.00  0.00    +0.050 A 
ATOM     30  N   UNL     1       7.267  -8.862   1.034  0.00  0.00    -0.357 N 
ATOM     31  H   UNL     1       6.751  -8.673   1.834  0.00  0.00    +0.166 HD
ENDBRANCH  19  20
ENDBRANCH  18  19
ENDBRANCH   7  18
TORSDOF 5
