REMARK  Name = ZINC08056037
REMARK  6 active torsions:
REMARK  status: ('A' for Active; 'I' for Inactive)
REMARK    1  A    between atoms: C_1  and  C_2
REMARK    2  A    between atoms: C_6  and  N_8
REMARK    3  A    between atoms: N_8  and  C_9
REMARK    4  A    between atoms: C_12  and  S_18
REMARK    5  A    between atoms: C_14  and  N_15
REMARK    6  A    between atoms: S_18  and  C_21
REMARK                            x       y       z     vdW  Elec       q    Type
REMARK                         _______ _______ _______ _____ _____    ______ ____
ROOT
ATOM      1  C   UNL     1       1.177   5.868  -0.040  0.00  0.00    +0.062 A 
ATOM      2  C   UNL     1       2.337   5.107  -0.123  0.00  0.00    +0.027 A 
ATOM      3  C   UNL     1       3.570   5.729  -0.135  0.00  0.00    +0.029 A 
ATOM      4  C   UNL     1       3.651   7.108  -0.065  0.00  0.00    +0.090 A 
ATOM      5  C   UNL     1       2.499   7.868   0.019  0.00  0.00    +0.061 A 
ATOM      6  C   UNL     1       1.262   7.253   0.025  0.00  0.00    +0.149 A 
ENDROOT
BRANCH   4   7
ATOM      7  S   UNL     1       5.226   7.898  -0.081  0.00  0.00    -0.006 S 
ATOM      8  O   UNL     1       5.021   9.130   0.597  0.00  0.00    -0.170 OA
ATOM      9  O   UNL     1       6.124   6.926   0.439  0.00  0.00    -0.170 OA
ATOM     10  C   UNL     1       5.578   8.200  -1.834  0.00  0.00    +0.200 C 
ENDBRANCH   4   7
BRANCH   6  11
ATOM     11  N   UNL     1       0.029   8.068   0.108  0.00  0.00    +0.058 N 
ATOM     12  O   UNL     1       0.097   9.283   0.048  0.00  0.00    -0.126 OA
ATOM     13  O   UNL     1      -1.053   7.524   0.236  0.00  0.00    -0.126 OA
ENDBRANCH   6  11
BRANCH   1  14
ATOM     14  N   UNL     1      -0.071   5.242  -0.027  0.00  0.00    -0.313 N 
ATOM     15  H   UNL     1      -0.393   4.817   0.783  0.00  0.00    +0.152 HD
BRANCH  14  21
ATOM     16  C   UNL     1      -4.141   3.769  -2.357  0.00  0.00    +0.044 C 
ATOM     17  C   UNL     1      -2.835   4.520  -2.341  0.00  0.00    -0.049 A 
ATOM     18  C   UNL     1      -2.412   5.196  -3.471  0.00  0.00    +0.003 A 
ATOM     19  C   UNL     1      -1.217   5.892  -3.458  0.00  0.00    +0.002 A 
ATOM     20  C   UNL     1      -0.439   5.909  -2.318  0.00  0.00    +0.023 A 
ATOM     21  C   UNL     1      -0.857   5.227  -1.183  0.00  0.00    +0.032 A 
ATOM     22  C   UNL     1      -2.058   4.529  -1.199  0.00  0.00    +0.026 A 
ENDBRANCH  14  21
ENDBRANCH   1  14
TORSDOF 4
