REMARK  Name = ZINC00335937
REMARK  4 active torsions:
REMARK  status: ('A' for Active; 'I' for Inactive)
REMARK    1  A    between atoms: C_1  and  C_2
REMARK    2  A    between atoms: C_5  and  C_7
REMARK    3  A    between atoms: C_19  and  S_22
REMARK    4  A    between atoms: S_22  and  C_23
REMARK                            x       y       z     vdW  Elec       q    Type
REMARK                         _______ _______ _______ _____ _____    ______ ____
ROOT
ATOM      1  C   UNL     1       0.408   5.912   1.281  0.00  0.00    +0.329 C 
ATOM      2  N   UNL     1      -0.070   5.245   0.074  0.00  0.00    -0.303 N 
ATOM      3  C   UNL     1      -0.075   3.847   0.034  0.00  0.00    +0.040 A 
ATOM      4  C   UNL     1      -1.256   3.130   0.035  0.00  0.00    +0.024 A 
ATOM      5  C   UNL     1      -1.223   1.747   0.017  0.00  0.00    +0.002 A 
ATOM      6  C   UNL     1      -0.013   1.076   0.008  0.00  0.00    +0.001 A 
ATOM      7  C   UNL     1       1.177   1.778   0.000  0.00  0.00    +0.012 A 
ATOM      8  C   UNL     1       1.158   3.168   0.008  0.00  0.00    +0.028 A 
ATOM      9  C   UNL     1       2.406   3.958  -0.024  0.00  0.00    +0.156 A 
ATOM     10  C   UNL     1       2.576   5.031   0.880  0.00  0.00    +0.248 A 
ATOM     11  N   UNL     1       3.693   5.735   0.828  0.00  0.00    -0.184 NA
ATOM     12  C   UNL     1       4.625   5.411  -0.064  0.00  0.00    +0.212 A 
ATOM     13  N   UNL     1       4.449   4.394  -0.899  0.00  0.00    -0.122 NA
ATOM     14  N   UNL     1       3.374   3.685  -0.885  0.00  0.00    -0.141 NA
ATOM     15  O   UNL     1       1.602   5.317   1.776  0.00  0.00    -0.445 OA
ATOM     16  H   UNL     1      -0.379   5.761  -0.687  0.00  0.00    +0.150 HD
ENDROOT
BRANCH   1  21
ATOM     17  C   UNL     1      -3.488   4.237   4.010  0.00  0.00    +0.086 C 
ATOM     18  C   UNL     1      -2.353   5.103   3.529  0.00  0.00    +0.102 A 
ATOM     19  C   UNL     1      -1.961   6.265   4.082  0.00  0.00    +0.045 A 
ATOM     20  C   UNL     1      -0.865   6.732   3.320  0.00  0.00    +0.050 A 
ATOM     21  C   UNL     1      -0.658   5.831   2.342  0.00  0.00    +0.164 A 
ATOM     22  O   UNL     1      -1.560   4.845   2.476  0.00  0.00    -0.459 OA
ENDBRANCH   1  21
BRANCH  12  23
ATOM     23  S   UNL     1       6.117   6.346  -0.138  0.00  0.00    -0.088 S 
ATOM     24  C   UNL     1       6.965   5.479  -1.482  0.00  0.00    +0.093 C 
ENDBRANCH  12  23
TORSDOF 2
