REMARK  Name = ZINC64793392
REMARK  8 active torsions:
REMARK  status: ('A' for Active; 'I' for Inactive)
REMARK    1  A    between atoms: C_1  and  C_2
REMARK    2  A    between atoms: C_5  and  C_8
REMARK    3  A    between atoms: C_11  and  C_29
REMARK    4  A    between atoms: N_12  and  C_18
REMARK    5  A    between atoms: C_18  and  C_19
REMARK    6  A    between atoms: N_21  and  C_22
REMARK    7  A    between atoms: C_25  and  O_28
REMARK    8  A    between atoms: C_32  and  C_35
REMARK                            x       y       z     vdW  Elec       q    Type
REMARK                         _______ _______ _______ _____ _____    ______ ____
ROOT
ATOM      1  C   UNL     1       0.019  -4.399  -0.068  0.00  0.00    +0.167 C 
ATOM      2  C   UNL     1      -1.190  -4.906   0.671  0.00  0.00    +0.028 C 
ATOM      3  C   UNL     1      -1.141  -5.396   1.901  0.00  0.00    +0.043 C 
ATOM      4  N   UNL     1       0.060  -5.489   2.618  0.00  0.00    -0.259 N 
ATOM      5  C   UNL     1       1.234  -5.295   1.907  0.00  0.00    +0.243 A 
ATOM      6  N   UNL     1       1.228  -4.790   0.646  0.00  0.00    -0.202 N 
ATOM      7  N   UNL     1       2.566  -4.747   0.257  0.00  0.00    -0.042 NA
ATOM      8  N   UNL     1       3.255  -5.197   1.256  0.00  0.00    -0.021 NA
ATOM      9  N   UNL     1       2.476  -5.519   2.229  0.00  0.00    -0.092 NA
ENDROOT
BRANCH   1  14
ATOM     10  C   UNL     1      -0.227   1.363  -0.432  0.00  0.00    +0.044 C 
ATOM     11  C   UNL     1      -0.163  -0.140  -0.337  0.00  0.00    -0.050 A 
ATOM     12  C   UNL     1      -0.130  -0.904  -1.488  0.00  0.00    +0.004 A 
ATOM     13  C   UNL     1      -0.071  -2.283  -1.401  0.00  0.00    +0.006 A 
ATOM     14  C   UNL     1      -0.044  -2.897  -0.163  0.00  0.00    -0.019 A 
ATOM     15  C   UNL     1      -0.076  -2.132   0.988  0.00  0.00    +0.006 A 
ATOM     16  C   UNL     1      -0.131  -0.753   0.901  0.00  0.00    +0.004 A 
ENDBRANCH   1  14
BRANCH   3  17
ATOM     17  C   UNL     1      -2.394  -5.861   2.539  0.00  0.00    -0.004 A 
ATOM     18  C   UNL     1      -3.515  -5.031   2.566  0.00  0.00    +0.010 A 
ATOM     19  C   UNL     1      -4.680  -5.470   3.162  0.00  0.00    +0.004 A 
ATOM     20  C   UNL     1      -4.737  -6.728   3.732  0.00  0.00    -0.050 A 
ATOM     21  C   UNL     1      -3.629  -7.555   3.709  0.00  0.00    +0.004 A 
ATOM     22  C   UNL     1      -2.460  -7.131   3.111  0.00  0.00    +0.010 A 
ATOM     23  C   UNL     1      -6.013  -7.200   4.382  0.00  0.00    +0.044 C 
ENDBRANCH   3  17
BRANCH   4  24
ATOM     24  C   UNL     1       0.074  -5.778   4.054  0.00  0.00    +0.209 C 
BRANCH  24  25
ATOM     25  C   UNL     1       0.294  -7.254   4.267  0.00  0.00    +0.235 C 
ATOM     26  O   UNL     1       0.535  -7.974   3.321  0.00  0.00    -0.274 OA
ATOM     27  N   UNL     1       0.223  -7.773   5.509  0.00  0.00    -0.284 N 
ATOM     28  H   UNL     1       0.098  -7.189   6.272  0.00  0.00    +0.155 HD
BRANCH  27  29
ATOM     29  C   UNL     1       0.328  -9.158   5.696  0.00  0.00    +0.034 A 
ATOM     30  C   UNL     1       1.175  -9.905   4.889  0.00  0.00    +0.027 A 
ATOM     31  C   UNL     1       1.278 -11.270   5.074  0.00  0.00    +0.047 A 
ATOM     32  C   UNL     1       0.536 -11.894   6.066  0.00  0.00    +0.117 A 
ATOM     33  C   UNL     1      -0.311 -11.147   6.872  0.00  0.00    +0.047 A 
ATOM     34  C   UNL     1      -0.411  -9.782   6.692  0.00  0.00    +0.027 A 
BRANCH  32  35
ATOM     35  O   UNL     1       0.638 -13.237   6.248  0.00  0.00    -0.507 OA
ATOM     36  H   UNL     1       1.327 -13.498   6.874  0.00  0.00    +0.292 HD
ENDBRANCH  32  35
ENDBRANCH  27  29
ENDBRANCH  24  25
ENDBRANCH   4  24
TORSDOF 6
