REMARK  Name = ZINC08959144
REMARK  9 active torsions:
REMARK  status: ('A' for Active; 'I' for Inactive)
REMARK    1  A    between atoms: C_1  and  C_2
REMARK    2  A    between atoms: C_2  and  C_3
REMARK    3  A    between atoms: C_3  and  C_4
REMARK    4  A    between atoms: C_4  and  O_5
REMARK    5  A    between atoms: O_5  and  C_6
REMARK    6  A    between atoms: C_9  and  C_12
REMARK    7  A    between atoms: N_14  and  C_15
REMARK    8  A    between atoms: C_23  and  C_27
REMARK    9  A    between atoms: C_23  and  C_28
REMARK                            x       y       z     vdW  Elec       q    Type
REMARK                         _______ _______ _______ _____ _____    ______ ____
ROOT
ATOM      1  C   UNL     1      -0.243   1.858  -0.340  0.00  0.00    +0.248 C 
ATOM      2  O   UNL     1      -1.351   2.322  -0.532  0.00  0.00    -0.270 OA
ATOM      3  N   UNL     1      -0.101   0.546  -0.067  0.00  0.00    -0.281 N 
ATOM      4  H   UNL     1       0.785   0.160   0.009  0.00  0.00    +0.155 HD
ENDROOT
BRANCH   3   5
ATOM      5  C   UNL     1      -1.233  -0.260   0.107  0.00  0.00    +0.037 A 
ATOM      6  C   UNL     1      -1.204  -1.590  -0.290  0.00  0.00    +0.025 A 
ATOM      7  C   UNL     1      -2.317  -2.390  -0.113  0.00  0.00    +0.029 A 
ATOM      8  C   UNL     1      -3.467  -1.860   0.451  0.00  0.00    +0.076 A 
ATOM      9  C   UNL     1      -3.502  -0.523   0.842  0.00  0.00    +0.143 A 
ATOM     10  C   UNL     1      -2.384   0.275   0.672  0.00  0.00    +0.070 A 
ATOM     11  O   UNL     1      -4.638  -0.009   1.384  0.00  0.00    -0.489 OA
ATOM     12  C   UNL     1      -5.717   0.265   0.494  0.00  0.00    +0.244 C 
ATOM     13  C   UNL     1      -5.901  -0.885  -0.493  0.00  0.00    +0.076 C 
ATOM     14  C   UNL     1      -5.809  -2.205   0.228  0.00  0.00    +0.226 C 
ATOM     15  O   UNL     1      -6.811  -2.855   0.439  0.00  0.00    -0.275 OA
ATOM     16  N   UNL     1      -4.604  -2.661   0.637  0.00  0.00    -0.282 N 
ATOM     17  C   UNL     1      -4.811  -0.814  -1.564  0.00  0.00    +0.024 C 
ATOM     18  C   UNL     1      -7.274  -0.765  -1.158  0.00  0.00    +0.024 C 
ATOM     19  H   UNL     1      -4.526  -3.533   1.055  0.00  0.00    +0.155 HD
ENDBRANCH   3   5
BRANCH   1  23
ATOM     20  C   UNL     1       3.177   4.367  -0.549  0.00  0.00    +0.121 A 
ATOM     21  C   UNL     1       1.911   4.900  -0.763  0.00  0.00    +0.046 A 
ATOM     22  C   UNL     1       0.800   4.090  -0.696  0.00  0.00    +0.016 A 
ATOM     23  C   UNL     1       0.945   2.730  -0.413  0.00  0.00    +0.037 A 
ATOM     24  C   UNL     1       2.219   2.198  -0.193  0.00  0.00    +0.016 A 
ATOM     25  C   UNL     1       3.325   3.014  -0.267  0.00  0.00    +0.046 A 
BRANCH  20  26
ATOM     26  O   UNL     1       4.270   5.168  -0.615  0.00  0.00    -0.492 OA
BRANCH  26  27
ATOM     27  C   UNL     1       5.539   4.554  -0.385  0.00  0.00    +0.229 C 
BRANCH  27  28
ATOM     28  C   UNL     1       6.643   5.607  -0.500  0.00  0.00    +0.041 C 
BRANCH  28  30
ATOM     29  C   UNL     1       9.107   6.003  -0.369  0.00  0.00    +0.004 C 
ATOM     30  C   UNL     1       8.003   4.950  -0.254  0.00  0.00    -0.000 C 
ENDBRANCH  28  30
ENDBRANCH  27  28
ENDBRANCH  26  27
ENDBRANCH  20  26
ENDBRANCH   1  23
TORSDOF 6
