REMARK  Name = ZINC67292478
REMARK  5 active torsions:
REMARK  status: ('A' for Active; 'I' for Inactive)
REMARK    1  A    between atoms: C_3  and  N_11
REMARK    2  A    between atoms: C_6  and  C_7
REMARK    3  A    between atoms: C_13  and  C_23
REMARK    4  A    between atoms: N_25  and  C_26
REMARK    5  A    between atoms: C_26  and  C_27
REMARK                            x       y       z     vdW  Elec       q    Type
REMARK                         _______ _______ _______ _____ _____    ______ ____
ROOT
ATOM      1  N   UNL     1       3.560   2.111  -0.018  0.00  0.00    -0.325 N 
ATOM      2  C   UNL     1       4.544   1.747   0.775  0.00  0.00    +0.212 A 
ATOM      3  C   UNL     1       5.860   2.413   0.711  0.00  0.00    +0.097 A 
ATOM      4  C   UNL     1       6.627   2.411   1.868  0.00  0.00    +0.030 A 
ATOM      5  C   UNL     1       6.063   1.750   3.048  0.00  0.00    +0.019 A 
ATOM      6  C   UNL     1       6.638   1.930   4.312  0.00  0.00    +0.026 A 
ATOM      7  C   UNL     1       6.086   1.299   5.406  0.00  0.00    +0.019 A 
ATOM      8  C   UNL     1       4.967   0.491   5.260  0.00  0.00    +0.019 A 
ATOM      9  C   UNL     1       4.391   0.305   4.019  0.00  0.00    +0.048 A 
ATOM     10  C   UNL     1       4.931   0.927   2.904  0.00  0.00    +0.137 A 
ATOM     11  O   UNL     1       4.378   0.751   1.683  0.00  0.00    -0.439 OA
ATOM     12 BR   UNL     1       6.858   1.536   7.115  0.00  0.00    -0.050 Br
ATOM     13  H   UNL     1       3.665   2.881  -0.599  0.00  0.00    +0.169 HD
ENDROOT
BRANCH   1  16
ATOM     14  C   UNL     1      -0.013   1.358  -0.013  0.00  0.00    +0.014 A 
ATOM     15  C   UNL     1       1.164   2.077  -0.006  0.00  0.00    +0.026 A 
ATOM     16  C   UNL     1       2.389   1.405  -0.025  0.00  0.00    +0.042 A 
ATOM     17  C   UNL     1       2.412   0.008  -0.050  0.00  0.00    +0.026 A 
ATOM     18  C   UNL     1       1.226  -0.697  -0.057  0.00  0.00    +0.014 A 
ATOM     19  C   UNL     1       0.017  -0.025  -0.038  0.00  0.00    +0.055 A 
BRANCH  19  20
ATOM     20  C   UNL     1      -1.273  -0.803  -0.045  0.00  0.00    +0.417 C 
ATOM     21  F   UNL     1      -1.680  -1.020  -1.366  0.00  0.00    -0.166 F 
ATOM     22  F   UNL     1      -1.079  -2.034   0.591  0.00  0.00    -0.166 F 
ATOM     23  F   UNL     1      -2.259  -0.078   0.633  0.00  0.00    -0.166 F 
ENDBRANCH  19  20
ENDBRANCH   1  16
BRANCH   3  24
ATOM     24  C   UNL     1       6.338   3.051  -0.527  0.00  0.00    +0.249 C 
ATOM     25  O   UNL     1       5.610   3.114  -1.500  0.00  0.00    -0.270 OA
ATOM     26  N   UNL     1       7.583   3.565  -0.583  0.00  0.00    -0.309 N 
ATOM     27  H   UNL     1       8.189   3.450   0.165  0.00  0.00    +0.149 HD
BRANCH  26  28
ATOM     28  C   UNL     1       8.020   4.298  -1.774  0.00  0.00    +0.136 C 
BRANCH  28  29
ATOM     29  C   UNL     1       9.462   4.772  -1.580  0.00  0.00    +0.135 C 
ATOM     30  C   UNL     1       9.891   5.647  -2.777  0.00  0.00    +0.035 C 
ATOM     31  C   UNL     1      11.361   5.201  -3.002  0.00  0.00    +0.031 C 
ATOM     32  C   UNL     1      11.275   3.701  -2.623  0.00  0.00    +0.160 C 
ATOM     33  O   UNL     1      10.342   3.643  -1.530  0.00  0.00    -0.375 OA
ENDBRANCH  28  29
ENDBRANCH  26  28
ENDBRANCH   3  24
TORSDOF 5
