REMARK  Name = ZINC39984145
REMARK  5 active torsions:
REMARK  status: ('A' for Active; 'I' for Inactive)
REMARK    1  A    between atoms: C_1  and  C_2
REMARK    2  A    between atoms: C_2  and  C_3
REMARK    3  A    between atoms: C_8  and  C_10
REMARK    4  A    between atoms: N_13  and  C_22
REMARK    5  A    between atoms: C_14  and  C_16
REMARK                            x       y       z     vdW  Elec       q    Type
REMARK                         _______ _______ _______ _____ _____    ______ ____
ROOT
ATOM      1  C   UNL     1       3.994  -2.604   6.251  0.00  0.00    +0.149 C 
ATOM      2  N   UNL     1       5.261  -2.723   5.995  0.00  0.00    -0.166 NA
ATOM      3  N   UNL     1       5.976  -3.186   7.099  0.00  0.00    -0.184 N 
ATOM      4  N   UNL     1       5.107  -3.392   8.180  0.00  0.00    -0.225 N 
ATOM      5  C   UNL     1       3.770  -3.017   7.688  0.00  0.00    +0.181 C 
ATOM      6  H   UNL     1       6.933  -3.342   7.116  0.00  0.00    +0.193 HD
ENDROOT
BRANCH   1  12
ATOM      7  C   UNL     1       0.731  -0.503   1.223  0.00  0.00    +0.103 A 
ATOM      8  N   UNL     1       0.270  -0.804   2.421  0.00  0.00    -0.145 NA
ATOM      9  N   UNL     1       1.022  -1.215   3.346  0.00  0.00    -0.126 NA
ATOM     10  C   UNL     1       2.327  -1.371   3.170  0.00  0.00    +0.188 A 
ATOM     11  N   UNL     1       3.303  -1.806   4.057  0.00  0.00    -0.258 N 
ATOM     12  C   UNL     1       2.966  -2.146   5.317  0.00  0.00    +0.268 C 
ATOM     13  O   UNL     1       1.806  -2.071   5.677  0.00  0.00    -0.268 OA
ATOM     14  S   UNL     1       2.469  -0.865   1.458  0.00  0.00    -0.035 S 
ATOM     15  H   UNL     1       4.228  -1.866   3.770  0.00  0.00    +0.157 HD
BRANCH   7  17
ATOM     16  C   UNL     1      -0.019   1.526   0.010  0.00  0.00    +0.011 C 
ATOM     17  C   UNL     1       0.002  -0.004   0.002  0.00  0.00    +0.061 C 
ENDBRANCH   7  17
ENDBRANCH   1  12
BRANCH   5  18
ATOM     18  C   UNL     1       2.839  -4.200   7.755  0.00  0.00    -0.019 A 
ATOM     19  C   UNL     1       3.315  -5.471   7.489  0.00  0.00    +0.006 A 
ATOM     20  C   UNL     1       2.460  -6.556   7.551  0.00  0.00    +0.000 A 
ATOM     21  C   UNL     1       1.131  -6.370   7.880  0.00  0.00    +0.000 A 
ATOM     22  C   UNL     1       0.655  -5.100   8.147  0.00  0.00    +0.000 A 
ATOM     23  C   UNL     1       1.510  -4.016   8.090  0.00  0.00    +0.006 A 
ENDBRANCH   5  18
BRANCH   4  24
ATOM     24  C   UNL     1       5.440  -3.849   9.457  0.00  0.00    +0.050 A 
ATOM     25  C   UNL     1       4.452  -4.006  10.421  0.00  0.00    +0.025 A 
ATOM     26  C   UNL     1       4.785  -4.459  11.682  0.00  0.00    +0.002 A 
ATOM     27  C   UNL     1       6.100  -4.757  11.986  0.00  0.00    +0.000 A 
ATOM     28  C   UNL     1       7.087  -4.602  11.030  0.00  0.00    +0.002 A 
ATOM     29  C   UNL     1       6.760  -4.155   9.765  0.00  0.00    +0.025 A 
ENDBRANCH   4  24
TORSDOF 4
