REMARK  Name = ZINC04921054
REMARK  4 active torsions:
REMARK  status: ('A' for Active; 'I' for Inactive)
REMARK    1  A    between atoms: C_6  and  N_7
REMARK    2  A    between atoms: N_7  and  N_8
REMARK    3  A    between atoms: C_9  and  C_10
REMARK    4  A    between atoms: C_13  and  O_17
REMARK                            x       y       z     vdW  Elec       q    Type
REMARK                         _______ _______ _______ _____ _____    ______ ____
ROOT
ATOM      1  N   UNL     1       2.368   4.196   0.002  0.00  0.00    -0.190 NA
ATOM      2  C   UNL     1       2.354   5.494   0.008  0.00  0.00    +0.138 C 
ENDROOT
BRANCH   2   3
ATOM      3  C   UNL     1       3.622   6.246   0.000  0.00  0.00    -0.003 A 
ATOM      4  C   UNL     1       4.841   5.562  -0.009  0.00  0.00    +0.028 A 
ATOM      5  C   UNL     1       6.025   6.269  -0.021  0.00  0.00    +0.061 A 
ATOM      6  C   UNL     1       6.007   7.659  -0.014  0.00  0.00    +0.145 A 
ATOM      7  C   UNL     1       4.798   8.342   0.000  0.00  0.00    +0.061 A 
ATOM      8  C   UNL     1       3.609   7.643   0.007  0.00  0.00    +0.028 A 
ATOM      9 BR   UNL     1       4.782  10.233   0.011  0.00  0.00    -0.046 Br
ATOM     10 BR   UNL     1       7.676   5.346  -0.040  0.00  0.00    -0.046 Br
BRANCH   6  11
ATOM     11  O   UNL     1       7.177   8.351  -0.021  0.00  0.00    -0.505 OA
ATOM     12  H   UNL     1       7.523   8.547   0.860  0.00  0.00    +0.292 HD
ENDBRANCH   6  11
ENDBRANCH   2   3
BRANCH   1  13
ATOM     13  N   UNL     1       1.163   3.482   0.009  0.00  0.00    -0.238 N 
ATOM     14  H   UNL     1       0.317   3.958   0.019  0.00  0.00    +0.174 HD
BRANCH  13  20
ATOM     15  C   UNL     1      -0.017   1.377   0.010  0.00  0.00    +0.026 A 
ATOM     16  C   UNL     1       0.002  -0.004   0.002  0.00  0.00    +0.022 A 
ATOM     17  C   UNL     1       1.209  -0.681  -0.013  0.00  0.00    +0.041 A 
ATOM     18  C   UNL     1       2.401   0.023  -0.021  0.00  0.00    +0.022 A 
ATOM     19  C   UNL     1       2.389   1.403  -0.013  0.00  0.00    +0.026 A 
ATOM     20  C   UNL     1       1.178   2.086   0.002  0.00  0.00    +0.048 A 
ATOM     21 CL   UNL     1       1.228  -2.417  -0.022  0.00  0.00    -0.084 Cl
ENDBRANCH  13  20
ENDBRANCH   1  13
TORSDOF 4
