REMARK  Name = ZINC09165660
REMARK  8 active torsions:
REMARK  status: ('A' for Active; 'I' for Inactive)
REMARK    1  A    between atoms: C_1  and  C_2
REMARK    2  A    between atoms: C_5  and  N_27
REMARK    3  A    between atoms: C_7  and  S_8
REMARK    4  A    between atoms: S_8  and  N_11
REMARK    5  A    between atoms: N_11  and  C_12
REMARK    6  A    between atoms: C_20  and  C_25
REMARK    7  A    between atoms: C_20  and  C_26
REMARK    8  A    between atoms: N_23  and  C_24
REMARK                            x       y       z     vdW  Elec       q    Type
REMARK                         _______ _______ _______ _____ _____    ______ ____
ROOT
ATOM      1  N   UNL     1      -5.732   1.948   2.386  0.00  0.00    -0.216 N 
ATOM      2  H   UNL     1      -5.758   1.356   3.153  0.00  0.00    +0.174 HD
ENDROOT
BRANCH   1   3
ATOM      3  C   UNL     1      -6.394   3.180   2.430  0.00  0.00    +0.052 A 
ATOM      4  C   UNL     1      -7.173   3.587   1.354  0.00  0.00    +0.026 A 
ATOM      5  C   UNL     1      -7.829   4.803   1.395  0.00  0.00    +0.029 A 
ATOM      6  C   UNL     1      -7.710   5.616   2.510  0.00  0.00    +0.078 A 
ATOM      7  C   UNL     1      -6.927   5.211   3.591  0.00  0.00    +0.144 A 
ATOM      8  C   UNL     1      -6.276   3.990   3.551  0.00  0.00    +0.072 A 
ATOM      9  O   UNL     1      -6.808   6.020   4.677  0.00  0.00    -0.489 OA
ATOM     10  C   UNL     1      -5.968   7.164   4.549  0.00  0.00    +0.244 C 
ATOM     11  C   UNL     1      -6.215   7.862   3.213  0.00  0.00    +0.076 C 
ATOM     12  C   UNL     1      -7.695   7.954   2.944  0.00  0.00    +0.229 C 
ATOM     13  O   UNL     1      -8.271   9.015   3.064  0.00  0.00    -0.275 OA
ATOM     14  N   UNL     1      -8.377   6.849   2.569  0.00  0.00    -0.271 N 
ATOM     15  C   UNL     1      -9.799   6.938   2.227  0.00  0.00    +0.138 C 
ATOM     16  C   UNL     1      -5.619   9.270   3.258  0.00  0.00    +0.024 C 
ATOM     17  C   UNL     1      -5.547   7.063   2.092  0.00  0.00    +0.024 C 
ENDBRANCH   1   3
BRANCH   1  18
ATOM     18  S   UNL     1      -4.903   1.502   1.023  0.00  0.00    +0.073 S 
ATOM     19  O   UNL     1      -5.797   1.671  -0.069  0.00  0.00    -0.150 OA
ATOM     20  O   UNL     1      -4.284   0.257   1.314  0.00  0.00    -0.150 OA
BRANCH  18  27
ATOM     21  C   UNL     1      -2.608   1.887   2.955  0.00  0.00    +0.046 C 
ATOM     22  C   UNL     1      -2.596   2.774   1.737  0.00  0.00    -0.024 A 
ATOM     23  C   UNL     1      -1.577   3.690   1.559  0.00  0.00    +0.007 A 
ATOM     24  C   UNL     1      -1.564   4.501   0.440  0.00  0.00    +0.033 A 
ATOM     25  C   UNL     1      -2.575   4.402  -0.497  0.00  0.00    +0.128 A 
ATOM     26  C   UNL     1      -3.594   3.485  -0.321  0.00  0.00    +0.061 A 
ATOM     27  C   UNL     1      -3.604   2.670   0.797  0.00  0.00    +0.114 A 
BRANCH  25  28
ATOM     28  N   UNL     1      -2.563   5.274  -1.694  0.00  0.00    +0.056 N 
ATOM     29  O   UNL     1      -3.452   5.182  -2.522  0.00  0.00    -0.126 OA
ATOM     30  O   UNL     1      -1.669   6.085  -1.847  0.00  0.00    -0.126 OA
ENDBRANCH  25  28
ENDBRANCH  18  27
ENDBRANCH   1  18
TORSDOF 4
