REMARK  Name = ZINC52560793
REMARK  9 active torsions:
REMARK  status: ('A' for Active; 'I' for Inactive)
REMARK    1  A    between atoms: C_1  and  C_2
REMARK    2  A    between atoms: C_2  and  C_3
REMARK    3  A    between atoms: C_2  and  C_4
REMARK    4  A    between atoms: C_4  and  O_5
REMARK    5  A    between atoms: O_5  and  C_6
REMARK    6  A    between atoms: C_11  and  C_12
REMARK    7  A    between atoms: C_12  and  N_13
REMARK    8  A    between atoms: N_16  and  N_17
REMARK    9  A    between atoms: C_18  and  C_20
REMARK                            x       y       z     vdW  Elec       q    Type
REMARK                         _______ _______ _______ _____ _____    ______ ____
ROOT
ATOM      1  N   UNL     1       5.099  -0.234  -0.025  0.00  0.00    -0.294 N 
ATOM      2  C   UNL     1       5.637   0.248   1.113  0.00  0.00    +0.316 C 
ATOM      3  O   UNL     1       5.880   1.435   1.215  0.00  0.00    -0.251 OA
ATOM      4  N   UNL     1       5.906  -0.585   2.137  0.00  0.00    -0.218 N 
ATOM      5  H   UNL     1       4.905  -1.181  -0.107  0.00  0.00    +0.151 HD
ATOM      6  H   UNL     1       6.294  -0.238   2.956  0.00  0.00    +0.174 HD
ENDROOT
BRANCH   4   7
ATOM      7  N   UNL     1       5.627  -1.953   2.019  0.00  0.00    -0.233 N 
ATOM      8  C   UNL     1       5.896  -2.787   3.043  0.00  0.00    +0.234 C 
ATOM      9  O   UNL     1       6.380  -2.353   4.067  0.00  0.00    -0.274 OA
ATOM     10  H   UNL     1       5.239  -2.300   1.200  0.00  0.00    +0.173 HD
BRANCH   8  11
ATOM     11  C   UNL     1       5.595  -4.258   2.917  0.00  0.00    +0.099 C 
ATOM     12  C   UNL     1       4.086  -4.462   2.697  0.00  0.00    +0.037 C 
ATOM     13  C   UNL     1       3.724  -5.955   2.886  0.00  0.00    +0.166 C 
ATOM     14  S   UNL     1       5.008  -6.537   4.067  0.00  0.00    -0.030 S 
ATOM     15  O   UNL     1       5.802  -7.531   3.434  0.00  0.00    -0.174 OA
ATOM     16  O   UNL     1       4.392  -6.824   5.315  0.00  0.00    -0.174 OA
ATOM     17  C   UNL     1       5.997  -4.991   4.228  0.00  0.00    +0.178 C 
ENDBRANCH   8  11
ENDBRANCH   4   7
BRANCH   1  18
ATOM     18  C   UNL     1       4.806   0.672  -1.138  0.00  0.00    +0.144 C 
BRANCH  18  24
ATOM     19  C   UNL     1       2.873  -0.463  -2.261  0.00  0.00    +0.125 A 
ATOM     20  C   UNL     1       2.330  -1.180  -3.318  0.00  0.00    +0.046 A 
ATOM     21  C   UNL     1       3.127  -1.546  -4.385  0.00  0.00    +0.004 A 
ATOM     22  C   UNL     1       4.465  -1.198  -4.400  0.00  0.00    +0.001 A 
ATOM     23  C   UNL     1       5.009  -0.485  -3.348  0.00  0.00    +0.009 A 
ATOM     24  C   UNL     1       4.215  -0.111  -2.282  0.00  0.00    +0.011 A 
BRANCH  19  25
ATOM     25  O   UNL     1       2.090  -0.101  -1.210  0.00  0.00    -0.491 OA
BRANCH  25  26
ATOM     26  C   UNL     1       0.718  -0.497  -1.257  0.00  0.00    +0.232 C 
BRANCH  26  28
ATOM     27  C   UNL     1      -0.019   1.526   0.010  0.00  0.00    +0.010 C 
ATOM     28  C   UNL     1       0.002  -0.004   0.002  0.00  0.00    +0.020 C 
ATOM     29  C   UNL     1      -1.433  -0.534   0.013  0.00  0.00    +0.010 C 
ENDBRANCH  26  28
ENDBRANCH  25  26
ENDBRANCH  19  25
ENDBRANCH  18  24
ENDBRANCH   1  18
TORSDOF 7
