REMARK  Name = ZINC32995973
REMARK  5 active torsions:
REMARK  status: ('A' for Active; 'I' for Inactive)
REMARK    1  A    between atoms: C_5  and  C_7
REMARK    2  A    between atoms: C_7  and  C_9
REMARK    3  A    between atoms: C_7  and  N_25
REMARK    4  A    between atoms: C_9  and  C_10
REMARK    5  A    between atoms: N_12  and  N_13
REMARK                            x       y       z     vdW  Elec       q    Type
REMARK                         _______ _______ _______ _____ _____    ______ ____
ROOT
ATOM      1  C   UNL     1       3.993   5.223   1.457  0.00  0.00    +0.232 C 
ATOM      2  O   UNL     1       4.577   5.468   0.422  0.00  0.00    -0.274 OA
ATOM      3  N   UNL     1       4.452   5.718   2.623  0.00  0.00    -0.224 N 
ATOM      4  H   UNL     1       3.922   5.496   3.561  0.00  0.00    +0.174 HD
ENDROOT
BRANCH   3   5
ATOM      5  N   UNL     1       5.603   6.517   2.641  0.00  0.00    -0.137 N 
ATOM      6  C   UNL     1       5.595   7.856   2.803  0.00  0.00    +0.263 C 
ATOM      7  O   UNL     1       4.627   8.571   2.954  0.00  0.00    -0.271 OA
ATOM      8  C   UNL     1       7.045   8.277   2.755  0.00  0.00    +0.114 C 
ATOM      9  C   UNL     1       7.453   8.928   4.072  0.00  0.00    +0.035 C 
ATOM     10  C   UNL     1       8.931   9.322   4.013  0.00  0.00    +0.003 C 
ATOM     11  C   UNL     1       9.153  10.295   2.854  0.00  0.00    +0.000 C 
ATOM     12  C   UNL     1       8.763   9.620   1.538  0.00  0.00    +0.003 C 
ATOM     13  C   UNL     1       7.284   9.227   1.586  0.00  0.00    +0.035 C 
ATOM     14  N   UNL     1       7.776   7.019   2.554  0.00  0.00    -0.284 N 
ATOM     15  C   UNL     1       6.848   6.044   2.505  0.00  0.00    +0.326 C 
ATOM     16  O   UNL     1       7.112   4.868   2.353  0.00  0.00    -0.251 OA
ATOM     17  H   UNL     1       8.873   7.027   2.476  0.00  0.00    +0.151 HD
ENDBRANCH   3   5
BRANCH   1  18
ATOM     18  C   UNL     1       2.754   4.365   1.438  0.00  0.00    +0.124 C 
BRANCH  18  19
ATOM     19  C   UNL     1       2.453   3.936   0.000  0.00  0.00    +0.115 C 
BRANCH  19  24
ATOM     20  C   UNL     1      -0.613   2.031   1.105  0.00  0.00    +0.000 A 
ATOM     21  C   UNL     1      -1.241   1.791  -0.103  0.00  0.00    +0.001 A 
ATOM     22  C   UNL     1      -0.678   2.253  -1.278  0.00  0.00    +0.020 A 
ATOM     23  C   UNL     1       0.519   2.947  -1.245  0.00  0.00    +0.046 A 
ATOM     24  C   UNL     1       1.149   3.182  -0.036  0.00  0.00    -0.008 A 
ATOM     25  C   UNL     1       0.582   2.724   1.139  0.00  0.00    +0.007 A 
ATOM     26 CL   UNL     1       1.230   3.522  -2.721  0.00  0.00    -0.083 Cl
ENDBRANCH  19  24
BRANCH  19  27
ATOM     27  N   UNL     1       3.531   3.073  -0.488  0.00  0.00    -0.292 N 
ATOM     28  C   UNL     1       3.767   1.887   0.108  0.00  0.00    +0.298 C 
ATOM     29  O   UNL     1       3.029   1.493   0.990  0.00  0.00    -0.253 OA
ATOM     30  N   UNL     1       4.821   1.139  -0.274  0.00  0.00    -0.313 N 
ATOM     31  H   UNL     1       4.147   3.392  -1.342  0.00  0.00    +0.151 HD
ATOM     32  H   UNL     1       5.014   0.172   0.212  0.00  0.00    +0.146 HD
ATOM     33  H   UNL     1       5.488   1.496  -1.073  0.00  0.00    +0.146 HD
ENDBRANCH  19  27
ENDBRANCH  18  19
ENDBRANCH   1  18
TORSDOF 5
