REMARK  Name = ZINC04770838
REMARK  4 active torsions:
REMARK  status: ('A' for Active; 'I' for Inactive)
REMARK    1  A    between atoms: C_3  and  N_27
REMARK    2  A    between atoms: C_9  and  N_50
REMARK    3  A    between atoms: C_12  and  N_50
REMARK    4  A    between atoms: N_17  and  C_20
REMARK                            x       y       z     vdW  Elec       q    Type
REMARK                         _______ _______ _______ _____ _____    ______ ____
ROOT
ATOM      1  N   UNL     1       5.290   4.777   1.153  0.00  0.00    +0.389 N 
ATOM      2  H   UNL     1       4.669   4.523   1.931  0.00  0.00    -0.084 HD
ATOM      3  H   UNL     1       6.267   4.645   1.439  0.00  0.00    -0.084 HD
ENDROOT
BRANCH   1  12
ATOM      4  C   UNL     1       5.622  13.014   0.434  0.00  0.00    +0.020 A 
ATOM      5  C   UNL     1       6.683  12.524   1.186  0.00  0.00    +0.037 A 
ATOM      6  C   UNL     1       6.756  11.162   1.414  0.00  0.00    +0.164 A 
ATOM      7  C   UNL     1       5.776  10.332   0.877  0.00  0.00    +0.130 A 
ATOM      8  C   UNL     1       4.683  12.134  -0.064  0.00  0.00    +0.084 A 
ATOM      9  N   UNL     1       5.840   8.961   1.094  0.00  0.00    -0.315 N 
ATOM     10  C   UNL     1       4.603   8.468   1.713  0.00  0.00    +0.105 C 
ATOM     11  C   UNL     1       4.764   6.988   2.070  0.00  0.00    +0.003 C 
ATOM     12  C   UNL     1       5.073   6.192   0.799  0.00  0.00    -0.068 C 
ATOM     13  C   UNL     1       6.339   6.757   0.148  0.00  0.00    +0.003 C 
ATOM     14  C   UNL     1       6.132   8.243  -0.153  0.00  0.00    +0.105 C 
ATOM     15  N   UNL     1       4.726  10.789   0.136  0.00  0.00    -0.348 N 
ATOM     16  H   UNL     1       4.012  10.158  -0.247  0.00  0.00    +0.167 HD
BRANCH   6  17
ATOM     17  N   UNL     1       7.770  10.642   2.147  0.00  0.00    +0.060 N 
ATOM     18  O   UNL     1       8.563  11.382   2.700  0.00  0.00    -0.126 OA
ATOM     19  O   UNL     1       7.888   9.434   2.253  0.00  0.00    -0.126 OA
ENDBRANCH   6  17
ENDBRANCH   1  12
BRANCH   1  20
ATOM     20  C   UNL     1       4.999   3.909  -0.004  0.00  0.00    +0.026 C 
ATOM     21  C   UNL     1       5.777   2.582   0.114  0.00  0.00    +0.090 C 
ATOM     22  C   UNL     1       4.685   1.537   0.180  0.00  0.00    +0.225 C 
ATOM     23  O   UNL     1       4.862   0.341   0.278  0.00  0.00    -0.275 OA
ATOM     24  N   UNL     1       3.492   2.140   0.112  0.00  0.00    -0.212 N 
ATOM     25  C   UNL     1       3.550   3.473   0.002  0.00  0.00    +0.213 C 
ATOM     26  O   UNL     1       2.594   4.214  -0.079  0.00  0.00    -0.277 OA
BRANCH  24  27
ATOM     27  C   UNL     1       2.280   1.434   0.149  0.00  0.00    +0.044 A 
ATOM     28  C   UNL     1       1.938   0.587  -0.896  0.00  0.00    +0.027 A 
ATOM     29  C   UNL     1       0.745  -0.108  -0.858  0.00  0.00    +0.040 A 
ATOM     30  C   UNL     1      -0.110   0.041   0.221  0.00  0.00    +0.124 A 
ATOM     31  C   UNL     1       0.230   0.886   1.264  0.00  0.00    +0.040 A 
ATOM     32  C   UNL     1       1.422   1.582   1.230  0.00  0.00    +0.027 A 
ATOM     33  F   UNL     1      -1.277  -0.639   0.256  0.00  0.00    -0.205 F 
ENDBRANCH  24  27
ENDBRANCH   1  20
TORSDOF 4
