REMARK  Name = ZINC36125914
REMARK  5 active torsions:
REMARK  status: ('A' for Active; 'I' for Inactive)
REMARK    1  A    between atoms: C_5  and  N_7
REMARK    2  A    between atoms: N_7  and  S_8
REMARK    3  A    between atoms: S_8  and  C_11
REMARK    4  A    between atoms: C_14  and  O_17
REMARK    5  A    between atoms: O_17  and  C_18
REMARK                            x       y       z     vdW  Elec       q    Type
REMARK                         _______ _______ _______ _____ _____    ______ ____
ROOT
ATOM      1  S   UNL     1      -0.231  -3.058  -0.772  0.00  0.00    +0.072 S 
ATOM      2  O   UNL     1       0.054  -4.433  -0.555  0.00  0.00    -0.150 OA
ATOM      3  O   UNL     1      -1.470  -2.469  -0.400  0.00  0.00    -0.150 OA
ENDROOT
BRANCH   1   4
ATOM      4  C   UNL     1      -0.034  -2.769  -2.499  0.00  0.00    +0.109 A 
ATOM      5  C   UNL     1      -0.685  -1.708  -3.100  0.00  0.00    +0.032 A 
ATOM      6  C   UNL     1      -0.533  -1.479  -4.454  0.00  0.00    +0.047 A 
ATOM      7  C   UNL     1       0.275  -2.316  -5.210  0.00  0.00    +0.121 A 
ATOM      8  C   UNL     1       0.927  -3.380  -4.605  0.00  0.00    +0.047 A 
ATOM      9  C   UNL     1       0.776  -3.601  -3.250  0.00  0.00    +0.032 A 
BRANCH   7  10
ATOM     10  O   UNL     1       0.426  -2.093  -6.543  0.00  0.00    -0.489 OA
BRANCH  10  11
ATOM     11  C   UNL     1      -0.178  -0.913  -7.076  0.00  0.00    +0.173 C 
ATOM     12  C   UNL     1      -1.571  -1.244  -7.648  0.00  0.00    +0.044 C 
ATOM     13  C   UNL     1      -1.686  -0.353  -8.910  0.00  0.00    +0.004 C 
ATOM     14  C   UNL     1      -0.251  -0.398  -9.491  0.00  0.00    +0.004 C 
ATOM     15  C   UNL     1       0.662  -0.375  -8.248  0.00  0.00    +0.044 C 
ENDBRANCH  10  11
ENDBRANCH   7  10
ENDBRANCH   1   4
BRANCH   1  16
ATOM     16  N   UNL     1       0.953  -2.201   0.006  0.00  0.00    -0.213 N 
ATOM     17  H   UNL     1       1.603  -2.663   0.559  0.00  0.00    +0.174 HD
BRANCH  16  22
ATOM     18  C   UNL     1      -0.089   1.309  -0.370  0.00  0.00    +0.004 A 
ATOM     19  C   UNL     1       1.135   1.951  -0.412  0.00  0.00    +0.027 A 
ATOM     20  C   UNL     1       2.306   1.214  -0.315  0.00  0.00    +0.078 A 
ATOM     21  C   UNL     1       2.249  -0.169  -0.177  0.00  0.00    +0.164 A 
ATOM     22  C   UNL     1       1.017  -0.810  -0.134  0.00  0.00    +0.091 A 
ATOM     23  C   UNL     1      -0.151  -0.065  -0.231  0.00  0.00    +0.028 A 
ATOM     24  O   UNL     1       3.405  -0.882  -0.086  0.00  0.00    -0.479 OA
ATOM     25  C   UNL     1       4.529  -0.379  -0.813  0.00  0.00    +0.325 C 
ATOM     26  C   UNL     1       4.662   1.105  -0.577  0.00  0.00    +0.255 C 
ATOM     27  O   UNL     1       5.756   1.627  -0.586  0.00  0.00    -0.272 OA
ATOM     28  N   UNL     1       3.556   1.849  -0.355  0.00  0.00    -0.280 N 
ATOM     29  H   UNL     1       3.626   2.808  -0.226  0.00  0.00    +0.155 HD
ENDBRANCH  16  22
ENDBRANCH   1  16
TORSDOF 5
