REMARK  Name = ZINC08140469
REMARK  11 active torsions:
REMARK  status: ('A' for Active; 'I' for Inactive)
REMARK    1  A    between atoms: C_1  and  C_2
REMARK    2  A    between atoms: C_3  and  C_26
REMARK    3  A    between atoms: C_5  and  N_11
REMARK    4  A    between atoms: C_6  and  C_7
REMARK    5  A    between atoms: C_7  and  O_9
REMARK    6  A    between atoms: O_9  and  C_10
REMARK    7  A    between atoms: C_12  and  C_14
REMARK    8  A    between atoms: C_14  and  S_15
REMARK    9  A    between atoms: S_15  and  C_16
REMARK   10  A    between atoms: C_19  and  C_22
REMARK   11  A    between atoms: N_20  and  N_21
REMARK                            x       y       z     vdW  Elec       q    Type
REMARK                         _______ _______ _______ _____ _____    ______ ____
ROOT
ATOM      1  N   UNL     1      -4.126   4.267   7.208  0.00  0.00    -0.279 N 
ATOM      2  C   UNL     1      -3.683   4.650   5.994  0.00  0.00    +0.228 C 
ATOM      3  O   UNL     1      -3.843   5.794   5.624  0.00  0.00    -0.275 OA
ATOM      4  H   UNL     1      -3.981   3.229   7.544  0.00  0.00    +0.155 HD
ENDROOT
BRANCH   1   9
ATOM      5  C   UNL     1      -6.505   6.013  11.322  0.00  0.00    +0.045 C 
ATOM      6  C   UNL     1      -5.905   6.114   9.943  0.00  0.00    -0.025 A 
ATOM      7  C   UNL     1      -5.923   7.269   9.254  0.00  0.00    -0.008 A 
ATOM      8  S   UNL     1      -5.100   6.851   7.731  0.00  0.00    -0.078 S 
ATOM      9  C   UNL     1      -4.765   5.179   8.033  0.00  0.00    +0.086 A 
ATOM     10  C   UNL     1      -5.287   4.976   9.306  0.00  0.00    +0.091 A 
ATOM     11  C   UNL     1      -6.496   8.599   9.672  0.00  0.00    +0.052 C 
BRANCH  10  12
ATOM     12  C   UNL     1      -5.213   3.671   9.967  0.00  0.00    +0.342 C 
ATOM     13  O   UNL     1      -4.255   3.396  10.665  0.00  0.00    -0.245 OA
BRANCH  12  14
ATOM     14  O   UNL     1      -6.207   2.775   9.803  0.00  0.00    -0.464 OA
ATOM     15  C   UNL     1      -6.067   1.502  10.488  0.00  0.00    +0.280 C 
ENDBRANCH  12  14
ENDBRANCH  10  12
ENDBRANCH   1   9
BRANCH   2  16
ATOM     16  C   UNL     1      -2.989   3.658   5.098  0.00  0.00    +0.173 C 
BRANCH  16  17
ATOM     17  S   UNL     1      -2.517   4.470   3.550  0.00  0.00    -0.075 S 
BRANCH  17  18
ATOM     18  C   UNL     1      -1.749   3.120   2.718  0.00  0.00    +0.209 A 
ATOM     19  N   UNL     1      -1.606   1.899   3.178  0.00  0.00    -0.121 NA
ATOM     20  N   UNL     1      -1.005   1.171   2.305  0.00  0.00    -0.123 NA
ATOM     21  C   UNL     1      -0.722   1.881   1.250  0.00  0.00    +0.255 A 
ATOM     22  N   UNL     1      -1.189   3.147   1.473  0.00  0.00    -0.220 N 
BRANCH  21  23
ATOM     23  C   UNL     1      -0.017   1.395   0.010  0.00  0.00    +0.454 C 
ATOM     24  F   UNL     1       0.002  -0.004   0.002  0.00  0.00    -0.163 F 
ATOM     25  F   UNL     1       1.296   1.879  -0.000  0.00  0.00    -0.163 F 
ATOM     26  F   UNL     1      -0.694   1.858  -1.124  0.00  0.00    -0.163 F 
ENDBRANCH  21  23
BRANCH  22  27
ATOM     27  N   UNL     1      -1.111   4.216   0.626  0.00  0.00    -0.295 N 
ATOM     28  H   UNL     1      -0.631   4.105  -0.357  0.00  0.00    +0.163 HD
ATOM     29  H   UNL     1      -1.529   5.188   0.927  0.00  0.00    +0.163 HD
ENDBRANCH  22  27
ENDBRANCH  17  18
ENDBRANCH  16  17
ENDBRANCH   2  16
TORSDOF 8
