REMARK  Name = ZINC39400664
REMARK  5 active torsions:
REMARK  status: ('A' for Active; 'I' for Inactive)
REMARK    1  A    between atoms: C_1  and  C_2
REMARK    2  A    between atoms: C_10  and  C_13
REMARK    3  A    between atoms: C_13  and  N_14
REMARK    4  A    between atoms: C_15  and  C_17
REMARK    5  A    between atoms: C_22  and  C_23
REMARK                            x       y       z     vdW  Elec       q    Type
REMARK                         _______ _______ _______ _____ _____    ______ ____
ROOT
ATOM      1  N   UNL     1      -2.256  -3.313   4.910  0.00  0.00    -0.313 N 
ATOM      2  C   UNL     1      -2.098  -3.478   6.238  0.00  0.00    +0.245 C 
ATOM      3  O   UNL     1      -2.306  -2.550   6.996  0.00  0.00    -0.270 OA
ATOM      4  H   UNL     1      -2.090  -4.053   4.306  0.00  0.00    +0.149 HD
ENDROOT
BRANCH   2   5
ATOM      5  C   UNL     1      -1.670  -4.787   6.773  0.00  0.00    +0.047 A 
ATOM      6  C   UNL     1      -2.351  -5.949   6.411  0.00  0.00    +0.014 A 
ATOM      7  C   UNL     1      -1.947  -7.169   6.914  0.00  0.00    +0.001 A 
ATOM      8  C   UNL     1      -0.868  -7.249   7.779  0.00  0.00    +0.001 A 
ATOM      9  C   UNL     1      -0.183  -6.110   8.149  0.00  0.00    +0.012 A 
ATOM     10  C   UNL     1      -0.571  -4.869   7.648  0.00  0.00    +0.031 A 
BRANCH  10  11
ATOM     11  C   UNL     1       0.165  -3.647   8.036  0.00  0.00    +0.157 A 
ATOM     12  H   UNL     1       1.500  -4.294   9.501  0.00  0.00    +0.191 HD
ATOM     13  N   UNL     1      -0.022  -2.439   7.543  0.00  0.00    -0.215 NA
ATOM     14  C   UNL     1       0.813  -1.583   8.123  0.00  0.00    +0.245 A 
ATOM     15  N   UNL     1       1.549  -2.223   8.995  0.00  0.00    -0.161 NA
ATOM     16  N   UNL     1       1.145  -3.568   8.965  0.00  0.00    -0.259 N 
ENDBRANCH  10  11
ENDBRANCH   2   5
BRANCH   1  17
ATOM     17  C   UNL     1      -2.680  -2.015   4.379  0.00  0.00    +0.082 C 
BRANCH  17  26
ATOM     18  C   UNL     1      -2.330   1.847   0.353  0.00  0.00    +0.059 C 
ATOM     19  C   UNL     1      -2.394   0.343   0.280  0.00  0.00    -0.014 C 
ATOM     20  C   UNL     1      -2.846  -0.216  -0.833  0.00  0.00    +0.016 C 
ATOM     21  C   UNL     1      -2.878  -1.687  -0.932  0.00  0.00    -0.003 C 
ATOM     22  C   UNL     1      -2.191  -2.390  -0.037  0.00  0.00    -0.034 C 
ATOM     23  C   UNL     1      -1.386  -1.691   1.025  0.00  0.00    -0.042 C 
ATOM     24  N   UNL     1      -1.973  -0.389   1.373  0.00  0.00    -0.413 NA
ATOM     25  C   UNL     1      -3.106  -0.708   2.268  0.00  0.00    +0.061 C 
ATOM     26  C   UNL     1      -2.783  -2.096   2.855  0.00  0.00    -0.100 C 
ATOM     27  N   UNL     1      -1.490  -2.480   2.277  0.00  0.00    +0.390 NA
ATOM     28  H   UNL     1      -1.297   0.150   1.893  0.00  0.00    +0.125 HD
ENDBRANCH  17  26
ENDBRANCH   1  17
TORSDOF 4
