REMARK  Name = ZINC38759529
REMARK  6 active torsions:
REMARK  status: ('A' for Active; 'I' for Inactive)
REMARK    1  A    between atoms: C_1  and  O_2
REMARK    2  A    between atoms: O_2  and  C_3
REMARK    3  A    between atoms: C_8  and  C_15
REMARK    4  A    between atoms: C_16  and  C_17
REMARK    5  A    between atoms: C_16  and  N_24
REMARK    6  A    between atoms: C_25  and  C_27
REMARK                            x       y       z     vdW  Elec       q    Type
REMARK                         _______ _______ _______ _____ _____    ______ ____
ROOT
ATOM      1  C   UNL     1       3.990  -4.320  -4.394  0.00  0.00    +0.018 C 
ATOM      2  C   UNL     1       4.351  -5.140  -5.384  0.00  0.00    +0.093 C 
ENDROOT
BRANCH   1   8
ATOM      3  C   UNL     1       0.843  -0.498  -0.944  0.00  0.00    +0.122 A 
ATOM      4  C   UNL     1       1.395   0.287  -1.966  0.00  0.00    +0.046 A 
ATOM      5  C   UNL     1       1.964  -0.278  -3.058  0.00  0.00    +0.013 A 
ATOM      6  C   UNL     1       2.001  -1.738  -3.166  0.00  0.00    -0.006 A 
ATOM      7  C   UNL     1       2.564  -2.341  -4.248  0.00  0.00    -0.001 C 
ATOM      8  C   UNL     1       2.561  -3.857  -4.282  0.00  0.00    +0.123 C 
ATOM      9  C   UNL     1       1.931  -4.577  -3.111  0.00  0.00    +0.228 C 
ATOM     10  O   UNL     1       1.902  -5.794  -3.087  0.00  0.00    -0.274 OA
ATOM     11  N   UNL     1       1.414  -3.881  -2.115  0.00  0.00    -0.284 N 
ATOM     12  C   UNL     1       1.415  -2.546  -2.081  0.00  0.00    +0.044 A 
ATOM     13  C   UNL     1       0.852  -1.875  -0.987  0.00  0.00    +0.069 A 
ATOM     14  H   UNL     1       1.015  -4.362  -1.373  0.00  0.00    +0.155 HD
BRANCH   3  16
ATOM     15  C   UNL     1       0.298   1.547   0.130  0.00  0.00    +0.277 C 
ATOM     16  O   UNL     1       0.286   0.118   0.126  0.00  0.00    -0.495 OA
ENDBRANCH   3  16
ENDBRANCH   1   8
BRANCH   2  17
ATOM     17  C   UNL     1       5.723  -5.680  -5.433  0.00  0.00    +0.261 C 
ATOM     18  O   UNL     1       5.965  -6.771  -4.953  0.00  0.00    -0.269 OA
ATOM     19  N   UNL     1       6.709  -4.963  -6.008  0.00  0.00    -0.297 N 
ATOM     20  C   UNL     1       6.583  -3.592  -6.524  0.00  0.00    +0.108 C 
ATOM     21  C   UNL     1       7.954  -3.196  -7.111  0.00  0.00    +0.020 C 
ATOM     22  C   UNL     1       8.616  -4.568  -7.404  0.00  0.00    +0.020 C 
ATOM     23  C   UNL     1       8.094  -5.422  -6.218  0.00  0.00    +0.108 C 
ENDBRANCH   2  17
BRANCH   2  24
ATOM     24  N   UNL     1       3.426  -5.489  -6.376  0.00  0.00    -0.278 N 
ATOM     25  C   UNL     1       3.818  -6.225  -7.434  0.00  0.00    +0.248 C 
ATOM     26  O   UNL     1       4.950  -6.667  -7.482  0.00  0.00    -0.270 OA
ATOM     27  H   UNL     1       2.502  -5.201  -6.301  0.00  0.00    +0.155 HD
BRANCH  25  28
ATOM     28  C   UNL     1       2.873  -6.495  -8.538  0.00  0.00    +0.037 A 
ATOM     29  C   UNL     1       1.574  -5.985  -8.490  0.00  0.00    +0.013 A 
ATOM     30  C   UNL     1       0.697  -6.241  -9.523  0.00  0.00    +0.001 A 
ATOM     31  C   UNL     1       1.101  -7.003 -10.605  0.00  0.00    +0.000 A 
ATOM     32  C   UNL     1       2.387  -7.511 -10.660  0.00  0.00    +0.001 A 
ATOM     33  C   UNL     1       3.276  -7.257  -9.636  0.00  0.00    +0.013 A 
ENDBRANCH  25  28
ENDBRANCH   2  24
TORSDOF 5
