REMARK  Name = ZINC66820087
REMARK  9 active torsions:
REMARK  status: ('A' for Active; 'I' for Inactive)
REMARK    1  A    between atoms: C_1  and  C_2
REMARK    2  A    between atoms: C_15  and  C_17
REMARK    3  A    between atoms: C_17  and  N_18
REMARK    4  A    between atoms: N_18  and  C_19
REMARK    5  A    between atoms: C_20  and  C_22
REMARK    6  A    between atoms: C_22  and  C_24
REMARK    7  A    between atoms: C_22  and  C_25
REMARK    8  A    between atoms: C_25  and  S_26
REMARK    9  A    between atoms: S_26  and  C_27
REMARK                            x       y       z     vdW  Elec       q    Type
REMARK                         _______ _______ _______ _____ _____    ______ ____
ROOT
ATOM      1  C   UNL     1       0.324  -0.021  -0.443  0.00  0.00    +0.029 C 
ATOM      2  C   UNL     1       0.591  -1.464  -0.011  0.00  0.00    +0.087 C 
ATOM      3  C   UNL     1       1.519  -2.135  -1.024  0.00  0.00    +0.118 C 
ATOM      4  C   UNL     1       2.107  -3.390  -0.437  0.00  0.00    +0.219 C 
ATOM      5  O   UNL     1       1.689  -4.473  -0.787  0.00  0.00    -0.275 OA
ATOM      6  N   UNL     1       3.099  -3.317   0.478  0.00  0.00    -0.284 N 
ATOM      7  C   UNL     1       3.527  -2.076   0.963  0.00  0.00    +0.055 A 
ATOM      8  C   UNL     1       4.873  -1.754   1.001  0.00  0.00    +0.025 A 
ATOM      9  C   UNL     1       5.274  -0.531   1.507  0.00  0.00    +0.002 A 
ATOM     10  C   UNL     1       4.335   0.370   1.976  0.00  0.00    +0.002 A 
ATOM     11  C   UNL     1       2.989   0.059   1.934  0.00  0.00    +0.025 A 
ATOM     12  C   UNL     1       2.579  -1.159   1.418  0.00  0.00    +0.058 A 
ATOM     13  N   UNL     1       1.217  -1.468   1.313  0.00  0.00    -0.265 N 
ATOM     14  C   UNL     1       0.495  -1.763   2.413  0.00  0.00    +0.237 C 
ATOM     15  O   UNL     1      -0.684  -2.028   2.311  0.00  0.00    -0.274 OA
ATOM     16  H   UNL     1       3.517  -4.131   0.800  0.00  0.00    +0.155 HD
ENDROOT
BRANCH  14  17
ATOM     17  C   UNL     1       1.154  -1.762   3.768  0.00  0.00    +0.203 C 
BRANCH  17  18
ATOM     18  N   UNL     1       0.165  -2.111   4.791  0.00  0.00    -0.295 N 
ATOM     19  C   UNL     1      -0.041  -3.513   5.163  0.00  0.00    +0.132 C 
ATOM     20  C   UNL     1      -0.555  -1.142   5.391  0.00  0.00    +0.219 C 
ATOM     21  O   UNL     1      -0.450   0.008   5.020  0.00  0.00    -0.275 OA
BRANCH  20  22
ATOM     22  C   UNL     1      -1.489  -1.488   6.521  0.00  0.00    +0.082 C 
ATOM     23  C   UNL     1      -2.727  -2.193   5.962  0.00  0.00    +0.018 C 
BRANCH  22  24
ATOM     24  C   UNL     1      -1.914  -0.207   7.242  0.00  0.00    +0.081 C 
BRANCH  24  25
ATOM     25  S   UNL     1      -2.919  -0.633   8.690  0.00  0.00    -0.163 S 
ATOM     26  C   UNL     1      -3.336   0.974   9.423  0.00  0.00    +0.084 C 
ENDBRANCH  24  25
ENDBRANCH  22  24
ENDBRANCH  20  22
ENDBRANCH  17  18
ENDBRANCH  14  17
TORSDOF 5
