REMARK  Name = ZINC67648827
REMARK  9 active torsions:
REMARK  status: ('A' for Active; 'I' for Inactive)
REMARK    1  A    between atoms: C_1  and  C_2
REMARK    2  A    between atoms: C_2  and  C_4
REMARK    3  A    between atoms: C_2  and  N_14
REMARK    4  A    between atoms: N_9  and  C_10
REMARK    5  A    between atoms: C_10  and  C_11
REMARK    6  A    between atoms: C_10  and  C_12
REMARK    7  A    between atoms: C_10  and  C_13
REMARK    8  A    between atoms: N_17  and  C_20
REMARK    9  A    between atoms: C_20  and  C_21
REMARK                            x       y       z     vdW  Elec       q    Type
REMARK                         _______ _______ _______ _____ _____    ______ ____
ROOT
ATOM      1  C   UNL     1      -0.019   1.526   0.010  0.00  0.00    +0.034 C 
ATOM      2  C   UNL     1       0.002  -0.004   0.002  0.00  0.00    +0.140 C 
ENDROOT
BRANCH   2   3
ATOM      3  C   UNL     1       0.707  -0.490  -1.238  0.00  0.00    +0.237 C 
ATOM      4  O   UNL     1       1.704  -1.174  -1.140  0.00  0.00    -0.274 OA
ATOM      5  N   UNL     1       0.231  -0.164  -2.456  0.00  0.00    -0.239 N 
ATOM      6  C   UNL     1       0.862  -0.599  -3.565  0.00  0.00    +0.306 C 
ATOM      7  O   UNL     1       1.860  -1.285  -3.466  0.00  0.00    -0.252 OA
ATOM      8  N   UNL     1       0.385  -0.273  -4.782  0.00  0.00    -0.294 N 
ATOM      9  H   UNL     1      -0.566   0.383  -2.534  0.00  0.00    +0.159 HD
ATOM     10  H   UNL     1      -0.412   0.274  -4.861  0.00  0.00    +0.151 HD
BRANCH   8  11
ATOM     11  C   UNL     1       1.071  -0.745  -5.988  0.00  0.00    +0.028 C 
ATOM     12  C   UNL     1       1.092  -2.275  -5.996  0.00  0.00    +0.031 C 
ATOM     13  C   UNL     1       0.331  -0.239  -7.227  0.00  0.00    +0.031 C 
ATOM     14  C   UNL     1       2.506  -0.216  -5.999  0.00  0.00    +0.031 C 
ENDBRANCH   8  11
ENDBRANCH   2   3
BRANCH   2  15
ATOM     15  N   UNL     1       0.713  -0.491   1.192  0.00  0.00    -0.295 NA
ATOM     16  C   UNL     1       2.047   0.117   1.294  0.00  0.00    +0.066 C 
ATOM     17  C   UNL     1       2.775  -0.459   2.511  0.00  0.00    -0.063 C 
ATOM     18  N   UNL     1       1.997  -0.180   3.725  0.00  0.00    +0.382 N 
ATOM     19  C   UNL     1       0.676  -0.815   3.618  0.00  0.00    -0.063 C 
ATOM     20  C   UNL     1      -0.070  -0.241   2.411  0.00  0.00    +0.066 C 
ATOM     21  H   UNL     1       1.883   0.817   3.830  0.00  0.00    -0.082 HD
BRANCH  18  22
ATOM     22  C   UNL     1       2.705  -0.718   4.894  0.00  0.00    -0.075 C 
BRANCH  22  23
ATOM     23  C   UNL     1       1.959  -0.321   6.169  0.00  0.00    -0.028 C 
ATOM     24  C   UNL     1       2.004   1.200   6.333  0.00  0.00    +0.002 C 
ATOM     25  C   UNL     1       1.258   1.598   7.608  0.00  0.00    +0.000 C 
ATOM     26  C   UNL     1       1.923   0.935   8.816  0.00  0.00    +0.000 C 
ATOM     27  C   UNL     1       1.879  -0.586   8.652  0.00  0.00    +0.000 C 
ATOM     28  C   UNL     1       2.624  -0.983   7.377  0.00  0.00    +0.002 C 
ENDBRANCH  22  23
ENDBRANCH  18  22
ENDBRANCH   2  15
TORSDOF 5
