REMARK  Name = ZINC13032792
REMARK  16 active torsions:
REMARK  status: ('A' for Active; 'I' for Inactive)
REMARK    1  A    between atoms: C_1  and  C_2
REMARK    2  A    between atoms: C_4  and  C_27
REMARK    3  A    between atoms: C_6  and  C_26
REMARK    4  A    between atoms: C_7  and  S_8
REMARK    5  A    between atoms: S_8  and  N_11
REMARK    6  A    between atoms: N_11  and  C_12
REMARK    7  A    between atoms: C_13  and  C_24
REMARK    8  A    between atoms: C_15  and  O_22
REMARK    9  A    between atoms: C_16  and  O_20
REMARK   10  A    between atoms: C_17  and  O_18
REMARK   11  A    between atoms: O_18  and  C_19
REMARK   12  A    between atoms: O_20  and  C_21
REMARK   13  A    between atoms: O_22  and  C_23
REMARK   14  A    between atoms: C_27  and  C_28
REMARK   15  A    between atoms: C_27  and  C_29
REMARK   16  A    between atoms: C_27  and  C_30
REMARK                            x       y       z     vdW  Elec       q    Type
REMARK                         _______ _______ _______ _____ _____    ______ ____
ROOT
ATOM      1  N   UNL     1       4.551  -0.747  -0.384  0.00  0.00    -0.212 N 
ATOM      2  H   UNL     1       4.788  -1.641  -0.677  0.00  0.00    +0.174 HD
ENDROOT
BRANCH   1   3
ATOM      3  C   UNL     1       4.893   0.355  -1.164  0.00  0.00    +0.108 A 
ATOM      4  C   UNL     1       4.377   0.486  -2.464  0.00  0.00    +0.093 A 
ATOM      5  C   UNL     1       4.726   1.597  -3.241  0.00  0.00    +0.066 A 
ATOM      6  C   UNL     1       5.573   2.558  -2.730  0.00  0.00    +0.166 A 
ATOM      7  C   UNL     1       6.085   2.427  -1.439  0.00  0.00    +0.205 A 
ATOM      8  C   UNL     1       5.742   1.333  -0.657  0.00  0.00    +0.188 A 
BRANCH   4   9
ATOM      9  C   UNL     1       3.473  -0.540  -3.005  0.00  0.00    +0.389 C 
ATOM     10  O   UNL     1       3.097  -1.454  -2.297  0.00  0.00    -0.241 OA
ATOM     11  O   UNL     1       3.063  -0.468  -4.287  0.00  0.00    -0.241 OA
ENDBRANCH   4   9
BRANCH   8  12
ATOM     12  O   UNL     1       6.240   1.214   0.604  0.00  0.00    -0.490 OA
ATOM     13  C   UNL     1       7.482   0.522   0.748  0.00  0.00    +0.277 C 
ENDBRANCH   8  12
BRANCH   7  14
ATOM     14  O   UNL     1       6.919   3.378  -0.943  0.00  0.00    -0.488 OA
ATOM     15  C   UNL     1       6.317   4.469  -0.244  0.00  0.00    +0.277 C 
ENDBRANCH   7  14
BRANCH   6  16
ATOM     16  O   UNL     1       5.910   3.637  -3.487  0.00  0.00    -0.491 OA
ATOM     17  C   UNL     1       5.350   3.708  -4.800  0.00  0.00    +0.277 C 
ENDBRANCH   6  16
ENDBRANCH   1   3
BRANCH   1  18
ATOM     18  S   UNL     1       3.740  -0.532   1.044  0.00  0.00    +0.073 S 
ATOM     19  O   UNL     1       4.407   0.516   1.735  0.00  0.00    -0.150 OA
ATOM     20  O   UNL     1       3.561  -1.823   1.608  0.00  0.00    -0.150 OA
BRANCH  18  27
ATOM     21  C   UNL     1       3.007   2.400   0.922  0.00  0.00    +0.046 C 
ATOM     22  C   UNL     1       1.894   1.432   0.614  0.00  0.00    -0.023 A 
ATOM     23  C   UNL     1       0.634   1.905   0.300  0.00  0.00    +0.009 A 
ATOM     24  C   UNL     1      -0.387   1.017   0.017  0.00  0.00    -0.041 A 
ATOM     25  C   UNL     1      -0.147  -0.344   0.048  0.00  0.00    +0.009 A 
ATOM     26  C   UNL     1       1.113  -0.817   0.362  0.00  0.00    -0.023 A 
ATOM     27  C   UNL     1       2.134   0.071   0.645  0.00  0.00    +0.114 A 
ATOM     28  C   UNL     1       1.374  -2.301   0.394  0.00  0.00    +0.046 C 
BRANCH  24  29
ATOM     29  C   UNL     1      -1.763   1.533  -0.319  0.00  0.00    -0.013 C 
ATOM     30  C   UNL     1      -1.686   2.417  -1.565  0.00  0.00    +0.015 C 
ATOM     31  C   UNL     1      -2.698   0.352  -0.588  0.00  0.00    +0.015 C 
ATOM     32  C   UNL     1      -2.301   2.353   0.856  0.00  0.00    +0.015 C 
ENDBRANCH  24  29
ENDBRANCH  18  27
ENDBRANCH   1  18
TORSDOF 8
