REMARK  Name = ZINC36555334
REMARK  14 active torsions:
REMARK  status: ('A' for Active; 'I' for Inactive)
REMARK    1  A    between atoms: C_1  and  C_2
REMARK    2  A    between atoms: C_5  and  C_7
REMARK    3  A    between atoms: C_7  and  N_8
REMARK    4  A    between atoms: N_8  and  C_9
REMARK    5  A    between atoms: C_9  and  C_11
REMARK    6  A    between atoms: C_9  and  C_18
REMARK    7  A    between atoms: C_15  and  O_17
REMARK    8  A    between atoms: N_20  and  C_21
REMARK    9  A    between atoms: C_21  and  C_22
REMARK   10  A    between atoms: C_21  and  C_23
REMARK   11  A    between atoms: C_21  and  C_24
REMARK   12  A    between atoms: C_25  and  C_27
REMARK   13  A    between atoms: C_27  and  C_35
REMARK   14  A    between atoms: C_28  and  C_29
REMARK                            x       y       z     vdW  Elec       q    Type
REMARK                         _______ _______ _______ _____ _____    ______ ____
ROOT
ATOM      1  N   UNL     1       2.310  -3.589  -1.912  0.00  0.00    -0.275 N 
ATOM      2  C   UNL     1       0.967  -3.691  -1.960  0.00  0.00    +0.248 C 
ATOM      3  O   UNL     1       0.351  -4.078  -0.985  0.00  0.00    -0.270 OA
ENDROOT
BRANCH   2   4
ATOM      4  C   UNL     1       0.245  -3.334  -3.192  0.00  0.00    +0.045 C 
ATOM      5  C   UNL     1       0.169  -2.033  -3.582  0.00  0.00    +0.021 C 
BRANCH   5   6
ATOM      6  C   UNL     1       0.679  -0.972  -2.704  0.00  0.00    -0.024 A 
ATOM      7  C   UNL     1       1.273   0.171  -3.253  0.00  0.00    +0.008 A 
ATOM      8  C   UNL     1       1.749   1.163  -2.422  0.00  0.00    +0.001 A 
ATOM      9  C   UNL     1       1.641   1.031  -1.049  0.00  0.00    +0.000 A 
ATOM     10  C   UNL     1       1.056  -0.096  -0.497  0.00  0.00    +0.001 A 
ATOM     11  C   UNL     1       0.570  -1.094  -1.314  0.00  0.00    +0.008 A 
ENDBRANCH   5   6
BRANCH   4  12
ATOM     12  C   UNL     1      -0.398  -4.390  -4.006  0.00  0.00    -0.013 A 
ATOM     13  C   UNL     1      -1.460  -5.128  -3.482  0.00  0.00    +0.008 A 
ATOM     14  C   UNL     1      -2.055  -6.111  -4.246  0.00  0.00    +0.001 A 
ATOM     15  C   UNL     1      -1.601  -6.366  -5.528  0.00  0.00    +0.000 A 
ATOM     16  C   UNL     1      -0.548  -5.638  -6.052  0.00  0.00    +0.001 A 
ATOM     17  C   UNL     1       0.051  -4.648  -5.301  0.00  0.00    +0.008 A 
ENDBRANCH   4  12
ENDBRANCH   2   4
BRANCH   1  18
ATOM     18  C   UNL     1       3.028  -3.934  -0.682  0.00  0.00    +0.183 C 
BRANCH  18  23
ATOM     19  C   UNL     1       2.470  -0.020   2.450  0.00  0.00    +0.086 C 
ATOM     20  C   UNL     1       2.285  -1.372   1.812  0.00  0.00    +0.102 A 
ATOM     21  C   UNL     1       1.425  -2.323   2.219  0.00  0.00    +0.045 A 
ATOM     22  C   UNL     1       1.581  -3.420   1.341  0.00  0.00    +0.046 A 
ATOM     23  C   UNL     1       2.527  -3.074   0.450  0.00  0.00    +0.122 A 
ATOM     24  O   UNL     1       2.945  -1.830   0.736  0.00  0.00    -0.463 OA
ENDBRANCH  18  23
ENDBRANCH   1  18
BRANCH   1  25
ATOM     25  C   UNL     1       3.053  -3.134  -3.090  0.00  0.00    +0.193 C 
BRANCH  25  26
ATOM     26  C   UNL     1       3.666  -4.321  -3.787  0.00  0.00    -0.015 A 
ATOM     27  C   UNL     1       4.115  -5.400  -3.048  0.00  0.00    +0.006 A 
ATOM     28  C   UNL     1       4.678  -6.491  -3.684  0.00  0.00    +0.004 A 
ATOM     29  C   UNL     1       4.794  -6.505  -5.061  0.00  0.00    +0.045 A 
ATOM     30  C   UNL     1       4.344  -5.424  -5.805  0.00  0.00    +0.117 A 
ATOM     31  C   UNL     1       3.774  -4.333  -5.164  0.00  0.00    +0.051 A 
BRANCH  30  32
ATOM     32  O   UNL     1       4.457  -5.435  -7.159  0.00  0.00    -0.507 OA
ATOM     33  H   UNL     1       3.692  -5.814  -7.614  0.00  0.00    +0.292 HD
ENDBRANCH  30  32
ENDBRANCH  25  26
BRANCH  25  34
ATOM     34  C   UNL     1       4.142  -2.185  -2.662  0.00  0.00    +0.239 C 
ATOM     35  O   UNL     1       4.372  -2.019  -1.482  0.00  0.00    -0.273 OA
ATOM     36  N   UNL     1       4.861  -1.521  -3.588  0.00  0.00    -0.309 N 
ATOM     37  H   UNL     1       4.676  -1.654  -4.532  0.00  0.00    +0.149 HD
BRANCH  36  38
ATOM     38  C   UNL     1       5.920  -0.599  -3.172  0.00  0.00    +0.026 C 
ATOM     39  C   UNL     1       6.972  -1.362  -2.365  0.00  0.00    +0.031 C 
ATOM     40  C   UNL     1       6.574   0.018  -4.409  0.00  0.00    +0.031 C 
ATOM     41  C   UNL     1       5.319   0.510  -2.306  0.00  0.00    +0.031 C 
ENDBRANCH  36  38
ENDBRANCH  25  34
ENDBRANCH   1  25
TORSDOF 10
