REMARK  Name = ZINC09381412
REMARK  8 active torsions:
REMARK  status: ('A' for Active; 'I' for Inactive)
REMARK    1  A    between atoms: C_1  and  C_2
REMARK    2  A    between atoms: C_2  and  O_3
REMARK    3  A    between atoms: O_3  and  C_4
REMARK    4  A    between atoms: C_4  and  C_6
REMARK    5  A    between atoms: C_10  and  N_23
REMARK    6  A    between atoms: N_14  and  C_16
REMARK    7  A    between atoms: C_19  and  C_22
REMARK    8  A    between atoms: C_24  and  C_26
REMARK                            x       y       z     vdW  Elec       q    Type
REMARK                         _______ _______ _______ _____ _____    ______ ____
ROOT
ATOM      1  C   UNL     1       1.253   3.595  -0.349  0.00  0.00    +0.177 A 
ATOM      2  C   UNL     1       2.551   4.247  -0.009  0.00  0.00    +0.030 A 
ATOM      3  C   UNL     1       3.784   3.652   0.003  0.00  0.00    +0.058 A 
ATOM      4  S   UNL     1       4.884   4.961   0.486  0.00  0.00    -0.080 S 
ATOM      5  C   UNL     1       3.750   6.253   0.652  0.00  0.00    +0.085 A 
ATOM      6  C   UNL     1       2.519   5.668   0.344  0.00  0.00    +0.079 A 
ATOM      7  C   UNL     1       1.242   6.319   0.347  0.00  0.00    +0.282 A 
ATOM      8  O   UNL     1       1.166   7.498   0.639  0.00  0.00    -0.265 OA
ATOM      9  N   UNL     1       0.131   5.639   0.031  0.00  0.00    -0.195 N 
ATOM     10  N   UNL     1       0.149   4.290  -0.313  0.00  0.00    -0.156 NA
ENDROOT
BRANCH   9  11
ATOM     11  C   UNL     1      -1.095   6.313   0.046  0.00  0.00    +0.069 A 
ATOM     12  C   UNL     1      -1.453   7.083   1.146  0.00  0.00    +0.028 A 
ATOM     13  C   UNL     1      -2.662   7.749   1.156  0.00  0.00    +0.005 A 
ATOM     14  C   UNL     1      -3.521   7.643   0.077  0.00  0.00    -0.050 A 
ATOM     15  C   UNL     1      -3.170   6.874  -1.017  0.00  0.00    +0.005 A 
ATOM     16  C   UNL     1      -1.960   6.208  -1.036  0.00  0.00    +0.028 A 
ATOM     17  C   UNL     1      -4.843   8.367   0.094  0.00  0.00    +0.044 C 
ENDBRANCH   9  11
BRANCH   5  18
ATOM     18  N   UNL     1       4.002   7.566   1.020  0.00  0.00    -0.275 N 
ATOM     19  C   UNL     1       5.263   7.962   1.284  0.00  0.00    +0.250 C 
ATOM     20  O   UNL     1       6.180   7.168   1.199  0.00  0.00    -0.270 OA
ATOM     21  H   UNL     1       3.271   8.200   1.088  0.00  0.00    +0.156 HD
BRANCH  19  22
ATOM     22  C   UNL     1       5.531   9.361   1.676  0.00  0.00    +0.051 A 
ATOM     23  C   UNL     1       4.481  10.277   1.769  0.00  0.00    +0.014 A 
ATOM     24  C   UNL     1       4.738  11.580   2.140  0.00  0.00    +0.001 A 
ATOM     25  C   UNL     1       6.034  11.984   2.411  0.00  0.00    +0.001 A 
ATOM     26  C   UNL     1       7.080  11.084   2.316  0.00  0.00    +0.016 A 
ATOM     27  C   UNL     1       6.837   9.775   1.950  0.00  0.00    +0.030 A 
ATOM     28 BR   UNL     1       8.268   8.546   1.820  0.00  0.00    -0.050 Br
ENDBRANCH  19  22
ENDBRANCH   5  18
BRANCH   1  29
ATOM     29  C   UNL     1       1.217   2.169  -0.720  0.00  0.00    +0.360 C 
ATOM     30  O   UNL     1       2.246   1.523  -0.753  0.00  0.00    -0.243 OA
BRANCH  29  31
ATOM     31  O   UNL     1       0.042   1.580  -1.022  0.00  0.00    -0.460 OA
BRANCH  31  33
ATOM     32  C   UNL     1      -1.335  -0.316  -1.685  0.00  0.00    +0.048 C 
ATOM     33  C   UNL     1       0.082   0.173  -1.377  0.00  0.00    +0.229 C 
ENDBRANCH  31  33
ENDBRANCH  29  31
ENDBRANCH   1  29
TORSDOF 6
