REMARK  Name = ZINC19258684
REMARK  3 active torsions:
REMARK  status: ('A' for Active; 'I' for Inactive)
REMARK    1  A    between atoms: C_1  and  C_2
REMARK    2  A    between atoms: N_5  and  C_9
REMARK    3  A    between atoms: C_17  and  N_19
REMARK                            x       y       z     vdW  Elec       q    Type
REMARK                         _______ _______ _______ _____ _____    ______ ____
ROOT
ATOM      1  C   UNL     1      -2.780  -2.558   0.045  0.00  0.00    +0.073 C 
ATOM      2  C   UNL     1      -3.512  -2.239   1.351  0.00  0.00    +0.020 C 
ATOM      3  C   UNL     1      -5.013  -2.462   1.160  0.00  0.00    +0.002 C 
ATOM      4  C   UNL     1      -5.452  -1.866  -0.179  0.00  0.00    +0.000 C 
ATOM      5  C   UNL     1      -5.879  -2.992  -1.123  0.00  0.00    +0.000 C 
ATOM      6  C   UNL     1      -4.636  -3.701  -1.663  0.00  0.00    +0.002 C 
ATOM      7  C   UNL     1      -4.056  -4.612  -0.579  0.00  0.00    +0.020 C 
ATOM      8  C   UNL     1      -2.695  -4.075  -0.134  0.00  0.00    +0.068 C 
ENDROOT
BRANCH   1  12
ATOM      9  C   UNL     1       1.506  -2.021  -2.314  0.00  0.00    +0.039 C 
ATOM     10  C   UNL     1       0.747  -1.761  -1.012  0.00  0.00    +0.129 C 
ATOM     11  C   UNL     1      -0.676  -2.314  -1.130  0.00  0.00    +0.116 C 
ATOM     12  N   UNL     1      -1.424  -1.994   0.094  0.00  0.00    -0.293 NA
ATOM     13  C   UNL     1      -1.465  -0.541   0.314  0.00  0.00    +0.113 C 
ATOM     14  C   UNL     1      -0.035  -0.005   0.418  0.00  0.00    +0.175 C 
ATOM     15  O   UNL     1       0.687  -0.353  -0.767  0.00  0.00    -0.374 OA
ENDBRANCH   1  12
BRANCH   8  16
ATOM     16  N   UNL     1      -2.315  -4.699   1.140  0.00  0.00    -0.326 NA
ATOM     17  H   UNL     1      -2.181  -5.693   1.030  0.00  0.00    +0.119 HD
ATOM     18  H   UNL     1      -1.490  -4.263   1.524  0.00  0.00    +0.119 HD
ENDBRANCH   8  16
TORSDOF 2
