REMARK  Name = ZINC10022924
REMARK  8 active torsions:
REMARK  status: ('A' for Active; 'I' for Inactive)
REMARK    1  A    between atoms: C_1  and  C_2
REMARK    2  A    between atoms: C_12  and  C_14
REMARK    3  A    between atoms: C_14  and  C_16
REMARK    4  A    between atoms: C_14  and  N_17
REMARK    5  A    between atoms: N_17  and  S_18
REMARK    6  A    between atoms: S_18  and  C_21
REMARK    7  A    between atoms: C_24  and  N_27
REMARK    8  A    between atoms: C_28  and  C_30
REMARK                            x       y       z     vdW  Elec       q    Type
REMARK                         _______ _______ _______ _____ _____    ______ ____
ROOT
ATOM      1  C   UNL     1       0.228   8.379   2.036  0.00  0.00    +0.159 C 
ATOM      2  C   UNL     1      -0.031   7.145   2.902  0.00  0.00    +0.035 C 
ENDROOT
BRANCH   1  13
ATOM      3  C   UNL     1       3.045  15.584   8.406  0.00  0.00    +0.008 C 
ATOM      4  C   UNL     1       2.315  14.491   7.624  0.00  0.00    -0.009 C 
ATOM      5  C   UNL     1       1.766  15.072   6.318  0.00  0.00    +0.010 C 
ATOM      6  C   UNL     1       0.827  14.068   5.648  0.00  0.00    +0.056 C 
ATOM      7  C   UNL     1       1.552  12.733   5.514  0.00  0.00    +0.054 A 
ATOM      8  C   UNL     1       2.649  12.471   6.271  0.00  0.00    +0.015 A 
ATOM      9  S   UNL     1       3.102  10.839   5.748  0.00  0.00    -0.057 S 
ATOM     10  C   UNL     1       1.828  10.628   4.585  0.00  0.00    +0.165 A 
ATOM     11  N   UNL     1       1.181  11.771   4.673  0.00  0.00    -0.229 NA
ATOM     12  N   UNL     1       1.563   9.535   3.767  0.00  0.00    -0.263 N 
ATOM     13  C   UNL     1       0.514   9.564   2.922  0.00  0.00    +0.237 C 
ATOM     14  O   UNL     1      -0.199  10.544   2.873  0.00  0.00    -0.274 OA
ATOM     15  C   UNL     1       3.292  13.354   7.286  0.00  0.00    +0.047 C 
ATOM     16  H   UNL     1       2.134   8.751   3.806  0.00  0.00    +0.157 HD
ENDBRANCH   1  13
BRANCH   1  17
ATOM     17  N   UNL     1      -0.955   8.657   1.216  0.00  0.00    -0.178 NA
ATOM     18  H   UNL     1      -1.685   9.181   1.581  0.00  0.00    +0.149 HD
BRANCH  17  19
ATOM     19  S   UNL     1      -1.044   8.076  -0.332  0.00  0.00    +0.059 S 
ATOM     20  O   UNL     1       0.182   8.415  -0.964  0.00  0.00    -0.153 OA
ATOM     21  O   UNL     1      -2.304   8.485  -0.847  0.00  0.00    -0.153 OA
BRANCH  19  22
ATOM     22  C   UNL     1      -1.089   6.318  -0.227  0.00  0.00    +0.105 A 
ATOM     23  C   UNL     1      -2.303   5.663  -0.130  0.00  0.00    +0.030 A 
ATOM     24  C   UNL     1      -2.341   4.285  -0.048  0.00  0.00    +0.025 A 
ATOM     25  C   UNL     1      -1.159   3.557  -0.063  0.00  0.00    +0.033 A 
ATOM     26  C   UNL     1       0.059   4.218  -0.156  0.00  0.00    +0.025 A 
ATOM     27  C   UNL     1       0.090   5.596  -0.243  0.00  0.00    +0.030 A 
BRANCH  25  28
ATOM     28  N   UNL     1      -1.195   2.161   0.019  0.00  0.00    -0.286 N 
ATOM     29  C   UNL     1      -2.198   1.476  -0.564  0.00  0.00    +0.214 C 
ATOM     30  O   UNL     1      -3.117   2.073  -1.085  0.00  0.00    -0.276 OA
ATOM     31  C   UNL     1      -2.182  -0.031  -0.565  0.00  0.00    +0.109 C 
ATOM     32  H   UNL     1      -0.497   1.685   0.497  0.00  0.00    +0.155 HD
ENDBRANCH  25  28
ENDBRANCH  19  22
ENDBRANCH  17  19
ENDBRANCH   1  17
TORSDOF 5
