REMARK  Name = ZINC63869697
REMARK  6 active torsions:
REMARK  status: ('A' for Active; 'I' for Inactive)
REMARK    1  A    between atoms: C_4  and  C_7
REMARK    2  A    between atoms: C_8  and  C_9
REMARK    3  A    between atoms: C_9  and  N_10
REMARK    4  A    between atoms: N_10  and  C_11
REMARK    5  A    between atoms: N_10  and  C_24
REMARK    6  A    between atoms: C_11  and  C_12
REMARK                            x       y       z     vdW  Elec       q    Type
REMARK                         _______ _______ _______ _____ _____    ______ ____
ROOT
ATOM      1  N   UNL     1       5.769  -3.489   0.120  0.00  0.00    -0.288 NA
ENDROOT
BRANCH   1   2
ATOM      2  C   UNL     1       5.373  -4.096   1.398  0.00  0.00    +0.058 C 
ATOM      3  C   UNL     1       5.641  -3.295   2.674  0.00  0.00    +0.020 C 
ATOM      4  C   UNL     1       6.489  -4.527   2.351  0.00  0.00    +0.020 C 
ENDBRANCH   1   2
BRANCH   1   5
ATOM      5  C   UNL     1       6.489  -2.227   0.338  0.00  0.00    +0.174 C 
BRANCH   5   7
ATOM      6  C   UNL     1       4.777  -0.353   1.086  0.00  0.00    -0.065 C 
ATOM      7  C   UNL     1       5.537  -1.185   0.754  0.00  0.00    -0.081 C 
BRANCH   6  11
ATOM      8  C   UNL     1       2.060   2.623   2.274  0.00  0.00    +0.000 A 
ATOM      9  C   UNL     1       3.404   2.927   2.148  0.00  0.00    +0.001 A 
ATOM     10  C   UNL     1       4.301   1.955   1.758  0.00  0.00    +0.017 A 
ATOM     11  C   UNL     1       3.851   0.661   1.491  0.00  0.00    +0.025 A 
ATOM     12  C   UNL     1       2.495   0.360   1.620  0.00  0.00    +0.017 A 
ATOM     13  C   UNL     1       1.607   1.342   2.010  0.00  0.00    +0.001 A 
ENDBRANCH   6  11
ENDBRANCH   5   7
ENDBRANCH   1   5
BRANCH   1  14
ATOM     14  C   UNL     1       6.573  -4.423  -0.680  0.00  0.00    +0.087 C 
BRANCH  14  15
ATOM     15  C   UNL     1       5.696  -5.591  -1.134  0.00  0.00    -0.011 C 
ATOM     16  C   UNL     1       6.576  -6.673  -1.763  0.00  0.00    +0.001 C 
ATOM     17  C   UNL     1       7.256  -6.091  -3.006  0.00  0.00    -0.018 C 
ATOM     18  C   UNL     1       6.179  -5.599  -3.973  0.00  0.00    -0.078 C 
ATOM     19  N   UNL     1       5.367  -4.552  -3.337  0.00  0.00    +0.382 N 
ATOM     20  C   UNL     1       4.676  -5.092  -2.163  0.00  0.00    -0.064 C 
ATOM     21  C   UNL     1       3.830  -3.997  -1.504  0.00  0.00    -0.015 C 
ATOM     22  C   UNL     1       2.810  -3.456  -2.507  0.00  0.00    -0.003 C 
ATOM     23  C   UNL     1       3.561  -2.934  -3.736  0.00  0.00    -0.019 C 
ATOM     24  C   UNL     1       4.390  -4.071  -4.325  0.00  0.00    -0.078 C 
ATOM     25  H   UNL     1       5.963  -3.788  -3.054  0.00  0.00    -0.081 HD
ENDBRANCH  14  15
ENDBRANCH   1  14
TORSDOF 6
