REMARK  Name = ZINC49737561
REMARK  9 active torsions:
REMARK  status: ('A' for Active; 'I' for Inactive)
REMARK    1  A    between atoms: C_1  and  C_2
REMARK    2  A    between atoms: C_2  and  C_3
REMARK    3  A    between atoms: C_2  and  C_4
REMARK    4  A    between atoms: C_4  and  C_5
REMARK    5  A    between atoms: C_5  and  C_7
REMARK    6  A    between atoms: C_5  and  N_23
REMARK    7  A    between atoms: C_7  and  N_8
REMARK    8  A    between atoms: N_8  and  S_9
REMARK    9  A    between atoms: S_9  and  C_12
REMARK                            x       y       z     vdW  Elec       q    Type
REMARK                         _______ _______ _______ _____ _____    ______ ____
ROOT
ATOM      1  N   UNL     1      -2.633  -3.993  -0.837  0.00  0.00    -0.191 NA
ATOM      2  H   UNL     1      -1.763  -4.357  -1.064  0.00  0.00    +0.148 HD
ENDROOT
BRANCH   1   3
ATOM      3  S   UNL     1      -3.976  -4.960  -0.895  0.00  0.00    +0.058 S 
ATOM      4  O   UNL     1      -3.537  -6.239  -1.331  0.00  0.00    -0.153 OA
ATOM      5  O   UNL     1      -4.668  -4.769   0.332  0.00  0.00    -0.153 OA
BRANCH   3   6
ATOM      6  C   UNL     1      -5.020  -4.326  -2.165  0.00  0.00    +0.109 A 
ATOM      7  C   UNL     1      -5.969  -3.365  -1.861  0.00  0.00    +0.031 A 
ATOM      8  C   UNL     1      -6.791  -2.863  -2.852  0.00  0.00    +0.031 A 
ATOM      9  C   UNL     1      -6.663  -3.324  -4.153  0.00  0.00    +0.087 A 
ATOM     10  C   UNL     1      -5.707  -4.291  -4.460  0.00  0.00    +0.159 A 
ATOM     11  C   UNL     1      -4.883  -4.786  -3.461  0.00  0.00    +0.077 A 
ATOM     12  O   UNL     1      -5.806  -4.548  -5.787  0.00  0.00    -0.408 OA
ATOM     13  C   UNL     1      -6.778  -3.785  -6.313  0.00  0.00    +0.419 A 
ATOM     14  O   UNL     1      -7.114  -3.782  -7.481  0.00  0.00    -0.223 OA
ATOM     15  N   UNL     1      -7.324  -3.024  -5.344  0.00  0.00    -0.288 N 
ATOM     16  H   UNL     1      -8.045  -2.384  -5.455  0.00  0.00    +0.172 HD
ENDBRANCH   3   6
ENDBRANCH   1   3
BRANCH   1  17
ATOM     17  C   UNL     1      -2.759  -2.588  -0.442  0.00  0.00    +0.090 C 
BRANCH  17  18
ATOM     18  C   UNL     1      -1.373  -2.021  -0.126  0.00  0.00    -0.053 C 
BRANCH  18  19
ATOM     19  N   UNL     1      -0.591  -1.919  -1.365  0.00  0.00    +0.382 N 
ATOM     20  C   UNL     1       0.725  -1.287  -1.090  0.00  0.00    -0.078 C 
ATOM     21  C   UNL     1       1.598  -1.754  -2.282  0.00  0.00    -0.020 C 
ATOM     22  C   UNL     1       1.117  -3.204  -2.515  0.00  0.00    -0.020 C 
ATOM     23  C   UNL     1      -0.289  -3.267  -1.891  0.00  0.00    -0.078 C 
ATOM     24  H   UNL     1      -1.098  -1.382  -2.054  0.00  0.00    -0.081 HD
ENDBRANCH  18  19
BRANCH  18  25
ATOM     25  C   UNL     1      -1.520  -0.633   0.501  0.00  0.00    -0.011 C 
BRANCH  25  27
ATOM     26  C   UNL     1      -0.369   1.127   1.849  0.00  0.00    +0.007 C 
ATOM     27  C   UNL     1      -0.251  -0.289   1.281  0.00  0.00    -0.019 C 
ATOM     28  C   UNL     1      -0.071  -1.284   2.429  0.00  0.00    +0.007 C 
ENDBRANCH  25  27
ENDBRANCH  18  25
ENDBRANCH  17  18
ENDBRANCH   1  17
TORSDOF 7
