REMARK  Name = ZINC13728488
REMARK  7 active torsions:
REMARK  status: ('A' for Active; 'I' for Inactive)
REMARK    1  A    between atoms: C_1  and  S_2
REMARK    2  A    between atoms: S_2  and  N_5
REMARK    3  A    between atoms: N_5  and  C_6
REMARK    4  A    between atoms: C_21  and  C_22
REMARK    5  A    between atoms: C_21  and  N_56
REMARK    6  A    between atoms: C_22  and  C_23
REMARK    7  A    between atoms: C_26  and  C_29
REMARK                            x       y       z     vdW  Elec       q    Type
REMARK                         _______ _______ _______ _____ _____    ______ ____
ROOT
ATOM      1  C   UNL     1       3.380  -8.240  -6.814  0.00  0.00    +0.049 A 
ATOM      2  C   UNL     1       4.068  -7.058  -6.553  0.00  0.00    +0.028 A 
ATOM      3  C   UNL     1       4.014  -6.476  -5.303  0.00  0.00    +0.048 A 
ATOM      4  C   UNL     1       3.271  -7.064  -4.289  0.00  0.00    +0.132 A 
ATOM      5  C   UNL     1       2.570  -8.252  -4.552  0.00  0.00    +0.061 A 
ATOM      6  C   UNL     1       2.630  -8.840  -5.817  0.00  0.00    +0.039 A 
ATOM      7  C   UNL     1       1.773  -8.865  -3.475  0.00  0.00    +0.170 C 
ATOM      8  O   UNL     1       0.982  -9.758  -3.696  0.00  0.00    -0.292 OA
ATOM      9  C   UNL     1       1.992  -8.322  -2.074  0.00  0.00    +0.127 C 
ATOM     10  C   UNL     1       2.142  -6.800  -2.195  0.00  0.00    +0.114 C 
ATOM     11  O   UNL     1       3.234  -6.495  -3.061  0.00  0.00    -0.485 OA
ATOM     12  C   UNL     1       0.851  -6.208  -2.766  0.00  0.00    +0.030 C 
ATOM     13  C   UNL     1       0.976  -4.684  -2.822  0.00  0.00    -0.075 C 
ATOM     14  C   UNL     1       2.482  -4.680  -0.923  0.00  0.00    -0.075 C 
ATOM     15  C   UNL     1       2.401  -6.205  -0.810  0.00  0.00    +0.030 C 
ATOM     16  N   UNL     1       1.200  -4.170  -1.454  0.00  0.00    +0.380 N 
ATOM     17  H   UNL     1       0.437  -4.493  -0.848  0.00  0.00    -0.082 HD
ENDROOT
BRANCH   1  18
ATOM     18  N   UNL     1       3.447  -8.821  -8.085  0.00  0.00    -0.221 N 
ATOM     19  H   UNL     1       2.640  -9.149  -8.512  0.00  0.00    +0.173 HD
BRANCH  18  21
ATOM     20  C   UNL     1       5.878 -10.090  -7.838  0.00  0.00    +0.218 C 
ATOM     21  S   UNL     1       4.905  -8.950  -8.861  0.00  0.00    +0.040 S 
ATOM     22  O   UNL     1       4.598  -9.554 -10.110  0.00  0.00    -0.155 OA
ATOM     23  O   UNL     1       5.462  -7.645  -8.805  0.00  0.00    -0.155 OA
ENDBRANCH  18  21
ENDBRANCH   1  18
BRANCH  16  24
ATOM     24  C   UNL     1       1.211  -2.693  -1.465  0.00  0.00    -0.074 C 
BRANCH  24  25
ATOM     25  C   UNL     1       1.220  -2.190  -0.020  0.00  0.00    +0.016 C 
BRANCH  25  26
ATOM     26  C   UNL     1       1.208  -0.683  -0.013  0.00  0.00    -0.049 A 
ATOM     27  C   UNL     1       0.002  -0.004   0.002  0.00  0.00    +0.005 A 
ATOM     28  C   UNL     1      -0.017   1.375   0.010  0.00  0.00    +0.019 A 
ATOM     29  C   UNL     1       1.185   2.087   0.002  0.00  0.00    +0.052 A 
ATOM     30  C   UNL     1       2.398   1.395  -0.013  0.00  0.00    +0.019 A 
ATOM     31  C   UNL     1       2.402   0.016  -0.020  0.00  0.00    +0.005 A 
BRANCH  29  32
ATOM     32  C   UNL     1       1.173   3.518   0.009  0.00  0.00    +0.099 C 
ATOM     33  N   UNL     1       1.164   4.654   0.015  0.00  0.00    -0.191 NA
ENDBRANCH  29  32
ENDBRANCH  25  26
ENDBRANCH  24  25
ENDBRANCH  16  24
TORSDOF 6
