REMARK  Name = ZINC06812110
REMARK  7 active torsions:
REMARK  status: ('A' for Active; 'I' for Inactive)
REMARK    1  A    between atoms: C_1  and  C_2
REMARK    2  A    between atoms: C_2  and  C_3
REMARK    3  A    between atoms: C_9  and  C_25
REMARK    4  A    between atoms: C_11  and  C_14
REMARK    5  A    between atoms: N_16  and  C_17
REMARK    6  A    between atoms: C_19  and  C_24
REMARK    7  A    between atoms: C_22  and  C_23
REMARK                            x       y       z     vdW  Elec       q    Type
REMARK                         _______ _______ _______ _____ _____    ______ ____
ROOT
ATOM      1  C   UNL     1       2.075   0.627  -0.016  0.00  0.00    +0.151 A 
ATOM      2  N   UNL     1       1.264  -0.396  -0.006  0.00  0.00    -0.132 NA
ATOM      3  N   UNL     1       0.041   0.008   0.018  0.00  0.00    -0.121 NA
ATOM      4  C   UNL     1       0.014   1.312   0.021  0.00  0.00    +0.209 A 
ATOM      5  N   UNL     1       1.306   1.755   0.007  0.00  0.00    -0.225 N 
ATOM      6  N   UNL     1       1.728   3.046   0.024  0.00  0.00    -0.272 N 
ATOM      7  C   UNL     1       0.724   3.999  -0.450  0.00  0.00    +0.140 C 
ATOM      8  C   UNL     1      -0.537   3.927   0.421  0.00  0.00    +0.166 C 
ATOM      9  S   UNL     1      -1.397   2.373   0.030  0.00  0.00    -0.069 S 
ATOM     10  H   UNL     1       2.068   3.303   0.939  0.00  0.00    +0.167 HD
ENDROOT
BRANCH   7  11
ATOM     11  C   UNL     1       1.291   5.394  -0.384  0.00  0.00    -0.024 A 
ATOM     12  C   UNL     1       2.066   5.774   0.695  0.00  0.00    +0.008 A 
ATOM     13  C   UNL     1       2.591   7.051   0.754  0.00  0.00    +0.038 A 
ATOM     14  C   UNL     1       2.331   7.954  -0.264  0.00  0.00    +0.123 A 
ATOM     15  C   UNL     1       1.550   7.573  -1.342  0.00  0.00    +0.038 A 
ATOM     16  C   UNL     1       1.031   6.294  -1.401  0.00  0.00    +0.008 A 
ATOM     17  F   UNL     1       2.839   9.204  -0.205  0.00  0.00    -0.205 F 
ENDBRANCH   7  11
BRANCH   8  18
ATOM     18  C   UNL     1      -1.436   5.098   0.115  0.00  0.00    +0.233 C 
ATOM     19  O   UNL     1      -1.507   5.528  -1.017  0.00  0.00    -0.274 OA
ATOM     20  N   UNL     1      -2.161   5.666   1.099  0.00  0.00    -0.284 N 
ATOM     21  H   UNL     1      -2.167   5.273   1.986  0.00  0.00    +0.155 HD
BRANCH  20  22
ATOM     22  C   UNL     1      -2.905   6.822   0.840  0.00  0.00    +0.037 A 
ATOM     23  C   UNL     1      -2.536   7.671  -0.195  0.00  0.00    +0.027 A 
ATOM     24  C   UNL     1      -3.273   8.812  -0.447  0.00  0.00    -0.049 A 
ATOM     25  C   UNL     1      -4.377   9.109   0.330  0.00  0.00    +0.004 A 
ATOM     26  C   UNL     1      -4.748   8.266   1.362  0.00  0.00    +0.005 A 
ATOM     27  C   UNL     1      -4.018   7.121   1.615  0.00  0.00    -0.029 A 
ATOM     28  C   UNL     1      -4.426   6.199   2.736  0.00  0.00    +0.045 C 
ATOM     29  C   UNL     1      -2.873   9.733  -1.571  0.00  0.00    +0.044 C 
ENDBRANCH  20  22
ENDBRANCH   8  18
BRANCH   1  31
ATOM     30  C   UNL     1       4.059   0.564  -1.502  0.00  0.00    +0.012 C 
ATOM     31  C   UNL     1       3.580   0.573  -0.049  0.00  0.00    +0.074 C 
ENDBRANCH   1  31
TORSDOF 4
