REMARK  Name = ZINC38790407
REMARK  5 active torsions:
REMARK  status: ('A' for Active; 'I' for Inactive)
REMARK    1  A    between atoms: C_3  and  N_24
REMARK    2  A    between atoms: C_6  and  N_7
REMARK    3  A    between atoms: N_7  and  C_8
REMARK    4  A    between atoms: C_8  and  C_9
REMARK    5  A    between atoms: C_28  and  O_31
REMARK                            x       y       z     vdW  Elec       q    Type
REMARK                         _______ _______ _______ _____ _____    ______ ____
ROOT
ATOM      1  N   UNL     1      -1.201  -0.721   0.010  0.00  0.00    -0.343 N 
ATOM      2  H   UNL     1      -2.047  -0.247   0.033  0.00  0.00    +0.146 HD
ENDROOT
BRANCH   1   8
ATOM      3  C   UNL     1      -0.017   1.384   0.026  0.00  0.00    +0.025 A 
ATOM      4  C   UNL     1       1.170   2.091   0.018  0.00  0.00    +0.025 A 
ATOM      5  C   UNL     1       2.381   1.413  -0.013  0.00  0.00    +0.030 A 
ATOM      6  C   UNL     1       2.400   0.025  -0.037  0.00  0.00    +0.025 A 
ATOM      7  C   UNL     1       1.214  -0.682  -0.029  0.00  0.00    +0.025 A 
ATOM      8  C   UNL     1       0.002  -0.004   0.002  0.00  0.00    +0.027 A 
BRANCH   5   9
ATOM      9  N   UNL     1       3.584   2.130  -0.021  0.00  0.00    -0.327 N 
ATOM     10  C   UNL     1       4.873   1.430   0.067  0.00  0.00    +0.105 C 
ATOM     11  C   UNL     1       5.756   1.873  -1.104  0.00  0.00    +0.021 C 
ATOM     12  C   UNL     1       5.868   3.399  -1.104  0.00  0.00    +0.034 C 
ATOM     13  C   UNL     1       4.479   4.014  -1.287  0.00  0.00    +0.132 C 
ATOM     14  C   UNL     1       3.582   3.595  -0.124  0.00  0.00    +0.136 C 
BRANCH  13  15
ATOM     15  O   UNL     1       4.588   5.439  -1.319  0.00  0.00    -0.390 OA
ATOM     16  H   UNL     1       5.145   5.774  -2.034  0.00  0.00    +0.210 HD
ENDBRANCH  13  15
ENDBRANCH   5   9
ENDBRANCH   1   8
BRANCH   1  17
ATOM     17  C   UNL     1      -1.181  -2.185  -0.015  0.00  0.00    +0.118 C 
BRANCH  17  18
ATOM     18  C   UNL     1      -2.616  -2.715  -0.000  0.00  0.00    +0.115 C 
ATOM     19  C   UNL     1      -2.556  -4.217   0.195  0.00  0.00    -0.003 C 
ATOM     20  C   UNL     1      -3.132  -4.995  -0.760  0.00  0.00    -0.003 A 
ATOM     21  C   UNL     1      -3.116  -6.455  -0.646  0.00  0.00    +0.059 A 
ATOM     22  C   UNL     1      -3.699  -7.203  -1.618  0.00  0.00    +0.167 A 
ATOM     23  C   UNL     1      -4.320  -6.599  -2.732  0.00  0.00    +0.168 A 
ATOM     24  C   UNL     1      -4.363  -5.229  -2.886  0.00  0.00    +0.073 A 
ATOM     25  C   UNL     1      -3.785  -4.382  -1.931  0.00  0.00    +0.044 A 
ATOM     26  N   UNL     1      -3.837  -3.058  -2.099  0.00  0.00    -0.284 N 
ATOM     27  C   UNL     1      -3.313  -2.203  -1.241  0.00  0.00    +0.226 C 
ATOM     28  O   UNL     1      -3.391  -1.006  -1.447  0.00  0.00    -0.275 OA
ATOM     29  O   UNL     1      -4.813  -7.588  -3.533  0.00  0.00    -0.453 OA
ATOM     30  C   UNL     1      -4.134  -8.790  -3.128  0.00  0.00    +0.466 C 
ATOM     31  O   UNL     1      -3.815  -8.560  -1.744  0.00  0.00    -0.453 OA
ATOM     32  H   UNL     1      -4.280  -2.709  -2.888  0.00  0.00    +0.155 HD
ENDBRANCH  17  18
ENDBRANCH   1  17
TORSDOF 5
