REMARK  Name = ZINC09074500
REMARK  6 active torsions:
REMARK  status: ('A' for Active; 'I' for Inactive)
REMARK    1  A    between atoms: C_6  and  C_7
REMARK    2  A    between atoms: C_7  and  O_9
REMARK    3  A    between atoms: O_9  and  C_10
REMARK    4  A    between atoms: C_10  and  C_11
REMARK    5  A    between atoms: N_13  and  C_14
REMARK    6  A    between atoms: C_15  and  C_22
REMARK                            x       y       z     vdW  Elec       q    Type
REMARK                         _______ _______ _______ _____ _____    ______ ____
ROOT
ATOM      1  C   UNL     1       7.265   0.257  -0.091  0.00  0.00    +0.255 C 
ATOM      2  O   UNL     1       7.075   1.455  -0.079  0.00  0.00    -0.272 OA
ATOM      3  N   UNL     1       8.523  -0.226  -0.111  0.00  0.00    -0.277 N 
ATOM      4  H   UNL     1       8.674  -1.184  -0.121  0.00  0.00    +0.155 HD
ENDROOT
BRANCH   3   5
ATOM      5  C   UNL     1       9.600   0.647  -0.118  0.00  0.00    +0.084 A 
ATOM      6  C   UNL     1      10.951   0.345  -0.133  0.00  0.00    +0.068 A 
ATOM      7  C   UNL     1      11.895   1.462  -0.141  0.00  0.00    -0.023 A 
ATOM      8  C   UNL     1      11.333   2.684  -0.125  0.00  0.00    -0.004 A 
ATOM      9  S   UNL     1       9.583   2.377  -0.103  0.00  0.00    -0.077 S 
ATOM     10  C   UNL     1      12.364   3.780  -0.132  0.00  0.00    +0.043 C 
ATOM     11  C   UNL     1      13.665   3.086  -0.593  0.00  0.00    +0.010 C 
ATOM     12  C   UNL     1      13.415   1.629  -0.158  0.00  0.00    +0.037 C 
BRANCH   6  13
ATOM     13  C   UNL     1      11.419  -1.044  -0.143  0.00  0.00    +0.244 C 
ATOM     14  O   UNL     1      11.604  -1.617  -1.201  0.00  0.00    -0.270 OA
ATOM     15  N   UNL     1      11.646  -1.688   1.019  0.00  0.00    -0.325 N 
ATOM     16  H   UNL     1      11.498  -1.232   1.863  0.00  0.00    +0.145 HD
ATOM     17  H   UNL     1      11.955  -2.607   1.012  0.00  0.00    +0.145 HD
ENDBRANCH   6  13
ENDBRANCH   3   5
BRANCH   1  18
ATOM     18  C   UNL     1       6.093  -0.691  -0.083  0.00  0.00    +0.328 C 
BRANCH  18  19
ATOM     19  O   UNL     1       4.856   0.069  -0.061  0.00  0.00    -0.452 OA
BRANCH  19  20
ATOM     20  C   UNL     1       3.706  -0.635  -0.051  0.00  0.00    +0.340 C 
ATOM     21  O   UNL     1       3.737  -1.850  -0.062  0.00  0.00    -0.245 OA
BRANCH  20  27
ATOM     22  C   UNL     1       2.378   1.467  -0.018  0.00  0.00    +0.016 A 
ATOM     23  C   UNL     1       1.166   2.122   0.002  0.00  0.00    +0.017 A 
ATOM     24  C   UNL     1      -0.017   1.396   0.010  0.00  0.00    +0.030 A 
ATOM     25  C   UNL     1       0.002  -0.004   0.002  0.00  0.00    +0.048 A 
ATOM     26  C   UNL     1       1.221  -0.662  -0.019  0.00  0.00    +0.039 A 
ATOM     27  C   UNL     1       2.412   0.069  -0.029  0.00  0.00    +0.061 A 
ATOM     28  N   UNL     1      -1.175  -0.748   0.021  0.00  0.00    -0.284 N 
ATOM     29  C   UNL     1      -2.379  -0.325  -0.354  0.00  0.00    +0.227 C 
ATOM     30  O   UNL     1      -3.307  -1.104  -0.288  0.00  0.00    -0.275 OA
ATOM     31  C   UNL     1      -2.654   1.066  -0.857  0.00  0.00    +0.170 C 
ATOM     32  S   UNL     1      -1.572   2.232   0.022  0.00  0.00    -0.114 S 
ATOM     33  H   UNL     1      -1.111  -1.663   0.338  0.00  0.00    +0.155 HD
ENDBRANCH  20  27
ENDBRANCH  19  20
ENDBRANCH  18  19
ENDBRANCH   1  18
TORSDOF 6
