REMARK  Name = ZINC38757929
REMARK  9 active torsions:
REMARK  status: ('A' for Active; 'I' for Inactive)
REMARK    1  A    between atoms: C_1  and  C_2
REMARK    2  A    between atoms: C_7  and  C_8
REMARK    3  A    between atoms: N_10  and  C_11
REMARK    4  A    between atoms: C_11  and  C_12
REMARK    5  A    between atoms: C_12  and  C_14
REMARK    6  A    between atoms: C_12  and  N_21
REMARK    7  A    between atoms: C_17  and  C_20
REMARK    8  A    between atoms: C_28  and  C_32
REMARK    9  A    between atoms: C_28  and  C_33
REMARK                            x       y       z     vdW  Elec       q    Type
REMARK                         _______ _______ _______ _____ _____    ______ ____
ROOT
ATOM      1  C   UNL     1       0.177  -0.415   2.490  0.00  0.00    +0.261 C 
ATOM      2  O   UNL     1       0.089   0.772   2.745  0.00  0.00    -0.269 OA
ATOM      3  N   UNL     1       0.176  -1.320   3.489  0.00  0.00    -0.308 N 
ATOM      4  H   UNL     1       0.246  -2.266   3.286  0.00  0.00    +0.149 HD
ENDROOT
BRANCH   1  11
ATOM      5  C   UNL     1       0.206   1.456  -0.014  0.00  0.00    +0.047 C 
ATOM      6  C   UNL     1       0.299  -0.048  -0.004  0.00  0.00    -0.010 A 
ATOM      7  C   UNL     1       0.423  -0.886  -1.119  0.00  0.00    +0.042 A 
ATOM      8  C   UNL     1       0.473  -2.201  -0.658  0.00  0.00    +0.028 A 
ATOM      9  N   UNL     1       0.389  -2.172   0.672  0.00  0.00    -0.354 N 
ATOM     10  H   UNL     1       0.402  -2.950   1.253  0.00  0.00    +0.166 HD
ATOM     11  C   UNL     1       0.286  -0.861   1.095  0.00  0.00    +0.106 A 
ATOM     12  C   UNL     1       0.599  -3.388  -1.579  0.00  0.00    +0.060 C 
ATOM     13  C   UNL     1       0.155  -2.982  -2.988  0.00  0.00    -0.023 C 
ATOM     14  C   UNL     1       0.903  -1.728  -3.451  0.00  0.00    +0.086 C 
ATOM     15  C   UNL     1       0.499  -0.568  -2.554  0.00  0.00    +0.166 C 
ATOM     16  O   UNL     1       0.257   0.538  -2.989  0.00  0.00    -0.292 OA
ATOM     17  C   UNL     1      -1.349  -2.698  -2.979  0.00  0.00    +0.011 C 
ATOM     18  C   UNL     1       0.445  -4.130  -3.958  0.00  0.00    +0.011 C 
ENDBRANCH   1  11
BRANCH   3  19
ATOM     19  C   UNL     1       0.067  -0.875   4.880  0.00  0.00    +0.131 C 
BRANCH  19  20
ATOM     20  C   UNL     1      -0.037  -2.095   5.799  0.00  0.00    +0.139 C 
BRANCH  20  21
ATOM     21  C   UNL     1      -0.279  -1.638   7.215  0.00  0.00    +0.113 C 
ATOM     22  C   UNL     1       0.585  -1.824   8.189  0.00  0.00    +0.019 C 
ATOM     23  C   UNL     1      -0.013  -1.218   9.447  0.00  0.00    +0.074 C 
ATOM     24  C   UNL     1      -1.152  -0.346   8.865  0.00  0.00    +0.174 C 
ATOM     25  O   UNL     1      -1.402  -0.992   7.603  0.00  0.00    -0.492 OA
ATOM     26  C   UNL     1      -2.390  -0.391   9.763  0.00  0.00    +0.052 C 
ENDBRANCH  20  21
BRANCH  20  27
ATOM     27  N   UNL     1      -1.153  -2.943   5.361  0.00  0.00    -0.287 NA
ATOM     28  C   UNL     1      -2.413  -2.184   5.332  0.00  0.00    +0.113 C 
ATOM     29  C   UNL     1      -3.535  -3.088   4.815  0.00  0.00    +0.175 C 
ATOM     30  O   UNL     1      -3.623  -4.252   5.642  0.00  0.00    -0.377 OA
ATOM     31  C   UNL     1      -2.414  -5.015   5.692  0.00  0.00    +0.175 C 
ATOM     32  C   UNL     1      -1.280  -4.131   6.218  0.00  0.00    +0.113 C 
ENDBRANCH  20  27
ENDBRANCH  19  20
ENDBRANCH   3  19
TORSDOF 5
