REMARK  Name = ZINC13495925
REMARK  12 active torsions:
REMARK  status: ('A' for Active; 'I' for Inactive)
REMARK    1  A    between atoms: C_1  and  C_2
REMARK    2  A    between atoms: C_2  and  C_3
REMARK    3  A    between atoms: C_3  and  C_5
REMARK    4  A    between atoms: C_3  and  N_75
REMARK    5  A    between atoms: N_9  and  C_10
REMARK    6  A    between atoms: C_16  and  C_17
REMARK    7  A    between atoms: C_16  and  N_75
REMARK    8  A    between atoms: C_17  and  C_18
REMARK    9  A    between atoms: C_22  and  C_24
REMARK   10  A    between atoms: C_25  and  C_26
REMARK   11  A    between atoms: C_25  and  N_75
REMARK   12  A    between atoms: C_32  and  C_38
REMARK                            x       y       z     vdW  Elec       q    Type
REMARK                         _______ _______ _______ _____ _____    ______ ____
ROOT
ATOM      1  N   UNL     1       0.156   7.456  -1.449  0.00  0.00    +0.389 N 
ATOM      2  H   UNL     1       1.082   7.832  -1.211  0.00  0.00    -0.080 HD
ENDROOT
BRANCH   1   3
ATOM      3  C   UNL     1      -0.846   8.029  -0.526  0.00  0.00    +0.003 C 
BRANCH   3   4
ATOM      4  C   UNL     1      -2.241   7.703  -0.993  0.00  0.00    +0.138 A 
ATOM      5  N   UNL     1      -2.688   7.758  -2.224  0.00  0.00    -0.115 NA
ATOM      6  N   UNL     1      -3.926   7.403  -2.215  0.00  0.00    -0.023 NA
ATOM      7  N   UNL     1      -4.284   7.130  -1.009  0.00  0.00    -0.044 NA
ATOM      8  N   UNL     1      -3.273   7.303  -0.226  0.00  0.00    -0.228 N 
BRANCH   8   9
ATOM      9  C   UNL     1      -3.251   7.101   1.225  0.00  0.00    +0.111 C 
ATOM     10  C   UNL     1      -3.542   5.633   1.540  0.00  0.00    +0.027 C 
ATOM     11  C   UNL     1      -3.520   5.422   3.055  0.00  0.00    +0.002 C 
ATOM     12  C   UNL     1      -4.585   6.305   3.708  0.00  0.00    +0.000 C 
ATOM     13  C   UNL     1      -4.294   7.773   3.393  0.00  0.00    +0.002 C 
ATOM     14  C   UNL     1      -4.317   7.984   1.878  0.00  0.00    +0.027 C 
ENDBRANCH   8   9
ENDBRANCH   3   4
BRANCH   3  16
ATOM     15  C   UNL     1       0.699   9.882   0.125  0.00  0.00    +0.002 C 
ATOM     16  C   UNL     1      -0.665   9.548  -0.483  0.00  0.00    -0.011 C 
ENDBRANCH   3  16
ENDBRANCH   1   3
BRANCH   1  17
ATOM     17  C   UNL     1       0.185   5.985  -1.313  0.00  0.00    -0.073 C 
BRANCH  17  18
ATOM     18  C   UNL     1       0.864   5.627   0.011  0.00  0.00    +0.016 C 
BRANCH  18  19
ATOM     19  C   UNL     1       0.974   4.129   0.130  0.00  0.00    -0.049 A 
ATOM     20  C   UNL     1       2.056   3.469  -0.423  0.00  0.00    +0.003 A 
ATOM     21  C   UNL     1       2.156   2.095  -0.315  0.00  0.00    +0.001 A 
ATOM     22  C   UNL     1       1.176   1.380   0.348  0.00  0.00    +0.003 A 
ATOM     23  C   UNL     1       0.092   2.039   0.897  0.00  0.00    -0.050 A 
ATOM     24  C   UNL     1      -0.006   3.414   0.793  0.00  0.00    +0.007 A 
ATOM     25  C   UNL     1      -0.980   1.259   1.614  0.00  0.00    +0.044 C 
ENDBRANCH  18  19
ENDBRANCH  17  18
ENDBRANCH   1  17
BRANCH   1  26
ATOM     26  C   UNL     1      -0.169   7.828  -2.842  0.00  0.00    -0.037 C 
BRANCH  26  27
ATOM     27  C   UNL     1       1.066   7.655  -3.688  0.00  0.00    +0.001 A 
ATOM     28  C   UNL     1       1.254   6.505  -4.381  0.00  0.00    +0.017 A 
ATOM     29  C   UNL     1       2.462   6.370  -5.198  0.00  0.00    -0.001 A 
ATOM     30  C   UNL     1       2.708   5.209  -5.939  0.00  0.00    +0.010 A 
ATOM     31  C   UNL     1       3.846   5.112  -6.687  0.00  0.00    +0.001 A 
ATOM     32  C   UNL     1       4.762   6.155  -6.718  0.00  0.00    +0.005 A 
ATOM     33  C   UNL     1       4.540   7.308  -5.996  0.00  0.00    -0.026 A 
ATOM     34  C   UNL     1       3.388   7.429  -5.227  0.00  0.00    +0.052 A 
ATOM     35  N   UNL     1       3.140   8.571  -4.495  0.00  0.00    -0.322 N 
ATOM     36  H   UNL     1       3.779   9.300  -4.516  0.00  0.00    +0.169 HD
ATOM     37  C   UNL     1       2.025   8.688  -3.752  0.00  0.00    +0.251 A 
ATOM     38  O   UNL     1       1.839   9.712  -3.118  0.00  0.00    -0.268 OA
ATOM     39  C   UNL     1       5.543   8.432  -6.039  0.00  0.00    +0.046 C 
ENDBRANCH  26  27
ENDBRANCH   1  26
TORSDOF 9
