REMARK  Name = ZINC16901445
REMARK  6 active torsions:
REMARK  status: ('A' for Active; 'I' for Inactive)
REMARK    1  A    between atoms: C_1  and  C_2
REMARK    2  A    between atoms: C_5  and  O_24
REMARK    3  A    between atoms: C_6  and  N_8
REMARK    4  A    between atoms: N_8  and  C_9
REMARK    5  A    between atoms: N_14  and  C_17
REMARK    6  A    between atoms: C_21  and  O_23
REMARK                            x       y       z     vdW  Elec       q    Type
REMARK                         _______ _______ _______ _____ _____    ______ ____
ROOT
ATOM      1  C   UNL     1       0.106  -1.945   3.763  0.00  0.00    +0.167 C 
ATOM      2  C   UNL     1       0.569  -3.073   4.707  0.00  0.00    +0.128 C 
ATOM      3  C   UNL     1      -0.610  -3.263   5.637  0.00  0.00    +0.228 C 
ATOM      4  O   UNL     1      -0.666  -4.064   6.545  0.00  0.00    -0.275 OA
ATOM      5  N   UNL     1      -1.581  -2.405   5.299  0.00  0.00    -0.209 N 
ATOM      6  C   UNL     1      -1.285  -1.612   4.257  0.00  0.00    +0.247 C 
ATOM      7  O   UNL     1      -2.014  -0.766   3.786  0.00  0.00    -0.273 OA
ENDROOT
BRANCH   5   8
ATOM      8  C   UNL     1      -2.805  -2.339   5.978  0.00  0.00    +0.047 A 
ATOM      9  C   UNL     1      -2.848  -1.887   7.290  0.00  0.00    +0.024 A 
ATOM     10  C   UNL     1      -4.055  -1.821   7.960  0.00  0.00    +0.005 A 
ATOM     11  C   UNL     1      -5.221  -2.206   7.327  0.00  0.00    +0.045 A 
ATOM     12  C   UNL     1      -5.184  -2.659   6.016  0.00  0.00    +0.119 A 
ATOM     13  C   UNL     1      -3.975  -2.720   5.339  0.00  0.00    +0.069 A 
BRANCH  12  14
ATOM     14  O   UNL     1      -6.331  -3.037   5.394  0.00  0.00    -0.507 OA
ATOM     15  H   UNL     1      -6.779  -2.320   4.925  0.00  0.00    +0.292 HD
ENDBRANCH  12  14
ENDBRANCH   5   8
BRANCH   1  16
ATOM     16  N   UNL     1       0.061  -2.418   2.377  0.00  0.00    -0.330 N 
ATOM     17  H   UNL     1      -0.025  -3.366   2.191  0.00  0.00    +0.147 HD
BRANCH  16  23
ATOM     18  C   UNL     1       0.476   2.229   0.830  0.00  0.00    +0.044 C 
ATOM     19  C   UNL     1       0.343   0.756   0.541  0.00  0.00    -0.048 A 
ATOM     20  C   UNL     1       0.300   0.311  -0.767  0.00  0.00    +0.007 A 
ATOM     21  C   UNL     1       0.179  -1.040  -1.037  0.00  0.00    +0.047 A 
ATOM     22  C   UNL     1       0.099  -1.951   0.003  0.00  0.00    +0.138 A 
ATOM     23  C   UNL     1       0.141  -1.503   1.321  0.00  0.00    +0.070 A 
ATOM     24  C   UNL     1       0.269  -0.147   1.585  0.00  0.00    +0.030 A 
BRANCH  22  25
ATOM     25  O   UNL     1      -0.021  -3.279  -0.262  0.00  0.00    -0.505 OA
ATOM     26  H   UNL     1       0.824  -3.743  -0.340  0.00  0.00    +0.292 HD
ENDBRANCH  22  25
ENDBRANCH  16  23
ENDBRANCH   1  16
TORSDOF 5
