REMARK  Name = ZINC16605495
REMARK  7 active torsions:
REMARK  status: ('A' for Active; 'I' for Inactive)
REMARK    1  A    between atoms: C_1  and  C_2
REMARK    2  A    between atoms: C_5  and  O_8
REMARK    3  A    between atoms: O_8  and  C_9
REMARK    4  A    between atoms: C_9  and  C_11
REMARK    5  A    between atoms: C_9  and  C_12
REMARK    6  A    between atoms: C_16  and  C_23
REMARK    7  A    between atoms: C_19  and  C_22
REMARK                            x       y       z     vdW  Elec       q    Type
REMARK                         _______ _______ _______ _____ _____    ______ ____
ROOT
ATOM      1  C   UNL     1      -3.600   1.824   0.124  0.00  0.00    +0.256 C 
ATOM      2  C   UNL     1      -3.827   1.914   1.634  0.00  0.00    +0.062 C 
ENDROOT
BRANCH   1   3
ATOM      3  C   UNL     1      -4.730   1.055  -0.510  0.00  0.00    +0.256 C 
ATOM      4  O   UNL     1      -4.524  -0.038  -0.993  0.00  0.00    -0.272 OA
ATOM      5  N   UNL     1      -5.971   1.581  -0.538  0.00  0.00    -0.298 N 
ATOM      6  C   UNL     1      -6.220   2.938  -0.035  0.00  0.00    +0.111 C 
ATOM      7  C   UNL     1      -7.342   2.887   1.000  0.00  0.00    +0.004 C 
ATOM      8  C   UNL     1      -8.569   2.209   0.385  0.00  0.00    +0.009 C 
ATOM      9  C   UNL     1      -8.214   0.776  -0.016  0.00  0.00    +0.004 C 
ATOM     10  C   UNL     1      -7.101   0.805  -1.068  0.00  0.00    +0.111 C 
ATOM     11  C   UNL     1      -9.450   0.088  -0.600  0.00  0.00    +0.009 C 
ATOM     12  C   UNL     1      -7.707   4.309   1.431  0.00  0.00    +0.009 C 
ENDBRANCH   1   3
BRANCH   1  13
ATOM     13  O   UNL     1      -2.364   1.153  -0.133  0.00  0.00    -0.480 OA
BRANCH  13  18
ATOM     14  C   UNL     1       2.329   4.256   0.119  0.00  0.00    +0.044 C 
ATOM     15  C   UNL     1       1.073   3.427   0.048  0.00  0.00    -0.050 A 
ATOM     16  C   UNL     1      -0.161   4.027   0.219  0.00  0.00    +0.007 A 
ATOM     17  C   UNL     1      -1.313   3.268   0.155  0.00  0.00    +0.046 A 
ATOM     18  C   UNL     1      -1.232   1.903  -0.075  0.00  0.00    +0.122 A 
ATOM     19  C   UNL     1       0.007   1.304  -0.251  0.00  0.00    +0.046 A 
ATOM     20  C   UNL     1       1.157   2.067  -0.186  0.00  0.00    +0.007 A 
ENDBRANCH  13  18
ENDBRANCH   1  13
TORSDOF 3
