REMARK  Name = ZINC46160672
REMARK  9 active torsions:
REMARK  status: ('A' for Active; 'I' for Inactive)
REMARK    1  A    between atoms: C_1  and  C_2
REMARK    2  A    between atoms: C_2  and  C_3
REMARK    3  A    between atoms: C_5  and  C_8
REMARK    4  A    between atoms: C_8  and  S_9
REMARK    5  A    between atoms: S_9  and  C_12
REMARK    6  A    between atoms: C_12  and  C_14
REMARK    7  A    between atoms: C_12  and  C_15
REMARK    8  A    between atoms: N_17  and  C_18
REMARK    9  A    between atoms: C_23  and  C_24
REMARK                            x       y       z     vdW  Elec       q    Type
REMARK                         _______ _______ _______ _____ _____    ______ ____
ROOT
ATOM      1  C   UNL     1      -0.687  -3.498   6.466  0.00  0.00    +0.213 C 
ATOM      2  C   UNL     1      -1.877  -2.561   6.678  0.00  0.00    +0.042 C 
ENDROOT
BRANCH   1   3
ATOM      3  C   UNL     1      -1.129  -4.925   6.667  0.00  0.00    +0.241 C 
ATOM      4  O   UNL     1      -1.370  -5.625   5.707  0.00  0.00    -0.273 OA
ATOM      5  N   UNL     1      -1.255  -5.422   7.913  0.00  0.00    -0.284 N 
ATOM      6  H   UNL     1      -0.986  -4.889   8.678  0.00  0.00    +0.155 HD
BRANCH   5   7
ATOM      7  C   UNL     1      -1.775  -6.707   8.104  0.00  0.00    +0.038 A 
ATOM      8  C   UNL     1      -2.615  -7.267   7.149  0.00  0.00    +0.023 A 
ATOM      9  C   UNL     1      -3.127  -8.536   7.340  0.00  0.00    +0.003 A 
ATOM     10  C   UNL     1      -2.804  -9.249   8.479  0.00  0.00    +0.020 A 
ATOM     11  C   UNL     1      -1.968  -8.695   9.432  0.00  0.00    +0.046 A 
ATOM     12  C   UNL     1      -1.448  -7.428   9.245  0.00  0.00    -0.011 A 
ATOM     13  C   UNL     1      -0.532  -6.827  10.280  0.00  0.00    +0.047 C 
ATOM     14 CL   UNL     1      -1.566  -9.594  10.862  0.00  0.00    -0.083 Cl
ENDBRANCH   5   7
ENDBRANCH   1   3
BRANCH   1  15
ATOM     15  S   UNL     1      -0.049  -3.294   4.781  0.00  0.00    -0.015 S 
ATOM     16  O   UNL     1      -1.119  -3.493   3.868  0.00  0.00    -0.173 OA
ATOM     17  O   UNL     1       1.128  -4.079   4.647  0.00  0.00    -0.173 OA
BRANCH  15  18
ATOM     18  C   UNL     1       0.422  -1.542   4.740  0.00  0.00    +0.222 C 
BRANCH  18  21
ATOM     19  C   UNL     1       0.697  -0.486   1.225  0.00  0.00    +0.078 A 
ATOM     20  N   UNL     1       0.207  -0.780   2.404  0.00  0.00    -0.247 NA
ATOM     21  C   UNL     1       0.982  -1.204   3.382  0.00  0.00    +0.070 A 
ATOM     22  C   UNL     1       2.307  -1.322   3.111  0.00  0.00    +0.071 A 
ATOM     23  S   UNL     1       2.341  -0.801   1.403  0.00  0.00    -0.080 S 
BRANCH  19  25
ATOM     24  C   UNL     1      -0.068   1.537   0.013  0.00  0.00    +0.011 C 
ATOM     25  C   UNL     1      -0.035   0.007   0.004  0.00  0.00    +0.059 C 
ENDBRANCH  19  25
ENDBRANCH  18  21
ENDBRANCH  15  18
ENDBRANCH   1  15
TORSDOF 6
