REMARK  Name = ZINC28776964
REMARK  13 active torsions:
REMARK  status: ('A' for Active; 'I' for Inactive)
REMARK    1  A    between atoms: C_1  and  C_2
REMARK    2  A    between atoms: C_7  and  C_8
REMARK    3  A    between atoms: N_10  and  C_11
REMARK    4  A    between atoms: C_11  and  C_13
REMARK    5  A    between atoms: C_11  and  C_16
REMARK    6  A    between atoms: C_13  and  C_14
REMARK    7  A    between atoms: C_13  and  C_15
REMARK    8  A    between atoms: N_18  and  N_19
REMARK    9  A    between atoms: C_20  and  C_22
REMARK   10  A    between atoms: C_25  and  O_30
REMARK   11  A    between atoms: C_26  and  O_28
REMARK   12  A    between atoms: O_28  and  C_29
REMARK   13  A    between atoms: O_30  and  C_31
REMARK                            x       y       z     vdW  Elec       q    Type
REMARK                         _______ _______ _______ _____ _____    ______ ____
ROOT
ATOM      1  C   UNL     1      -3.151   1.776  -1.600  0.00  0.00    +0.250 C 
ATOM      2  O   UNL     1      -3.012   2.959  -1.829  0.00  0.00    -0.272 OA
ATOM      3  N   UNL     1      -4.194   1.106  -2.130  0.00  0.00    -0.233 N 
ATOM      4  H   UNL     1      -4.367   0.055  -1.857  0.00  0.00    +0.173 HD
ENDROOT
BRANCH   3   5
ATOM      5  N   UNL     1      -5.056   1.748  -3.028  0.00  0.00    -0.230 N 
ATOM      6  C   UNL     1      -6.098   1.078  -3.558  0.00  0.00    +0.260 C 
ATOM      7  O   UNL     1      -6.290  -0.084  -3.257  0.00  0.00    -0.269 OA
ATOM      8  H   UNL     1      -4.883   2.800  -3.300  0.00  0.00    +0.173 HD
BRANCH   6   9
ATOM      9  C   UNL     1      -7.007   1.755  -4.504  0.00  0.00    +0.042 A 
ATOM     10  C   UNL     1      -6.791   3.092  -4.847  0.00  0.00    +0.017 A 
ATOM     11  C   UNL     1      -7.638   3.721  -5.734  0.00  0.00    +0.050 A 
ATOM     12  C   UNL     1      -8.711   3.032  -6.281  0.00  0.00    +0.162 A 
ATOM     13  C   UNL     1      -8.935   1.699  -5.939  0.00  0.00    +0.162 A 
ATOM     14  C   UNL     1      -8.088   1.061  -5.055  0.00  0.00    +0.062 A 
BRANCH  13  15
ATOM     15  O   UNL     1      -9.988   1.027  -6.477  0.00  0.00    -0.491 OA
ATOM     16  C   UNL     1     -10.157  -0.336  -6.083  0.00  0.00    +0.277 C 
ENDBRANCH  13  15
BRANCH  12  17
ATOM     17  O   UNL     1      -9.546   3.658  -7.151  0.00  0.00    -0.491 OA
ATOM     18  C   UNL     1      -9.258   5.024  -7.457  0.00  0.00    +0.277 C 
ENDBRANCH  12  17
ENDBRANCH   6   9
ENDBRANCH   3   5
BRANCH   1  19
ATOM     19  C   UNL     1      -2.160   1.056  -0.723  0.00  0.00    +0.163 C 
BRANCH  19  22
ATOM     20  C   UNL     1       0.270   1.050  -0.536  0.00  0.00    +0.245 C 
ATOM     21  O   UNL     1       0.215  -0.129  -0.244  0.00  0.00    -0.270 OA
ATOM     22  N   UNL     1      -0.863   1.734  -0.794  0.00  0.00    -0.300 N 
ATOM     23  H   UNL     1      -0.813   2.800  -1.058  0.00  0.00    +0.150 HD
BRANCH  20  30
ATOM     24  C   UNL     1       2.668  -0.362   0.255  0.00  0.00    +0.044 C 
ATOM     25  C   UNL     1       2.743   1.061  -0.235  0.00  0.00    -0.038 A 
ATOM     26  C   UNL     1       3.961   1.703  -0.311  0.00  0.00    +0.004 A 
ATOM     27  C   UNL     1       4.032   3.009  -0.761  0.00  0.00    +0.000 A 
ATOM     28  C   UNL     1       2.882   3.680  -1.138  0.00  0.00    +0.001 A 
ATOM     29  C   UNL     1       1.658   3.048  -1.072  0.00  0.00    +0.013 A 
ATOM     30  C   UNL     1       1.579   1.732  -0.614  0.00  0.00    +0.040 A 
ENDBRANCH  20  30
ENDBRANCH  19  22
BRANCH  19  31
ATOM     31  C   UNL     1      -2.659   1.063   0.723  0.00  0.00    +0.012 C 
ATOM     32  C   UNL     1      -4.054   0.436   0.784  0.00  0.00    +0.009 C 
ATOM     33  C   UNL     1      -1.699   0.254   1.598  0.00  0.00    +0.009 C 
ENDBRANCH  19  31
ENDBRANCH   1  19
TORSDOF 8
