REMARK  Name = ZINC49776599
REMARK  4 active torsions:
REMARK  status: ('A' for Active; 'I' for Inactive)
REMARK    1  A    between atoms: C_1  and  C_2
REMARK    2  A    between atoms: C_5  and  N_9
REMARK    3  A    between atoms: C_11  and  C_18
REMARK    4  A    between atoms: C_14  and  C_17
REMARK                            x       y       z     vdW  Elec       q    Type
REMARK                         _______ _______ _______ _____ _____    ______ ____
ROOT
ATOM      1  C   UNL     1      -4.092  -0.875  -1.645  0.00  0.00    +0.085 C 
ATOM      2  C   UNL     1      -3.007   0.082  -2.067  0.00  0.00    +0.102 C 
ATOM      3  N   UNL     1      -3.142   0.930  -3.037  0.00  0.00    -0.245 NA
ATOM      4  C   UNL     1      -1.870   1.669  -3.126  0.00  0.00    +0.238 C 
ATOM      5  C   UNL     1      -1.037   1.051  -2.019  0.00  0.00    +0.111 C 
ATOM      6  N   UNL     1      -1.810   0.145  -1.474  0.00  0.00    -0.333 N 
ATOM      7  N   UNL     1       0.235   1.371  -1.665  0.00  0.00    -0.345 N 
ATOM      8  H   UNL     1       0.684   2.118  -2.092  0.00  0.00    +0.143 HD
ATOM      9  H   UNL     1       0.695   0.854  -0.986  0.00  0.00    +0.143 HD
ATOM     10  H   UNL     1      -1.545  -0.417  -0.729  0.00  0.00    +0.168 HD
ENDROOT
BRANCH   4  11
ATOM     11  N   UNL     1      -1.238   1.460  -4.435  0.00  0.00    -0.270 NA
ATOM     12  C   UNL     1      -1.920   2.237  -5.480  0.00  0.00    +0.118 C 
ATOM     13  C   UNL     1      -1.195   2.037  -6.813  0.00  0.00    +0.130 C 
ATOM     14  O   UNL     1      -1.148   0.640  -7.120  0.00  0.00    -0.371 OA
ATOM     15  C   UNL     1      -0.490  -0.146  -6.123  0.00  0.00    +0.130 C 
ATOM     16  C   UNL     1      -1.208   0.032  -4.783  0.00  0.00    +0.118 C 
ATOM     17  C   UNL     1       0.964   0.312  -5.990  0.00  0.00    +0.039 C 
ATOM     18  C   UNL     1      -1.946   2.779  -7.920  0.00  0.00    +0.039 C 
ENDBRANCH   4  11
TORSDOF 1
