REMARK  Name = ZINC13122602
REMARK  3 active torsions:
REMARK  status: ('A' for Active; 'I' for Inactive)
REMARK    1  A    between atoms: C_3  and  C_6
REMARK    2  A    between atoms: C_6  and  C_7
REMARK    3  A    between atoms: N_9  and  N_10
REMARK                            x       y       z     vdW  Elec       q    Type
REMARK                         _______ _______ _______ _____ _____    ______ ____
ROOT
ATOM      1  N   UNL     1       5.949   2.606   2.946  0.00  0.00    -0.175 NA
ATOM      2  C   UNL     1       7.164   3.041   3.176  0.00  0.00    +0.153 C 
ATOM      3  C   UNL     1       7.812   3.256   4.491  0.00  0.00    +0.029 A 
ATOM      4  C   UNL     1       7.383   3.083   5.803  0.00  0.00    +0.027 A 
ATOM      5  C   UNL     1       8.239   3.377   6.847  0.00  0.00    +0.019 A 
ATOM      6  C   UNL     1       9.518   3.841   6.586  0.00  0.00    +0.017 A 
ATOM      7  C   UNL     1       9.951   4.016   5.288  0.00  0.00    +0.025 A 
ATOM      8  C   UNL     1       9.104   3.725   4.224  0.00  0.00    +0.043 A 
ATOM      9  N   UNL     1       9.287   3.810   2.848  0.00  0.00    -0.280 N 
ATOM     10  C   UNL     1       8.188   3.417   2.181  0.00  0.00    +0.269 C 
ATOM     11  O   UNL     1       8.059   3.380   0.971  0.00  0.00    -0.268 OA
ATOM     12 BR   UNL     1       7.663   3.146   8.633  0.00  0.00    -0.050 Br
ATOM     13  H   UNL     1      10.105   4.111   2.423  0.00  0.00    +0.155 HD
ENDROOT
BRANCH   1  16
ATOM     14  C   UNL     1       4.247   2.008   1.393  0.00  0.00    +0.237 C 
ATOM     15  O   UNL     1       3.515   1.737   2.320  0.00  0.00    -0.274 OA
ATOM     16  N   UNL     1       5.497   2.455   1.629  0.00  0.00    -0.206 N 
ATOM     17  H   UNL     1       6.083   2.672   0.887  0.00  0.00    +0.177 HD
BRANCH  14  18
ATOM     18  C   UNL     1       3.761   1.845  -0.024  0.00  0.00    +0.139 C 
BRANCH  18  21
ATOM     19  C   UNL     1      -0.016   1.351   0.009  0.00  0.00    +0.008 A 
ATOM     20  C   UNL     1       1.183   2.038   0.002  0.00  0.00    +0.011 A 
ATOM     21  C   UNL     1       2.343   1.336  -0.013  0.00  0.00    -0.001 A 
ATOM     22  S   UNL     1       1.754  -0.349  -0.017  0.00  0.00    -0.101 S 
ATOM     23  C   UNL     1       0.002  -0.004   0.002  0.00  0.00    +0.045 A 
ENDBRANCH  18  21
ENDBRANCH  14  18
ENDBRANCH   1  16
TORSDOF 3
