REMARK  Name = ZINC31107669
REMARK  6 active torsions:
REMARK  status: ('A' for Active; 'I' for Inactive)
REMARK    1  A    between atoms: C_1  and  C_2
REMARK    2  A    between atoms: C_2  and  N_3
REMARK    3  A    between atoms: N_3  and  C_4
REMARK    4  A    between atoms: C_4  and  C_5
REMARK    5  A    between atoms: C_17  and  C_19
REMARK    6  A    between atoms: C_20  and  C_30
REMARK                            x       y       z     vdW  Elec       q    Type
REMARK                         _______ _______ _______ _____ _____    ______ ____
ROOT
ATOM      1  N   UNL     1      -1.313  -0.642   0.014  0.00  0.00    -0.289 N 
ATOM      2  C   UNL     1      -1.958  -0.846   1.179  0.00  0.00    +0.264 C 
ATOM      3  O   UNL     1      -1.434  -0.525   2.229  0.00  0.00    -0.268 OA
ENDROOT
BRANCH   2   4
ATOM      4  C   UNL     1      -3.294  -1.457   1.181  0.00  0.00    +0.106 A 
ATOM      5  C   UNL     1      -4.461  -0.826   0.852  0.00  0.00    -0.010 A 
ATOM      6  C   UNL     1      -5.482  -1.774   0.990  0.00  0.00    +0.042 A 
ATOM      7  C   UNL     1      -4.896  -2.970   1.407  0.00  0.00    +0.027 A 
ATOM      8  N   UNL     1      -3.582  -2.768   1.510  0.00  0.00    -0.354 N 
ATOM      9  H   UNL     1      -2.931  -3.435   1.777  0.00  0.00    +0.166 HD
ATOM     10  C   UNL     1      -5.691  -4.224   1.667  0.00  0.00    +0.054 C 
ATOM     11  C   UNL     1      -7.157  -3.852   1.903  0.00  0.00    +0.014 C 
ATOM     12  C   UNL     1      -7.687  -2.983   0.758  0.00  0.00    +0.080 C 
ATOM     13  C   UNL     1      -6.931  -1.663   0.767  0.00  0.00    +0.165 C 
ATOM     14  O   UNL     1      -7.484  -0.595   0.603  0.00  0.00    -0.292 OA
ATOM     15  C   UNL     1      -4.619   0.611   0.426  0.00  0.00    +0.047 C 
ENDBRANCH   2   4
BRANCH   1  17
ATOM     16  C   UNL     1       0.039   1.396  -0.016  0.00  0.00    +0.024 C 
ATOM     17  C   UNL     1       0.061  -0.133   0.017  0.00  0.00    +0.105 C 
ENDBRANCH   1  17
BRANCH   1  18
ATOM     18  C   UNL     1      -1.985  -0.928  -1.256  0.00  0.00    +0.182 C 
BRANCH  18  19
ATOM     19  C   UNL     1      -1.722  -2.358  -1.652  0.00  0.00    +0.128 A 
ATOM     20  N   UNL     1      -2.261  -2.814  -2.813  0.00  0.00    -0.309 N 
ATOM     21  H   UNL     1      -2.799  -2.220  -3.359  0.00  0.00    +0.170 HD
ATOM     22  C   UNL     1      -2.055  -4.091  -3.213  0.00  0.00    +0.259 A 
ATOM     23  O   UNL     1      -2.531  -4.513  -4.251  0.00  0.00    -0.267 OA
ATOM     24  C   UNL     1      -1.233  -4.947  -2.346  0.00  0.00    +0.065 A 
ATOM     25  C   UNL     1      -0.961  -6.276  -2.667  0.00  0.00    +0.015 A 
ATOM     26  C   UNL     1      -0.184  -7.034  -1.818  0.00  0.00    +0.001 A 
ATOM     27  C   UNL     1       0.327  -6.485  -0.649  0.00  0.00    +0.002 A 
ATOM     28  C   UNL     1       0.069  -5.175  -0.314  0.00  0.00    +0.028 A 
ATOM     29  C   UNL     1      -0.715  -4.386  -1.158  0.00  0.00    +0.078 A 
ATOM     30  N   UNL     1      -0.989  -3.089  -0.870  0.00  0.00    -0.232 NA
ENDBRANCH  18  19
ENDBRANCH   1  18
TORSDOF 4
