REMARK  Name = ZINC03367851
REMARK  8 active torsions:
REMARK  status: ('A' for Active; 'I' for Inactive)
REMARK    1  A    between atoms: C_1  and  C_2
REMARK    2  A    between atoms: C_5  and  N_9
REMARK    3  A    between atoms: C_6  and  C_8
REMARK    4  A    between atoms: C_10  and  S_14
REMARK    5  A    between atoms: S_14  and  C_15
REMARK    6  A    between atoms: C_15  and  C_17
REMARK    7  A    between atoms: C_15  and  C_18
REMARK    8  A    between atoms: N_20  and  C_21
REMARK                            x       y       z     vdW  Elec       q    Type
REMARK                         _______ _______ _______ _____ _____    ______ ____
ROOT
ATOM      1  C   UNL     1       5.056  -2.615  -0.258  0.00  0.00    +0.137 C 
ATOM      2  C   UNL     1       5.372  -2.577   1.238  0.00  0.00    +0.029 C 
ENDROOT
BRANCH   1   3
ATOM      3  C   UNL     1       3.795  -1.835  -0.525  0.00  0.00    +0.230 C 
ATOM      4  O   UNL     1       2.728  -2.408  -0.581  0.00  0.00    -0.274 OA
ATOM      5  N   UNL     1       3.853  -0.500  -0.703  0.00  0.00    -0.284 N 
ATOM      6  H   UNL     1       4.713  -0.052  -0.730  0.00  0.00    +0.155 HD
BRANCH   5   7
ATOM      7  C   UNL     1       2.672   0.239  -0.849  0.00  0.00    +0.037 A 
ATOM      8  C   UNL     1       2.584   1.520  -0.321  0.00  0.00    +0.027 A 
ATOM      9  C   UNL     1       1.420   2.249  -0.464  0.00  0.00    +0.051 A 
ATOM     10  C   UNL     1       0.335   1.704  -1.136  0.00  0.00    +0.162 A 
ATOM     11  C   UNL     1       0.421   0.423  -1.668  0.00  0.00    +0.164 A 
ATOM     12  C   UNL     1       1.589  -0.308  -1.523  0.00  0.00    +0.072 A 
ATOM     13  O   UNL     1      -0.630  -0.124  -2.338  0.00  0.00    -0.485 OA
ATOM     14  C   UNL     1      -1.909   0.489  -2.142  0.00  0.00    +0.270 C 
ATOM     15  C   UNL     1      -1.737   2.009  -2.263  0.00  0.00    +0.270 C 
ATOM     16  O   UNL     1      -0.807   2.435  -1.260  0.00  0.00    -0.485 OA
ENDBRANCH   5   7
ENDBRANCH   1   3
BRANCH   1  17
ATOM     17  S   UNL     1       4.826  -4.332  -0.783  0.00  0.00    -0.072 S 
BRANCH  17  19
ATOM     18  N   UNL     1       6.877  -6.225  -0.733  0.00  0.00    -0.187 N 
ATOM     19  C   UNL     1       6.451  -4.957  -0.507  0.00  0.00    +0.215 A 
ATOM     20  N   UNL     1       7.482  -4.279  -0.050  0.00  0.00    -0.101 NA
ATOM     21  N   UNL     1       8.516  -5.036   0.034  0.00  0.00    -0.022 NA
ATOM     22  N   UNL     1       8.233  -6.229  -0.364  0.00  0.00    -0.038 NA
BRANCH  18  27
ATOM     23  C   UNL     1       3.835 -10.578  -2.736  0.00  0.00    +0.044 C 
ATOM     24  C   UNL     1       4.642  -9.422  -2.204  0.00  0.00    -0.050 A 
ATOM     25  C   UNL     1       4.133  -8.635  -1.187  0.00  0.00    +0.005 A 
ATOM     26  C   UNL     1       4.873  -7.578  -0.694  0.00  0.00    +0.028 A 
ATOM     27  C   UNL     1       6.125  -7.301  -1.227  0.00  0.00    +0.073 A 
ATOM     28  C   UNL     1       6.633  -8.093  -2.247  0.00  0.00    -0.025 A 
ATOM     29  C   UNL     1       5.891  -9.152  -2.733  0.00  0.00    +0.008 A 
ATOM     30  C   UNL     1       7.994  -7.799  -2.824  0.00  0.00    +0.046 C 
ENDBRANCH  18  27
ENDBRANCH  17  19
ENDBRANCH   1  17
TORSDOF 5
