REMARK  Name = ZINC63759318
REMARK  5 active torsions:
REMARK  status: ('A' for Active; 'I' for Inactive)
REMARK    1  A    between atoms: C_1  and  N_2
REMARK    2  A    between atoms: N_2  and  C_3
REMARK    3  A    between atoms: C_10  and  C_12
REMARK    4  A    between atoms: N_18  and  C_21
REMARK    5  A    between atoms: C_21  and  C_22
REMARK                            x       y       z     vdW  Elec       q    Type
REMARK                         _______ _______ _______ _____ _____    ______ ____
ROOT
ATOM      1  C   UNL     1      -0.112  -3.584  -7.086  0.00  0.00    +0.253 C 
ATOM      2  O   UNL     1      -0.213  -3.169  -5.946  0.00  0.00    -0.269 OA
ATOM      3  N   UNL     1       0.038  -2.718  -8.108  0.00  0.00    -0.299 N 
ATOM      4  C   UNL     1       0.218  -1.284  -7.804  0.00  0.00    +0.106 C 
ATOM      5  C   UNL     1       1.293  -0.656  -8.711  0.00  0.00    +0.000 C 
ATOM      6  C   UNL     1       2.438  -1.630  -8.882  0.00  0.00    -0.077 C 
ATOM      7  N   UNL     1       2.222  -2.421 -10.092  0.00  0.00    +0.386 N 
ATOM      8  C   UNL     1       1.454  -3.592  -9.908  0.00  0.00    -0.059 C 
ATOM      9  C   UNL     1       0.024  -3.227  -9.463  0.00  0.00    +0.089 C 
ATOM     10  H   UNL     1       1.758  -1.839 -10.773  0.00  0.00    -0.081 HD
ENDROOT
BRANCH   1  20
ATOM     11  C   UNL     1      -0.092 -11.627  -9.621  0.00  0.00    +0.131 C 
ATOM     12  N   UNL     1      -0.382 -11.182  -8.256  0.00  0.00    -0.316 N 
ATOM     13  C   UNL     1      -0.698 -12.164  -7.216  0.00  0.00    +0.131 C 
ATOM     14  C   UNL     1      -0.357  -9.836  -7.949  0.00  0.00    +0.162 A 
ATOM     15  N   UNL     1      -0.103  -8.810  -8.736  0.00  0.00    -0.218 NA
ATOM     16  C   UNL     1      -0.116  -7.559  -8.294  0.00  0.00    +0.118 A 
ATOM     17  C   UNL     1      -0.414  -7.349  -6.934  0.00  0.00    +0.049 A 
ATOM     18  S   UNL     1      -0.668  -9.035  -6.384  0.00  0.00    -0.052 S 
ATOM     19  C   UNL     1      -0.428  -6.052  -6.470  0.00  0.00    +0.038 A 
ATOM     20  C   UNL     1      -0.153  -5.021  -7.347  0.00  0.00    +0.077 A 
ATOM     21  S   UNL     1       0.138  -5.887  -8.879  0.00  0.00    -0.064 S 
ENDBRANCH   1  20
BRANCH   7  22
ATOM     22  C   UNL     1       3.531  -2.806 -10.634  0.00  0.00    +0.018 C 
BRANCH  22  23
ATOM     23  C   UNL     1       4.247  -1.578 -11.136  0.00  0.00    +0.194 C 
ATOM     24  O   UNL     1       3.676  -0.508 -11.155  0.00  0.00    -0.278 OA
ATOM     25  N   UNL     1       5.522  -1.670 -11.564  0.00  0.00    -0.331 N 
ATOM     26  H   UNL     1       5.979  -2.525 -11.548  0.00  0.00    +0.145 HD
ATOM     27  H   UNL     1       5.983  -0.880 -11.887  0.00  0.00    +0.145 HD
ENDBRANCH  22  23
ENDBRANCH   7  22
TORSDOF 3
