REMARK  Name = ZINC27318481
REMARK  6 active torsions:
REMARK  status: ('A' for Active; 'I' for Inactive)
REMARK    1  A    between atoms: C_2  and  N_22
REMARK    2  A    between atoms: N_8  and  C1*_11
REMARK    3  A    between atoms: C3*_14  and  O3*_21
REMARK    4  A    between atoms: C4*_16  and  C5*_19
REMARK    5  A    between atoms: C5*_19  and  O5*_20
REMARK    6  A    between atoms: N_22  and  C_23
REMARK                            x       y       z     vdW  Elec       q    Type
REMARK                         _______ _______ _______ _____ _____    ______ ____
ROOT
ATOM      1  C   UNL     1      -1.218   2.086   0.019  0.00  0.00    +0.065 A 
ATOM      2  C   UNL     1      -0.017   1.387   0.010  0.00  0.00    +0.060 A 
ATOM      3  C   UNL     1       1.178   2.127   0.002  0.00  0.00    +0.129 A 
ATOM      4  C   UNL     1       1.110   3.528   0.011  0.00  0.00    +0.166 A 
ATOM      5  N   UNL     1      -0.065   4.142   0.025  0.00  0.00    -0.216 NA
ATOM      6  C   UNL     1      -1.200   3.470   0.032  0.00  0.00    +0.133 A 
ATOM      7 CL   UNL     1      -2.702   4.340   0.051  0.00  0.00    -0.062 Cl
ATOM      8  N   UNL     1       2.415   3.969   0.001  0.00  0.00    -0.288 N 
ATOM      9  C   UNL     1       3.218   2.868  -0.012  0.00  0.00    +0.203 A 
ATOM     10  N   UNL     1       2.492   1.789  -0.011  0.00  0.00    -0.232 NA
ENDROOT
BRANCH   8  11
ATOM     11  C1* UNL     1       2.858   5.365   0.005  0.00  0.00    +0.225 C 
ATOM     12  C2* UNL     1       2.943   5.915  -1.442  0.00  0.00    +0.088 C 
ATOM     13  C3* UNL     1       3.978   7.059  -1.292  0.00  0.00    +0.150 C 
ATOM     14  C4* UNL     1       4.742   6.713   0.002  0.00  0.00    +0.175 C 
ATOM     15  O4* UNL     1       4.215   5.467   0.488  0.00  0.00    -0.348 OA
BRANCH  13  16
ATOM     16  O3* UNL     1       4.870   7.079  -2.408  0.00  0.00    -0.389 OA
ATOM     17  H3* UNL     1       5.669   7.833  -2.460  0.00  0.00    +0.210 HD
ENDBRANCH  13  16
BRANCH  14  18
ATOM     18  C5* UNL     1       6.234   6.564  -0.299  0.00  0.00    +0.190 C 
BRANCH  18  19
ATOM     19  O5* UNL     1       6.946   6.343   0.920  0.00  0.00    -0.392 OA
ATOM     20  H5* UNL     1       8.038   6.212   0.903  0.00  0.00    +0.210 HD
ENDBRANCH  18  19
ENDBRANCH  14  18
ENDBRANCH   8  11
BRANCH   2  21
ATOM     21  N   UNL     1       0.002  -0.004   0.002  0.00  0.00    -0.339 N 
ATOM     22  H   UNL     1       0.962  -0.541  -0.010  0.00  0.00    +0.146 HD
BRANCH  21  23
ATOM     23  C   UNL     1      -1.256  -0.754   0.010  0.00  0.00    +0.070 C 
ATOM     24  C   UNL     1      -1.576  -1.407   1.365  0.00  0.00    +0.022 C 
ATOM     25  C   UNL     1      -2.072  -2.628   0.569  0.00  0.00    +0.004 C 
ATOM     26  C   UNL     1      -1.130  -2.176  -0.560  0.00  0.00    +0.022 C 
ENDBRANCH  21  23
ENDBRANCH   2  21
TORSDOF 6
