REMARK  Name = ZINC12576556
REMARK  8 active torsions:
REMARK  status: ('A' for Active; 'I' for Inactive)
REMARK    1  A    between atoms: C_1  and  O_2
REMARK    2  A    between atoms: O_2  and  C_3
REMARK    3  A    between atoms: C_5  and  C_12
REMARK    4  A    between atoms: C_12  and  N_64
REMARK    5  A    between atoms: C_21  and  C_22
REMARK    6  A    between atoms: C_21  and  N_66
REMARK    7  A    between atoms: C_22  and  C_23
REMARK    8  A    between atoms: C_23  and  C_24
REMARK                            x       y       z     vdW  Elec       q    Type
REMARK                         _______ _______ _______ _____ _____    ______ ____
ROOT
ATOM      1  C   UNL     1      -2.130   1.072   2.066  0.00  0.00    -0.078 C 
ATOM      2  C   UNL     1      -3.278   1.451   3.036  0.00  0.00    -0.015 C 
ATOM      3  C   UNL     1      -4.028   2.530   2.223  0.00  0.00    -0.061 C 
ATOM      4  C   UNL     1      -2.909   3.260   1.465  0.00  0.00    -0.073 C 
ATOM      5  C   UNL     1      -4.998   1.874   1.248  0.00  0.00    +0.001 C 
ATOM      6  C   UNL     1      -5.759   2.963   0.484  0.00  0.00    -0.018 C 
ATOM      7  C   UNL     1      -6.463   3.881   1.485  0.00  0.00    -0.079 C 
ATOM      8  C   UNL     1      -4.756   3.484   3.159  0.00  0.00    -0.074 C 
ATOM      9  N   UNL     1      -1.751   2.346   1.427  0.00  0.00    +0.383 N 
ATOM     10  H   UNL     1      -0.969   2.766   1.943  0.00  0.00    -0.081 HD
ATOM     11  N   UNL     1      -5.449   4.515   2.355  0.00  0.00    +0.380 N 
ATOM     12  H   UNL     1      -4.760   4.997   1.766  0.00  0.00    -0.082 HD
ENDROOT
BRANCH   9  13
ATOM     13  C   UNL     1      -1.333   2.112   0.020  0.00  0.00    -0.043 C 
BRANCH  13  16
ATOM     14  C   UNL     1       2.382   1.418  -0.013  0.00  0.00    +0.166 A 
ATOM     15  C   UNL     1       1.169   2.089   0.002  0.00  0.00    +0.051 A 
ATOM     16  C   UNL     1      -0.017   1.378   0.010  0.00  0.00    -0.057 A 
ATOM     17  C   UNL     1       0.002  -0.004   0.002  0.00  0.00    +0.051 A 
ATOM     18  C   UNL     1       1.210  -0.684  -0.013  0.00  0.00    +0.170 A 
ATOM     19  C   UNL     1       2.405   0.029  -0.021  0.00  0.00    +0.208 A 
ATOM     20  O   UNL     1       3.443  -0.859  -0.036  0.00  0.00    -0.449 OA
ATOM     21  C   UNL     1       2.877  -2.118   0.374  0.00  0.00    +0.467 C 
ATOM     22  O   UNL     1       1.497  -2.018  -0.024  0.00  0.00    -0.452 OA
BRANCH  14  24
ATOM     23  C   UNL     1       3.448   3.544  -0.011  0.00  0.00    +0.277 C 
ATOM     24  O   UNL     1       3.547   2.118  -0.020  0.00  0.00    -0.491 OA
ENDBRANCH  14  24
ENDBRANCH  13  16
ENDBRANCH   9  13
BRANCH  11  25
ATOM     25  C   UNL     1      -6.094   5.501   3.246  0.00  0.00    -0.078 C 
BRANCH  25  26
ATOM     26  C   UNL     1      -6.609   6.668   2.400  0.00  0.00    -0.014 C 
BRANCH  26  27
ATOM     27  C   UNL     1      -7.260   7.710   3.311  0.00  0.00    +0.033 C 
BRANCH  27  28
ATOM     28  C   UNL     1      -7.767   8.859   2.477  0.00  0.00    -0.047 A 
ATOM     29  C   UNL     1      -6.947   9.941   2.221  0.00  0.00    +0.003 A 
ATOM     30  C   UNL     1      -7.410  10.993   1.453  0.00  0.00    +0.000 A 
ATOM     31  C   UNL     1      -8.697  10.967   0.949  0.00  0.00    +0.000 A 
ATOM     32  C   UNL     1      -9.519   9.886   1.210  0.00  0.00    +0.000 A 
ATOM     33  C   UNL     1      -9.054   8.833   1.974  0.00  0.00    +0.003 A 
ENDBRANCH  27  28
ENDBRANCH  26  27
ENDBRANCH  25  26
ENDBRANCH  11  25
TORSDOF 7
