REMARK  Name = ZINC31645314
REMARK  9 active torsions:
REMARK  status: ('A' for Active; 'I' for Inactive)
REMARK    1  A    between atoms: C_1  and  C_2
REMARK    2  A    between atoms: C_4  and  C_26
REMARK    3  A    between atoms: C_9  and  S_11
REMARK    4  A    between atoms: S_11  and  C_12
REMARK    5  A    between atoms: C_12  and  C_14
REMARK    6  A    between atoms: C_12  and  C_20
REMARK    7  A    between atoms: N_22  and  C_23
REMARK    8  A    between atoms: C_23  and  C_24
REMARK    9  A    between atoms: C_23  and  C_25
REMARK                            x       y       z     vdW  Elec       q    Type
REMARK                         _______ _______ _______ _____ _____    ______ ____
ROOT
ATOM      1  C   UNL     1      -1.074   8.020   0.054  0.00  0.00    +0.170 C 
ENDROOT
BRANCH   1   2
ATOM      2  C   UNL     1      -0.312   7.916  -1.241  0.00  0.00    -0.025 A 
ATOM      3  C   UNL     1      -0.961   8.125  -2.444  0.00  0.00    +0.005 A 
ATOM      4  C   UNL     1      -0.261   8.034  -3.632  0.00  0.00    +0.000 A 
ATOM      5  C   UNL     1       1.087   7.724  -3.618  0.00  0.00    +0.000 A 
ATOM      6  C   UNL     1       1.735   7.510  -2.416  0.00  0.00    +0.000 A 
ATOM      7  C   UNL     1       1.035   7.606  -1.228  0.00  0.00    +0.005 A 
ENDBRANCH   1   2
BRANCH   1   8
ATOM      8  C   UNL     1      -1.645   9.408   0.191  0.00  0.00    +0.231 C 
ATOM      9  O   UNL     1      -2.810   9.614  -0.076  0.00  0.00    -0.274 OA
ATOM     10  N   UNL     1      -0.861  10.421   0.610  0.00  0.00    -0.312 N 
ATOM     11  H   UNL     1       0.196  10.235   0.852  0.00  0.00    +0.149 HD
BRANCH  10  12
ATOM     12  C   UNL     1      -1.416  11.770   0.743  0.00  0.00    +0.067 C 
ATOM     13  C   UNL     1      -2.083  11.915   2.112  0.00  0.00    +0.027 C 
ATOM     14  C   UNL     1      -0.291  12.800   0.612  0.00  0.00    +0.027 C 
ENDBRANCH  10  12
ENDBRANCH   1   8
BRANCH   1  15
ATOM     15  S   UNL     1      -2.424   6.808   0.061  0.00  0.00    -0.067 S 
BRANCH  15  24
ATOM     16  C   UNL     1       2.503   1.070  -0.017  0.00  0.00    +0.066 C 
ATOM     17  C   UNL     1       1.185   1.800   0.000  0.00  0.00    +0.044 A 
ATOM     18  C   UNL     1      -0.013   1.076   0.008  0.00  0.00    +0.046 A 
ATOM     19  C   UNL     1      -1.194   1.747   0.017  0.00  0.00    +0.045 A 
ATOM     20  N   UNL     1      -1.181   3.105   0.030  0.00  0.00    -0.200 N 
ATOM     21  C   UNL     1       0.006   3.783   0.022  0.00  0.00    +0.254 A 
ATOM     22  N   UNL     1       1.165   3.114   0.008  0.00  0.00    -0.216 NA
ATOM     23  N   UNL     1      -0.278   5.081   0.032  0.00  0.00    -0.183 NA
ATOM     24  C   UNL     1      -1.598   5.251   0.045  0.00  0.00    +0.212 A 
ATOM     25  N   UNL     1      -2.192   4.075   0.045  0.00  0.00    -0.137 NA
ATOM     26  C   UNL     1      -2.500   0.996   0.019  0.00  0.00    +0.066 C 
ENDBRANCH  15  24
ENDBRANCH   1  15
TORSDOF 5
