REMARK  Name = ZINC65008527
REMARK  10 active torsions:
REMARK  status: ('A' for Active; 'I' for Inactive)
REMARK    1  A    between atoms: C_1  and  C_2
REMARK    2  A    between atoms: C_5  and  N_8
REMARK    3  A    between atoms: N_11  and  C_12
REMARK    4  A    between atoms: N_11  and  C_13
REMARK    5  A    between atoms: C_13  and  C_14
REMARK    6  A    between atoms: C_18  and  C_24
REMARK    7  A    between atoms: N_22  and  C_23
REMARK    8  A    between atoms: N_26  and  C_27
REMARK    9  A    between atoms: C_27  and  C_28
REMARK   10  A    between atoms: C_27  and  C_29
REMARK                            x       y       z     vdW  Elec       q    Type
REMARK                         _______ _______ _______ _____ _____    ______ ____
ROOT
ATOM      1  C   UNL     1      -1.052  -6.928   2.864  0.00  0.00    +0.128 A 
ATOM      2  N   UNL     1      -1.717  -6.166   3.681  0.00  0.00    -0.231 NA
ATOM      3  C   UNL     1      -2.970  -6.663   3.850  0.00  0.00    +0.090 A 
ATOM      4  C   UNL     1      -4.072  -6.253   4.599  0.00  0.00    +0.043 A 
ATOM      5  C   UNL     1      -5.245  -7.001   4.558  0.00  0.00    +0.039 A 
ATOM      6  C   UNL     1      -5.316  -8.156   3.768  0.00  0.00    +0.015 A 
ATOM      7  C   UNL     1      -4.240  -8.560   3.034  0.00  0.00    +0.029 A 
ATOM      8  C   UNL     1      -3.059  -7.825   3.063  0.00  0.00    +0.069 A 
ATOM      9  N   UNL     1      -1.834  -7.963   2.449  0.00  0.00    -0.329 N 
ATOM     10  C   UNL     1      -1.442  -9.027   1.521  0.00  0.00    +0.150 C 
ENDROOT
BRANCH   5  11
ATOM     11  C   UNL     1      -6.418  -6.575   5.348  0.00  0.00    +0.244 C 
ATOM     12  O   UNL     1      -6.357  -5.573   6.033  0.00  0.00    -0.270 OA
ATOM     13  N   UNL     1      -7.555  -7.297   5.309  0.00  0.00    -0.309 N 
ATOM     14  H   UNL     1      -7.603  -8.097   4.761  0.00  0.00    +0.149 HD
BRANCH  13  15
ATOM     15  C   UNL     1      -8.718  -6.875   6.092  0.00  0.00    +0.067 C 
ATOM     16  C   UNL     1      -9.520  -5.842   5.298  0.00  0.00    +0.027 C 
ATOM     17  C   UNL     1      -9.601  -8.089   6.388  0.00  0.00    +0.027 C 
ENDBRANCH  13  15
ENDBRANCH   5  11
BRANCH   1  18
ATOM     18  C   UNL     1       0.373  -6.697   2.433  0.00  0.00    +0.183 C 
BRANCH  18  22
ATOM     19  N   UNL     1       2.623  -9.033   4.165  0.00  0.00    -0.269 N 
ATOM     20  C   UNL     1       1.787  -8.506   3.249  0.00  0.00    +0.307 C 
ATOM     21  O   UNL     1       1.486  -9.147   2.261  0.00  0.00    -0.252 OA
ATOM     22  N   UNL     1       1.283  -7.269   3.429  0.00  0.00    -0.281 N 
ATOM     23  C   UNL     1       1.645  -6.497   4.620  0.00  0.00    +0.134 C 
ATOM     24  H   UNL     1       2.809  -8.551   4.986  0.00  0.00    +0.156 HD
BRANCH  19  29
ATOM     25  C   UNL     1       5.061 -14.067   3.217  0.00  0.00    +0.044 C 
ATOM     26  C   UNL     1       4.414 -12.730   3.469  0.00  0.00    -0.050 A 
ATOM     27  C   UNL     1       3.122 -12.496   3.034  0.00  0.00    +0.005 A 
ATOM     28  C   UNL     1       2.526 -11.271   3.263  0.00  0.00    +0.023 A 
ATOM     29  C   UNL     1       3.225 -10.275   3.932  0.00  0.00    +0.035 A 
ATOM     30  C   UNL     1       4.521 -10.513   4.368  0.00  0.00    +0.023 A 
ATOM     31  C   UNL     1       5.110 -11.742   4.141  0.00  0.00    +0.005 A 
ENDBRANCH  19  29
ENDBRANCH  18  22
ENDBRANCH   1  18
TORSDOF 5
