REMARK  Name = ZINC64451330
REMARK  5 active torsions:
REMARK  status: ('A' for Active; 'I' for Inactive)
REMARK    1  A    between atoms: C_1  and  N_2
REMARK    2  A    between atoms: C_3  and  C_5
REMARK    3  A    between atoms: C_7  and  N_12
REMARK    4  A    between atoms: C_13  and  C_15
REMARK    5  A    between atoms: C_19  and  N_21
REMARK                            x       y       z     vdW  Elec       q    Type
REMARK                         _______ _______ _______ _____ _____    ______ ____
ROOT
ATOM      1  N   UNL     1       1.310  -4.929  -0.026  0.00  0.00    -0.281 N 
ATOM      2  C   UNL     1       1.429  -6.097   0.637  0.00  0.00    +0.248 C 
ATOM      3  O   UNL     1       0.455  -6.597   1.166  0.00  0.00    -0.270 OA
ATOM      4  H   UNL     1       2.070  -4.564  -0.505  0.00  0.00    +0.155 HD
ENDROOT
BRANCH   1   7
ATOM      5  C   UNL     1      -1.145  -2.179  -0.009  0.00  0.00    +0.074 A 
ATOM      6  C   UNL     1       0.074  -2.859  -0.012  0.00  0.00    +0.039 A 
ATOM      7  C   UNL     1       0.089  -4.244  -0.022  0.00  0.00    +0.035 A 
ATOM      8  C   UNL     1      -1.106  -4.954  -0.030  0.00  0.00    +0.026 A 
ATOM      9  C   UNL     1      -2.314  -4.284  -0.028  0.00  0.00    +0.041 A 
ATOM     10  C   UNL     1      -2.342  -2.901  -0.011  0.00  0.00    +0.136 A 
ATOM     11  F   UNL     1      -3.525  -2.249  -0.002  0.00  0.00    -0.205 F 
BRANCH   5  14
ATOM     12  C   UNL     1      -0.039   1.456   0.016  0.00  0.00    +0.128 C 
ATOM     13  N   UNL     1      -0.014  -0.008   0.005  0.00  0.00    -0.314 N 
ATOM     14  C   UNL     1      -1.170  -0.702   0.003  0.00  0.00    +0.247 C 
ATOM     15  O   UNL     1      -2.233  -0.112   0.010  0.00  0.00    -0.270 OA
ATOM     16  H   UNL     1       0.834  -0.479  -0.001  0.00  0.00    +0.149 HD
ENDBRANCH   5  14
ENDBRANCH   1   7
BRANCH   2  17
ATOM     17  C   UNL     1       2.742  -6.770   0.719  0.00  0.00    +0.039 A 
ATOM     18  C   UNL     1       3.863  -6.195   0.116  0.00  0.00    +0.014 A 
ATOM     19  C   UNL     1       5.085  -6.827   0.197  0.00  0.00    +0.018 A 
ATOM     20  C   UNL     1       5.203  -8.030   0.874  0.00  0.00    +0.048 A 
ATOM     21  C   UNL     1       4.096  -8.604   1.474  0.00  0.00    +0.141 A 
ATOM     22  C   UNL     1       2.868  -7.979   1.404  0.00  0.00    +0.047 A 
ATOM     23 BR   UNL     1       6.884  -8.890   0.980  0.00  0.00    -0.048 Br
BRANCH  21  24
ATOM     24  N   UNL     1       4.230  -9.890   2.195  0.00  0.00    +0.058 N 
ATOM     25  O   UNL     1       3.264 -10.393   2.719  0.00  0.00    -0.126 OA
ATOM     26  O   UNL     1       5.306 -10.437   2.261  0.00  0.00    -0.126 OA
ENDBRANCH  21  24
ENDBRANCH   2  17
TORSDOF 4
