REMARK  Name = ZINC01199634
REMARK  9 active torsions:
REMARK  status: ('A' for Active; 'I' for Inactive)
REMARK    1  A    between atoms: C_1  and  O_2
REMARK    2  A    between atoms: O_2  and  C_3
REMARK    3  A    between atoms: C_5  and  C_13
REMARK    4  A    between atoms: C_7  and  O_11
REMARK    5  A    between atoms: C_8  and  O_9
REMARK    6  A    between atoms: O_9  and  C_10
REMARK    7  A    between atoms: O_11  and  C_12
REMARK    8  A    between atoms: C_25  and  S_28
REMARK    9  A    between atoms: S_28  and  C_29
REMARK                            x       y       z     vdW  Elec       q    Type
REMARK                         _______ _______ _______ _____ _____    ______ ____
ROOT
ATOM      1  C   UNL     1      -3.270   3.732   1.291  0.00  0.00    +0.294 C 
ATOM      2  N   UNL     1      -2.403   3.747   0.129  0.00  0.00    -0.305 N 
ATOM      3  C   UNL     1      -1.210   3.016   0.157  0.00  0.00    +0.039 A 
ATOM      4  C   UNL     1       0.020   3.646   0.179  0.00  0.00    +0.024 A 
ATOM      5  C   UNL     1       1.178   2.892   0.235  0.00  0.00    +0.002 A 
ATOM      6  C   UNL     1       1.113   1.510   0.269  0.00  0.00    +0.001 A 
ATOM      7  C   UNL     1      -0.108   0.866   0.241  0.00  0.00    +0.012 A 
ATOM      8  C   UNL     1      -1.280   1.610   0.174  0.00  0.00    +0.028 A 
ATOM      9  C   UNL     1      -2.606   0.962   0.111  0.00  0.00    +0.156 A 
ATOM     10  C   UNL     1      -3.644   1.413   0.956  0.00  0.00    +0.248 A 
ATOM     11  N   UNL     1      -4.827   0.828   0.878  0.00  0.00    -0.184 NA
ATOM     12  C   UNL     1      -5.004  -0.168   0.015  0.00  0.00    +0.212 A 
ATOM     13  N   UNL     1      -4.014  -0.582  -0.766  0.00  0.00    -0.122 NA
ATOM     14  N   UNL     1      -2.847  -0.037  -0.725  0.00  0.00    -0.141 NA
ATOM     15  O   UNL     1      -3.411   2.423   1.828  0.00  0.00    -0.449 OA
ATOM     16  H   UNL     1      -2.653   4.254  -0.659  0.00  0.00    +0.150 HD
ENDROOT
BRANCH   1  19
ATOM     17  C   UNL     1      -1.517   6.646   2.941  0.00  0.00    +0.166 A 
ATOM     18  C   UNL     1      -2.059   5.812   1.974  0.00  0.00    +0.058 A 
ATOM     19  C   UNL     1      -2.682   4.635   2.344  0.00  0.00    +0.018 A 
ATOM     20  C   UNL     1      -2.771   4.286   3.679  0.00  0.00    +0.058 A 
ATOM     21  C   UNL     1      -2.226   5.111   4.651  0.00  0.00    +0.166 A 
ATOM     22  C   UNL     1      -1.600   6.295   4.283  0.00  0.00    +0.204 A 
BRANCH  17  24
ATOM     23  C   UNL     1      -0.855   8.099   1.179  0.00  0.00    +0.277 C 
ATOM     24  O   UNL     1      -0.904   7.803   2.576  0.00  0.00    -0.491 OA
ENDBRANCH  17  24
BRANCH  22  25
ATOM     25  O   UNL     1      -1.069   7.111   5.235  0.00  0.00    -0.488 OA
ATOM     26  C   UNL     1      -1.927   8.115   5.780  0.00  0.00    +0.277 C 
ENDBRANCH  22  25
BRANCH  21  27
ATOM     27  O   UNL     1      -2.310   4.764   5.964  0.00  0.00    -0.491 OA
ATOM     28  C   UNL     1      -2.968   3.533   6.268  0.00  0.00    +0.277 C 
ENDBRANCH  21  27
ENDBRANCH   1  19
BRANCH  12  29
ATOM     29  S   UNL     1      -6.578  -0.952  -0.093  0.00  0.00    -0.088 S 
ATOM     30  C   UNL     1      -6.232  -2.177  -1.379  0.00  0.00    +0.093 C 
ENDBRANCH  12  29
TORSDOF 5
