REMARK  Name = ZINC12580972
REMARK  7 active torsions:
REMARK  status: ('A' for Active; 'I' for Inactive)
REMARK    1  A    between atoms: C_3  and  N_9
REMARK    2  A    between atoms: C_10  and  C_12
REMARK    3  A    between atoms: C_12  and  C_13
REMARK    4  A    between atoms: C_13  and  C_14
REMARK    5  A    between atoms: N_16  and  N_17
REMARK    6  A    between atoms: C_18  and  C_19
REMARK    7  A    between atoms: C_24  and  O_25
REMARK                            x       y       z     vdW  Elec       q    Type
REMARK                         _______ _______ _______ _____ _____    ______ ____
ROOT
ATOM      1  C   UNL     1       5.859   6.495  -0.452  0.00  0.00    +0.233 C 
ATOM      2  O   UNL     1       6.915   5.898  -0.465  0.00  0.00    -0.274 OA
ATOM      3  N   UNL     1       5.842   7.839  -0.546  0.00  0.00    -0.207 N 
ATOM      4  H   UNL     1       4.998   8.316  -0.536  0.00  0.00    +0.177 HD
ENDROOT
BRANCH   3   5
ATOM      5  N   UNL     1       7.045   8.548  -0.660  0.00  0.00    -0.188 NA
ATOM      6  C   UNL     1       7.030   9.842  -0.751  0.00  0.00    +0.142 C 
BRANCH   6   7
ATOM      7  C   UNL     1       8.295  10.588  -0.871  0.00  0.00    +0.037 A 
ATOM      8  C   UNL     1       8.283  11.982  -0.964  0.00  0.00    +0.028 A 
ATOM      9  C   UNL     1       9.471  12.674  -1.075  0.00  0.00    +0.019 A 
ATOM     10  C   UNL     1      10.677  11.992  -1.096  0.00  0.00    +0.019 A 
ATOM     11  C   UNL     1      10.702  10.613  -1.005  0.00  0.00    +0.047 A 
ATOM     12  C   UNL     1       9.518   9.903  -0.887  0.00  0.00    +0.126 A 
ATOM     13 BR   UNL     1       9.454  14.560  -1.201  0.00  0.00    -0.050 Br
BRANCH  12  14
ATOM     14  O   UNL     1       9.542   8.549  -0.792  0.00  0.00    -0.506 OA
ATOM     15  H   UNL     1       9.502   8.094  -1.644  0.00  0.00    +0.292 HD
ENDBRANCH  12  14
ENDBRANCH   6   7
ENDBRANCH   3   5
BRANCH   1  16
ATOM     16  C   UNL     1       4.565   5.732  -0.329  0.00  0.00    +0.107 C 
BRANCH  16  17
ATOM     17  C   UNL     1       4.862   4.234  -0.238  0.00  0.00    +0.105 C 
BRANCH  17  19
ATOM     18  N   UNL     1       3.584   2.127  -0.021  0.00  0.00    -0.284 N 
ATOM     19  C   UNL     1       3.568   3.471  -0.116  0.00  0.00    +0.218 C 
ATOM     20  O   UNL     1       2.512   4.067  -0.103  0.00  0.00    -0.275 OA
ATOM     21  H   UNL     1       4.429   1.656   0.049  0.00  0.00    +0.155 HD
BRANCH  18  24
ATOM     22  C   UNL     1       0.065   1.243  -0.620  0.00  0.00    +0.022 A 
ATOM     23  C   UNL     1       1.250   1.953  -0.618  0.00  0.00    +0.026 A 
ATOM     24  C   UNL     1       2.381   1.410  -0.024  0.00  0.00    +0.052 A 
ATOM     25  C   UNL     1       2.318   0.154   0.567  0.00  0.00    +0.064 A 
ATOM     26  C   UNL     1       1.129  -0.551   0.562  0.00  0.00    +0.041 A 
ATOM     27  C   UNL     1       0.004  -0.007  -0.031  0.00  0.00    +0.042 A 
ATOM     28 CL   UNL     1      -1.488  -0.895  -0.035  0.00  0.00    -0.083 Cl
ATOM     29 CL   UNL     1       3.730  -0.528   1.311  0.00  0.00    -0.082 Cl
ENDBRANCH  18  24
ENDBRANCH  17  19
ENDBRANCH  16  17
ENDBRANCH   1  16
TORSDOF 7
