REMARK  Name = ZINC41630724
REMARK  7 active torsions:
REMARK  status: ('A' for Active; 'I' for Inactive)
REMARK    1  A    between atoms: C_1  and  C_2
REMARK    2  A    between atoms: C_2  and  C_4
REMARK    3  A    between atoms: C_2  and  S_15
REMARK    4  A    between atoms: C_10  and  C_12
REMARK    5  A    between atoms: C_12  and  C_13
REMARK    6  A    between atoms: C_12  and  C_14
REMARK    7  A    between atoms: S_15  and  C_16
REMARK                            x       y       z     vdW  Elec       q    Type
REMARK                         _______ _______ _______ _____ _____    ______ ____
ROOT
ATOM      1  C   UNL     1      -0.019   1.526   0.010  0.00  0.00    +0.029 C 
ATOM      2  C   UNL     1       0.002  -0.004   0.002  0.00  0.00    +0.137 C 
ENDROOT
BRANCH   2   3
ATOM      3  C   UNL     1       0.731  -0.503   1.223  0.00  0.00    +0.232 C 
ATOM      4  O   UNL     1       1.911  -0.775   1.156  0.00  0.00    -0.274 OA
ATOM      5  N   UNL     1       0.071  -0.647   2.389  0.00  0.00    -0.262 N 
ATOM      6  C   UNL     1       0.744  -1.108   3.516  0.00  0.00    +0.188 A 
ATOM      7  N   UNL     1       2.011  -1.447   3.647  0.00  0.00    -0.126 NA
ATOM      8  N   UNL     1       2.484  -1.853   4.747  0.00  0.00    -0.144 NA
ATOM      9  C   UNL     1       1.688  -1.939   5.794  0.00  0.00    +0.106 A 
ATOM     10  S   UNL     1       0.154  -1.372   5.073  0.00  0.00    -0.035 S 
ATOM     11  H   UNL     1      -0.872  -0.430   2.443  0.00  0.00    +0.157 HD
BRANCH   9  12
ATOM     12  C   UNL     1       1.988  -2.385   7.202  0.00  0.00    +0.040 C 
ATOM     13  C   UNL     1       2.495  -3.829   7.183  0.00  0.00    +0.014 C 
ATOM     14  C   UNL     1       3.059  -1.476   7.807  0.00  0.00    +0.014 C 
ENDBRANCH   9  12
ENDBRANCH   2   3
BRANCH   2  15
ATOM     15  S   UNL     1       0.851  -0.589  -1.490  0.00  0.00    -0.073 S 
BRANCH  15  16
ATOM     16  C   UNL     1      -0.189  -0.057  -2.809  0.00  0.00    +0.193 A 
ATOM     17  N   UNL     1      -1.299   0.617  -2.514  0.00  0.00    -0.183 NA
ATOM     18  C   UNL     1      -2.119   1.043  -3.459  0.00  0.00    +0.282 A 
ATOM     19  O   UNL     1      -3.243   1.727  -3.145  0.00  0.00    -0.265 OA
ATOM     20  C   UNL     1      -1.792   0.766  -4.809  0.00  0.00    +0.067 A 
ATOM     21  C   UNL     1      -2.605   1.182  -5.869  0.00  0.00    +0.015 A 
ATOM     22  C   UNL     1      -2.240   0.887  -7.151  0.00  0.00    +0.001 A 
ATOM     23  C   UNL     1      -1.072   0.180  -7.417  0.00  0.00    +0.002 A 
ATOM     24  C   UNL     1      -0.259  -0.239  -6.406  0.00  0.00    +0.028 A 
ATOM     25  C   UNL     1      -0.602   0.047  -5.078  0.00  0.00    +0.079 A 
ATOM     26  N   UNL     1       0.167  -0.338  -4.048  0.00  0.00    -0.222 NA
ENDBRANCH  15  16
ENDBRANCH   2  15
TORSDOF 4
