REMARK  Name = ZINC43559663
REMARK  6 active torsions:
REMARK  status: ('A' for Active; 'I' for Inactive)
REMARK    1  A    between atoms: C_1  and  C_2
REMARK    2  A    between atoms: C_6  and  C_23
REMARK    3  A    between atoms: N_8  and  C_9
REMARK    4  A    between atoms: C_9  and  C_11
REMARK    5  A    between atoms: C_9  and  C_12
REMARK    6  A    between atoms: C_18  and  C_20
REMARK                            x       y       z     vdW  Elec       q    Type
REMARK                         _______ _______ _______ _____ _____    ______ ____
ROOT
ATOM      1  C   UNL     1       1.901  -0.814   0.387  0.00  0.00    +0.017 C 
ATOM      2  C   UNL     1       2.192   0.643   0.022  0.00  0.00    -0.004 C 
ENDROOT
BRANCH   1   8
ATOM      3  C   UNL     1      -0.777   1.064   0.160  0.00  0.00    -0.013 C 
ATOM      4  C   UNL     1      -0.393  -0.372  -0.203  0.00  0.00    -0.070 C 
ATOM      5  C   UNL     1      -1.644  -1.285  -0.188  0.00  0.00    -0.017 C 
ATOM      6  C   UNL     1      -1.011  -2.680   0.058  0.00  0.00    -0.017 C 
ATOM      7  C   UNL     1       0.165  -2.365   1.007  0.00  0.00    -0.070 C 
ATOM      8  N   UNL     1       0.505  -0.940   0.825  0.00  0.00    +0.391 N 
ATOM      9  C   UNL     1       1.370  -3.238   0.650  0.00  0.00    -0.013 C 
ATOM     10  H   UNL     1       0.378  -0.448   1.696  0.00  0.00    -0.080 HD
ENDBRANCH   1   8
BRANCH   1  11
ATOM     11  C   UNL     1       2.819  -1.245   1.502  0.00  0.00    +0.203 C 
ATOM     12  O   UNL     1       2.382  -1.392   2.624  0.00  0.00    -0.277 OA
ATOM     13  N   UNL     1       4.124  -1.467   1.253  0.00  0.00    -0.279 N 
ATOM     14  C   UNL     1       4.699  -1.294  -0.099  0.00  0.00    +0.178 C 
ATOM     15  S   UNL     1       6.204  -2.359   0.012  0.00  0.00    -0.139 S 
ATOM     16  C   UNL     1       6.496  -2.117   1.821  0.00  0.00    +0.104 C 
ATOM     17  C   UNL     1       5.042  -1.883   2.300  0.00  0.00    +0.199 C 
BRANCH  17  18
ATOM     18  C   UNL     1       5.052  -0.827   3.375  0.00  0.00    +0.377 C 
ATOM     19  O   UNL     1       5.610  -1.044   4.437  0.00  0.00    -0.244 OA
ATOM     20  O   UNL     1       4.503   0.244   3.182  0.00  0.00    -0.244 OA
ENDBRANCH  17  18
ENDBRANCH   1  11
TORSDOF 3
