REMARK  Name = ZINC44886942
REMARK  5 active torsions:
REMARK  status: ('A' for Active; 'I' for Inactive)
REMARK    1  A    between atoms: C_1  and  C_2
REMARK    2  A    between atoms: C_2  and  N_9
REMARK    3  A    between atoms: N_9  and  S_10
REMARK    4  A    between atoms: S_10  and  C_13
REMARK    5  A    between atoms: C_18  and  N_19
REMARK                            x       y       z     vdW  Elec       q    Type
REMARK                         _______ _______ _______ _____ _____    ______ ____
ROOT
ATOM      1  S   UNL     1       0.042   0.079  -2.779  0.00  0.00    +0.061 S 
ATOM      2  O   UNL     1       0.029   1.488  -2.597  0.00  0.00    -0.153 OA
ATOM      3  O   UNL     1       0.697  -0.540  -3.878  0.00  0.00    -0.153 OA
ENDROOT
BRANCH   1   4
ATOM      4  C   UNL     1      -1.641  -0.437  -2.839  0.00  0.00    +0.127 A 
ATOM      5  C   UNL     1      -2.654   0.500  -2.776  0.00  0.00    +0.045 A 
ATOM      6  C   UNL     1      -3.976   0.095  -2.822  0.00  0.00    +0.020 A 
ATOM      7  C   UNL     1      -4.288  -1.249  -2.933  0.00  0.00    +0.017 A 
ATOM      8  C   UNL     1      -3.279  -2.190  -2.998  0.00  0.00    +0.026 A 
ATOM      9  C   UNL     1      -1.951  -1.786  -2.957  0.00  0.00    +0.051 A 
ATOM     10 BR   UNL     1      -5.360   1.380  -2.734  0.00  0.00    -0.050 Br
BRANCH   9  11
ATOM     11  N   UNL     1      -0.928  -2.735  -3.027  0.00  0.00    -0.356 N 
ATOM     12  H   UNL     1      -0.005  -2.465  -2.898  0.00  0.00    +0.142 HD
ATOM     13  H   UNL     1      -1.141  -3.665  -3.206  0.00  0.00    +0.142 HD
ENDBRANCH   9  11
ENDBRANCH   1   4
BRANCH   1  14
ATOM     14  N   UNL     1       0.705  -0.569  -1.407  0.00  0.00    -0.182 NA
ATOM     15  H   UNL     1       1.381  -1.261  -1.475  0.00  0.00    +0.149 HD
BRANCH  14  17
ATOM     16  C   UNL     1       0.353   1.431  -0.066  0.00  0.00    +0.031 C 
ATOM     17  C   UNL     1       0.270  -0.097  -0.090  0.00  0.00    +0.058 C 
ATOM     18  C   UNL     1      -1.187  -0.511   0.118  0.00  0.00    +0.047 C 
ATOM     19  C   UNL     1      -1.258  -1.910   0.791  0.00  0.00    +0.168 C 
ATOM     20  S   UNL     1       0.137  -1.747   1.989  0.00  0.00    -0.029 S 
ATOM     21  O   UNL     1       0.762  -3.013   2.154  0.00  0.00    -0.174 OA
ATOM     22  O   UNL     1      -0.309  -1.030   3.132  0.00  0.00    -0.174 OA
ATOM     23  C   UNL     1       1.227  -0.661   0.978  0.00  0.00    +0.189 C 
ENDBRANCH  14  17
ENDBRANCH   1  14
TORSDOF 4
