REMARK  Name = ZINC12239176
REMARK  8 active torsions:
REMARK  status: ('A' for Active; 'I' for Inactive)
REMARK    1  A    between atoms: C_1  and  C_2
REMARK    2  A    between atoms: C_2  and  N_3
REMARK    3  A    between atoms: C_7  and  S_13
REMARK    4  A    between atoms: S_13  and  N_16
REMARK    5  A    between atoms: N_16  and  C_17
REMARK    6  A    between atoms: C_17  and  C_18
REMARK    7  A    between atoms: C_23  and  C_24
REMARK    8  A    between atoms: C_23  and  N_54
REMARK                            x       y       z     vdW  Elec       q    Type
REMARK                         _______ _______ _______ _____ _____    ______ ____
ROOT
ATOM      1  N   UNL     1      -0.698   1.558   1.213  0.00  0.00    -0.190 NA
ATOM      2  H   UNL     1      -1.353   2.272   1.151  0.00  0.00    +0.148 HD
ENDROOT
BRANCH   1   3
ATOM      3  S   UNL     1      -0.356   0.875   2.682  0.00  0.00    +0.059 S 
ATOM      4  O   UNL     1      -1.151   1.557   3.643  0.00  0.00    -0.153 OA
ATOM      5  O   UNL     1      -0.422  -0.533   2.500  0.00  0.00    -0.153 OA
BRANCH   3  10
ATOM      6  N   UNL     1       5.344   1.891   3.789  0.00  0.00    -0.274 N 
ATOM      7  C   UNL     1       3.956   1.864   3.647  0.00  0.00    +0.090 A 
ATOM      8  C   UNL     1       2.942   2.719   4.049  0.00  0.00    +0.031 A 
ATOM      9  C   UNL     1       1.628   2.412   3.753  0.00  0.00    +0.031 A 
ATOM     10  C   UNL     1       1.323   1.256   3.056  0.00  0.00    +0.109 A 
ATOM     11  C   UNL     1       2.328   0.397   2.657  0.00  0.00    +0.077 A 
ATOM     12  C   UNL     1       3.650   0.698   2.945  0.00  0.00    +0.159 A 
ATOM     13  O   UNL     1       4.820   0.065   2.686  0.00  0.00    -0.407 OA
ATOM     14  C   UNL     1       5.833   0.785   3.194  0.00  0.00    +0.421 A 
ATOM     15  O   UNL     1       7.010   0.485   3.127  0.00  0.00    -0.223 OA
BRANCH   6  17
ATOM     16  C   UNL     1       6.285   2.574   5.940  0.00  0.00    +0.027 C 
ATOM     17  C   UNL     1       6.126   2.931   4.461  0.00  0.00    +0.125 C 
ENDBRANCH   6  17
ENDBRANCH   3  10
ENDBRANCH   1   3
BRANCH   1  18
ATOM     18  C   UNL     1      -0.013   1.086   0.008  0.00  0.00    +0.107 C 
BRANCH  18  19
ATOM     19  C   UNL     1      -0.753   1.593  -1.232  0.00  0.00    -0.014 C 
ATOM     20  C   UNL     1      -2.122   0.888  -1.364  0.00  0.00    -0.016 C 
ATOM     21  C   UNL     1      -2.245   0.654  -2.891  0.00  0.00    -0.078 C 
ATOM     22  C   UNL     1       0.020   1.213  -2.508  0.00  0.00    -0.074 C 
ATOM     23  N   UNL     1      -0.862   0.328  -3.271  0.00  0.00    +0.383 N 
ATOM     24  H   UNL     1      -0.659  -0.650  -3.035  0.00  0.00    -0.081 HD
BRANCH  23  25
ATOM     25  C   UNL     1      -0.663   0.530  -4.737  0.00  0.00    -0.043 C 
BRANCH  25  26
ATOM     26  C   UNL     1      -1.733  -0.207  -5.501  0.00  0.00    -0.064 A 
ATOM     27  C   UNL     1      -1.519  -1.512  -5.903  0.00  0.00    +0.002 A 
ATOM     28  C   UNL     1      -2.502  -2.191  -6.600  0.00  0.00    +0.000 A 
ATOM     29  C   UNL     1      -3.694  -1.561  -6.902  0.00  0.00    +0.000 A 
ATOM     30  C   UNL     1      -3.906  -0.254  -6.503  0.00  0.00    +0.000 A 
ATOM     31  C   UNL     1      -2.925   0.423  -5.803  0.00  0.00    +0.002 A 
ENDBRANCH  25  26
ENDBRANCH  23  25
ENDBRANCH  18  19
ENDBRANCH   1  18
TORSDOF 7
