REMARK  Name = ZINC67249547
REMARK  8 active torsions:
REMARK  status: ('A' for Active; 'I' for Inactive)
REMARK    1  A    between atoms: C_1  and  C_2
REMARK    2  A    between atoms: C_7  and  O_28
REMARK    3  A    between atoms: C_8  and  C_12
REMARK    4  A    between atoms: C_12  and  N_13
REMARK    5  A    between atoms: N_13  and  C_14
REMARK    6  A    between atoms: C_14  and  C_15
REMARK    7  A    between atoms: C_19  and  N_21
REMARK    8  A    between atoms: O_28  and  C_29
REMARK                            x       y       z     vdW  Elec       q    Type
REMARK                         _______ _______ _______ _____ _____    ______ ____
ROOT
ATOM      1  N   UNL     1       0.180  -6.404   0.978  0.00  0.00    +0.384 N 
ATOM      2  H   UNL     1      -0.469  -7.128   0.711  0.00  0.00    -0.085 HD
ATOM      3  H   UNL     1       0.911  -6.335   0.286  0.00  0.00    -0.085 HD
ENDROOT
BRANCH   1   4
ATOM      4  C   UNL     1      -0.528  -5.120   1.072  0.00  0.00    -0.043 C 
BRANCH   4  11
ATOM      5  C   UNL     1      -1.486  -1.747  -5.364  0.00  0.00    +0.052 C 
ATOM      6  C   UNL     1      -1.245  -3.018  -4.546  0.00  0.00    +0.175 C 
ATOM      7  C   UNL     1      -2.587  -3.645  -4.100  0.00  0.00    +0.083 C 
ATOM      8  C   UNL     1      -2.244  -4.170  -2.719  0.00  0.00    +0.001 A 
ATOM      9  C   UNL     1      -2.881  -5.064  -1.887  0.00  0.00    +0.053 A 
ATOM     10  C   UNL     1      -2.328  -5.376  -0.653  0.00  0.00    +0.122 A 
ATOM     11  C   UNL     1      -1.135  -4.783  -0.266  0.00  0.00    -0.019 A 
ATOM     12  C   UNL     1      -0.501  -3.885  -1.100  0.00  0.00    +0.051 A 
ATOM     13  C   UNL     1      -1.053  -3.566  -2.338  0.00  0.00    +0.125 A 
ATOM     14  O   UNL     1      -0.605  -2.705  -3.297  0.00  0.00    -0.488 OA
BRANCH  10  15
ATOM     15  O   UNL     1      -2.952  -6.257   0.173  0.00  0.00    -0.495 OA
ATOM     16  C   UNL     1      -4.177  -6.827  -0.293  0.00  0.00    +0.277 C 
ENDBRANCH  10  15
ENDBRANCH   4  11
ENDBRANCH   1   4
BRANCH   1  17
ATOM     17  C   UNL     1       0.772  -6.733   2.282  0.00  0.00    -0.046 C 
BRANCH  17  18
ATOM     18  C   UNL     1       1.499  -8.049   2.187  0.00  0.00    -0.063 A 
ATOM     19  C   UNL     1       0.827  -9.230   2.446  0.00  0.00    +0.002 A 
ATOM     20  C   UNL     1       1.490 -10.440   2.359  0.00  0.00    +0.002 A 
ATOM     21  C   UNL     1       2.827 -10.473   2.012  0.00  0.00    +0.023 A 
ATOM     22  C   UNL     1       3.504  -9.289   1.750  0.00  0.00    +0.036 A 
ATOM     23  C   UNL     1       2.834  -8.076   1.834  0.00  0.00    +0.025 A 
BRANCH  22  24
ATOM     24  N   UNL     1       4.858  -9.319   1.399  0.00  0.00    -0.271 N 
ATOM     25  C   UNL     1       5.195  -9.439  -0.014  0.00  0.00    +0.113 C 
ATOM     26  C   UNL     1       6.635  -8.989  -0.262  0.00  0.00    +0.020 C 
ATOM     27  C   UNL     1       7.553  -9.716   0.729  0.00  0.00    +0.011 C 
ATOM     28  C   UNL     1       7.243  -9.207   2.139  0.00  0.00    +0.096 C 
ATOM     29  C   UNL     1       5.760  -9.230   2.377  0.00  0.00    +0.220 C 
ATOM     30  O   UNL     1       5.362  -9.171   3.521  0.00  0.00    -0.275 OA
ENDBRANCH  22  24
ENDBRANCH  17  18
ENDBRANCH   1  17
TORSDOF 6
