REMARK  Name = ZINC05348125
REMARK  7 active torsions:
REMARK  status: ('A' for Active; 'I' for Inactive)
REMARK    1  A    between atoms: C_1  and  C_2
REMARK    2  A    between atoms: C_2  and  C_3
REMARK    3  A    between atoms: C_3  and  C_4
REMARK    4  A    between atoms: C_4  and  N_5
REMARK    5  A    between atoms: C_10  and  C_26
REMARK    6  A    between atoms: C_26  and  C_27
REMARK    7  A    between atoms: C_30  and  O_33
REMARK                            x       y       z     vdW  Elec       q    Type
REMARK                         _______ _______ _______ _____ _____    ______ ____
ROOT
ATOM      1  N   UNL     1      -0.146  -5.219  -3.183  0.00  0.00    -0.242 N 
ATOM      2  C   UNL     1      -0.236  -4.664  -1.970  0.00  0.00    +0.224 C 
ATOM      3  O   UNL     1      -1.261  -4.530  -1.336  0.00  0.00    -0.275 OA
ATOM      4  C   UNL     1       1.148  -4.231  -1.500  0.00  0.00    +0.073 C 
ATOM      5  C   UNL     1       1.218  -2.689  -1.467  0.00  0.00    -0.053 C 
ATOM      6  C   UNL     1       2.594  -3.318  -3.248  0.00  0.00    +0.050 C 
ATOM      7  C   UNL     1       2.056  -4.643  -2.695  0.00  0.00    +0.088 C 
ATOM      8  C   UNL     1       1.094  -5.258  -3.685  0.00  0.00    +0.225 C 
ATOM      9  O   UNL     1       1.398  -5.715  -4.766  0.00  0.00    -0.275 OA
ATOM     10  C   UNL     1       4.006  -3.456  -3.741  0.00  0.00    -0.028 A 
ATOM     11  C   UNL     1       5.187  -3.835  -3.143  0.00  0.00    +0.004 A 
ATOM     12  C   UNL     1       6.358  -3.864  -3.878  0.00  0.00    +0.000 A 
ATOM     13  C   UNL     1       6.340  -3.513  -5.216  0.00  0.00    +0.002 A 
ATOM     14  C   UNL     1       5.159  -3.134  -5.820  0.00  0.00    +0.023 A 
ATOM     15  C   UNL     1       3.975  -3.102  -5.087  0.00  0.00    +0.036 A 
ATOM     16  N   UNL     1       2.676  -2.759  -5.466  0.00  0.00    -0.286 N 
ATOM     17  C   UNL     1       1.804  -2.861  -4.444  0.00  0.00    +0.211 C 
ATOM     18  O   UNL     1       0.614  -2.629  -4.481  0.00  0.00    -0.277 OA
ATOM     19  H   UNL     1       2.429  -2.481  -6.362  0.00  0.00    +0.155 HD
ATOM     20  N   UNL     1       2.476  -2.375  -2.149  0.00  0.00    +0.394 N 
ATOM     21  H   UNL     1       3.266  -2.483  -1.502  0.00  0.00    -0.083 HD
ATOM     22  H   UNL     1       2.455  -1.413  -2.507  0.00  0.00    -0.083 HD
ENDROOT
BRANCH   1  23
ATOM     23  C   UNL     1      -1.309  -5.742  -3.904  0.00  0.00    +0.116 C 
BRANCH  23  24
ATOM     24  C   UNL     1      -1.509  -7.217  -3.548  0.00  0.00    +0.019 C 
BRANCH  24  26
ATOM     25  C   UNL     1      -2.923  -9.238  -3.945  0.00  0.00    +0.004 C 
ATOM     26  C   UNL     1      -2.723  -7.763  -4.301  0.00  0.00    -0.002 C 
ENDBRANCH  24  26
ENDBRANCH  23  24
ENDBRANCH   1  23
BRANCH   5  27
ATOM     27  C   UNL     1       1.226  -2.187  -0.022  0.00  0.00    +0.020 C 
BRANCH  27  28
ATOM     28  C   UNL     1       1.208  -0.680  -0.013  0.00  0.00    -0.049 A 
ATOM     29  C   UNL     1       0.002  -0.004   0.002  0.00  0.00    +0.007 A 
ATOM     30  C   UNL     1      -0.017   1.377   0.010  0.00  0.00    +0.045 A 
ATOM     31  C   UNL     1       1.176   2.086   0.002  0.00  0.00    +0.117 A 
ATOM     32  C   UNL     1       2.385   1.405  -0.013  0.00  0.00    +0.045 A 
ATOM     33  C   UNL     1       2.398   0.024  -0.021  0.00  0.00    +0.007 A 
BRANCH  31  34
ATOM     34  O   UNL     1       1.160   3.445   0.009  0.00  0.00    -0.507 OA
ATOM     35  H   UNL     1       1.164   3.834   0.894  0.00  0.00    +0.292 HD
ENDBRANCH  31  34
ENDBRANCH  27  28
ENDBRANCH   5  27
TORSDOF 6
