REMARK  Name = ZINC04463923
REMARK  7 active torsions:
REMARK  status: ('A' for Active; 'I' for Inactive)
REMARK    1  A    between atoms: C_1  and  C_2
REMARK    2  A    between atoms: C_3  and  C_8
REMARK    3  A    between atoms: C_4  and  C_7
REMARK    4  A    between atoms: C_8  and  S_9
REMARK    5  A    between atoms: S_9  and  C_10
REMARK    6  A    between atoms: C_14  and  C_17
REMARK    7  A    between atoms: N_25  and  N_26
REMARK                            x       y       z     vdW  Elec       q    Type
REMARK                         _______ _______ _______ _____ _____    ______ ____
ROOT
ATOM      1  C   UNL     1      -3.011  -2.407  -1.399  0.00  0.00    +0.190 A 
ATOM      2  N   UNL     1      -3.349  -2.702  -0.160  0.00  0.00    -0.215 NA
ATOM      3  C   UNL     1      -4.366  -3.517   0.094  0.00  0.00    +0.117 A 
ATOM      4  C   UNL     1      -5.120  -4.110  -0.933  0.00  0.00    +0.081 A 
ATOM      5  C   UNL     1      -6.199  -4.984  -0.481  0.00  0.00    +0.004 A 
ATOM      6  C   UNL     1      -6.386  -5.153   0.849  0.00  0.00    +0.056 A 
ATOM      7  S   UNL     1      -5.114  -4.139   1.578  0.00  0.00    -0.076 S 
ATOM      8  C   UNL     1      -4.728  -3.777  -2.266  0.00  0.00    +0.280 A 
ATOM      9  O   UNL     1      -5.326  -4.244  -3.220  0.00  0.00    -0.265 OA
ATOM     10  N   UNL     1      -3.691  -2.940  -2.455  0.00  0.00    -0.209 N 
ENDROOT
BRANCH   5  11
ATOM     11  C   UNL     1      -7.072  -5.674  -1.460  0.00  0.00    -0.017 A 
ATOM     12  C   UNL     1      -7.673  -4.953  -2.491  0.00  0.00    +0.008 A 
ATOM     13  C   UNL     1      -8.480  -5.602  -3.403  0.00  0.00    +0.001 A 
ATOM     14  C   UNL     1      -8.703  -6.963  -3.289  0.00  0.00    +0.000 A 
ATOM     15  C   UNL     1      -8.114  -7.682  -2.264  0.00  0.00    +0.001 A 
ATOM     16  C   UNL     1      -7.300  -7.045  -1.350  0.00  0.00    +0.008 A 
ENDBRANCH   5  11
BRANCH  10  17
ATOM     17  N   UNL     1      -3.313  -2.619  -3.728  0.00  0.00    -0.293 N 
ATOM     18  H   UNL     1      -2.526  -1.986  -3.722  0.00  0.00    +0.163 HD
ATOM     19  H   UNL     1      -3.106  -3.448  -4.264  0.00  0.00    +0.163 HD
ENDBRANCH  10  17
BRANCH   1  20
ATOM     20  S   UNL     1      -1.659  -1.317  -1.696  0.00  0.00    -0.081 S 
BRANCH  20  21
ATOM     21  C   UNL     1      -1.173  -0.948   0.008  0.00  0.00    +0.117 C 
BRANCH  21  24
ATOM     22  C   UNL     1       1.982  -1.708  -0.027  0.00  0.00    +0.069 C 
ATOM     23  C   UNL     1       1.378  -0.327  -0.013  0.00  0.00    +0.085 A 
ATOM     24  C   UNL     1       0.002  -0.004   0.002  0.00  0.00    +0.027 A 
ATOM     25  C   UNL     1      -0.016   1.350   0.009  0.00  0.00    +0.138 A 
ATOM     26  O   UNL     1       1.264   1.747  -0.001  0.00  0.00    -0.359 OA
ATOM     27  N   UNL     1       2.022   0.805  -0.013  0.00  0.00    -0.083 NA
ATOM     28  C   UNL     1      -1.236   2.236   0.020  0.00  0.00    +0.089 C 
ENDBRANCH  21  24
ENDBRANCH  20  21
ENDBRANCH   1  20
TORSDOF 5
