REMARK  Name = ZINC55145552
REMARK  4 active torsions:
REMARK  status: ('A' for Active; 'I' for Inactive)
REMARK    1  A    between atoms: C_3  and  C_9
REMARK    2  A    between atoms: C_4  and  O_8
REMARK    3  A    between atoms: C_6  and  O_7
REMARK    4  A    between atoms: N_10  and  N_11
REMARK                            x       y       z     vdW  Elec       q    Type
REMARK                         _______ _______ _______ _____ _____    ______ ____
ROOT
ATOM      1  N   UNL     1       4.731   0.147  -0.058  0.00  0.00    -0.144 NA
ATOM      2  C   UNL     1       5.872  -0.514  -0.009  0.00  0.00    +0.157 C 
ATOM      3  C   UNL     1       6.064  -1.980  -0.023  0.00  0.00    +0.029 A 
ATOM      4  C   UNL     1       5.183  -3.056  -0.087  0.00  0.00    +0.027 A 
ATOM      5  C   UNL     1       5.676  -4.346  -0.082  0.00  0.00    +0.019 A 
ATOM      6  C   UNL     1       7.043  -4.566  -0.014  0.00  0.00    +0.017 A 
ATOM      7  C   UNL     1       7.924  -3.506   0.050  0.00  0.00    +0.025 A 
ATOM      8  C   UNL     1       7.447  -2.200   0.046  0.00  0.00    +0.043 A 
ATOM      9  N   UNL     1       8.104  -0.975   0.101  0.00  0.00    -0.280 N 
ATOM     10  C   UNL     1       7.234   0.049   0.065  0.00  0.00    +0.269 C 
ATOM     11  O   UNL     1       7.519   1.232   0.093  0.00  0.00    -0.268 OA
ATOM     12 BR   UNL     1       4.486  -5.813  -0.168  0.00  0.00    -0.050 Br
ATOM     13  H   UNL     1       9.067  -0.873   0.153  0.00  0.00    +0.155 HD
ENDROOT
BRANCH   1  15
ATOM     14  C   UNL     1       3.592   2.098  -0.091  0.00  0.00    +0.146 C 
ATOM     15  N   UNL     1       4.732   1.437  -0.042  0.00  0.00    -0.156 NA
BRANCH  14  18
ATOM     16  C   UNL     1       1.232  -0.591  -0.999  0.00  0.00    +0.046 A 
ATOM     17  C   UNL     1       2.401   0.076  -0.781  0.00  0.00    +0.016 A 
ATOM     18  C   UNL     1       2.379   1.402  -0.319  0.00  0.00    +0.036 A 
ATOM     19  C   UNL     1       1.142   2.036  -0.081  0.00  0.00    +0.129 A 
ATOM     20  C   UNL     1      -0.034   1.345  -0.307  0.00  0.00    +0.091 A 
ATOM     21  C   UNL     1       0.009   0.035  -0.765  0.00  0.00    +0.120 A 
BRANCH  21  22
ATOM     22  O   UNL     1      -1.147  -0.640  -0.985  0.00  0.00    -0.507 OA
ATOM     23  H   UNL     1      -1.471  -1.127  -0.215  0.00  0.00    +0.292 HD
ENDBRANCH  21  22
BRANCH  19  24
ATOM     24  O   UNL     1       1.107   3.316   0.366  0.00  0.00    -0.506 OA
ATOM     25  H   UNL     1       1.025   3.976  -0.336  0.00  0.00    +0.292 HD
ENDBRANCH  19  24
ENDBRANCH  14  18
ENDBRANCH   1  15
TORSDOF 4
