REMARK  Name = ZINC02457805
REMARK  10 active torsions:
REMARK  status: ('A' for Active; 'I' for Inactive)
REMARK    1  A    between atoms: C_1  and  C_2
REMARK    2  A    between atoms: C_2  and  N_3
REMARK    3  A    between atoms: N_3  and  C_4
REMARK    4  A    between atoms: N_3  and  C_6
REMARK    5  A    between atoms: C_4  and  C_5
REMARK    6  A    between atoms: C_6  and  C_7
REMARK    7  A    between atoms: C_7  and  N_8
REMARK    8  A    between atoms: C_9  and  C_11
REMARK    9  A    between atoms: C_11  and  O_29
REMARK   10  A    between atoms: N_21  and  C_22
REMARK                            x       y       z     vdW  Elec       q    Type
REMARK                         _______ _______ _______ _____ _____    ______ ____
ROOT
ATOM      1  C   UNL     1       2.966  -4.872  -1.009  0.00  0.00    +0.247 C 
ATOM      2  C   UNL     1       1.673  -5.542  -1.414  0.00  0.00    +0.034 A 
ATOM      3  C   UNL     1       0.864  -5.005  -2.388  0.00  0.00    +0.025 A 
ATOM      4  C   UNL     1      -0.314  -5.648  -2.734  0.00  0.00    +0.018 A 
ATOM      5  C   UNL     1      -0.672  -6.825  -2.100  0.00  0.00    +0.017 A 
ATOM      6  C   UNL     1       0.140  -7.365  -1.121  0.00  0.00    +0.025 A 
ATOM      7  C   UNL     1       1.321  -6.724  -0.771  0.00  0.00    +0.043 A 
ATOM      8  N   UNL     1       2.154  -7.254   0.215  0.00  0.00    -0.269 N 
ATOM      9  C   UNL     1       3.303  -6.675   0.586  0.00  0.00    +0.314 C 
ATOM     10  O   UNL     1       3.966  -7.209   1.454  0.00  0.00    -0.252 OA
ATOM     11  N   UNL     1       3.757  -5.531   0.044  0.00  0.00    -0.214 N 
ATOM     12 BR   UNL     1      -1.432  -4.917  -4.072  0.00  0.00    -0.050 Br
ATOM     13  H   UNL     1       1.889  -8.080   0.650  0.00  0.00    +0.156 HD
ENDROOT
BRANCH  11  14
ATOM     14  C   UNL     1       4.966  -4.974   0.475  0.00  0.00    +0.041 A 
ATOM     15  C   UNL     1       5.070  -4.441   1.754  0.00  0.00    +0.024 A 
ATOM     16  C   UNL     1       6.265  -3.892   2.176  0.00  0.00    +0.002 A 
ATOM     17  C   UNL     1       7.357  -3.872   1.328  0.00  0.00    +0.000 A 
ATOM     18  C   UNL     1       7.256  -4.402   0.054  0.00  0.00    +0.002 A 
ATOM     19  C   UNL     1       6.066  -4.958  -0.372  0.00  0.00    +0.024 A 
ENDBRANCH  11  14
BRANCH   1  21
ATOM     20  N   UNL     1       2.019  -3.291   0.641  0.00  0.00    -0.313 N 
ATOM     21  C   UNL     1       2.639  -3.477  -0.541  0.00  0.00    +0.269 C 
ATOM     22  O   UNL     1       2.934  -2.522  -1.228  0.00  0.00    -0.270 OA
ATOM     23  H   UNL     1       1.783  -4.054   1.191  0.00  0.00    +0.149 HD
BRANCH  20  24
ATOM     24  C   UNL     1       1.702  -1.935   1.096  0.00  0.00    +0.086 C 
BRANCH  24  25
ATOM     25  C   UNL     1       1.005  -2.003   2.457  0.00  0.00    -0.060 C 
BRANCH  25  26
ATOM     26  N   UNL     1       0.687  -0.644   2.913  0.00  0.00    +0.380 N 
ATOM     27  H   UNL     1       1.527  -0.085   2.919  0.00  0.00    -0.082 HD
BRANCH  26  29
ATOM     28  C   UNL     1      -0.519   1.423   2.392  0.00  0.00    -0.017 C 
ATOM     29  C   UNL     1      -0.296  -0.040   2.003  0.00  0.00    -0.082 C 
ENDBRANCH  26  29
BRANCH  26  30
ATOM     30  C   UNL     1       0.128  -0.701   4.270  0.00  0.00    -0.082 C 
ATOM     31  C   UNL     1       1.199  -1.197   5.243  0.00  0.00    -0.017 C 
ENDBRANCH  26  30
ENDBRANCH  25  26
ENDBRANCH  24  25
ENDBRANCH  20  24
ENDBRANCH   1  21
BRANCH   1  32
ATOM     32  O   UNL     1       3.787  -4.761  -2.173  0.00  0.00    -0.360 OA
ATOM     33  H   UNL     1       3.369  -4.288  -2.906  0.00  0.00    +0.213 HD
ENDBRANCH   1  32
TORSDOF 8
