REMARK  Name = ZINC63394001
REMARK  5 active torsions:
REMARK  status: ('A' for Active; 'I' for Inactive)
REMARK    1  A    between atoms: C_2  and  C_3
REMARK    2  A    between atoms: C_3  and  N_4
REMARK    3  A    between atoms: N_4  and  C_5
REMARK    4  A    between atoms: C_5  and  N_7
REMARK    5  A    between atoms: N_7  and  N_8
REMARK                            x       y       z     vdW  Elec       q    Type
REMARK                         _______ _______ _______ _____ _____    ______ ____
ROOT
ATOM      1  N   UNL     1       1.419  -3.401   3.217  0.00  0.00    -0.237 N 
ATOM      2  C   UNL     1       1.466  -4.275   4.268  0.00  0.00    +0.202 C 
ATOM      3  N   UNL     1       2.548  -5.018   4.435  0.00  0.00    -0.147 NA
ATOM      4  C   UNL     1       2.623  -5.942   5.385  0.00  0.00    +0.248 C 
ATOM      5  O   UNL     1       3.654  -6.570   5.528  0.00  0.00    -0.273 OA
ATOM      6  C   UNL     1       1.459  -6.224   6.285  0.00  0.00    +0.131 C 
ATOM      7  C   UNL     1       0.374  -5.196   6.085  0.00  0.00    +0.038 C 
ATOM      8  N   UNL     1       0.416  -4.347   5.099  0.00  0.00    -0.331 N 
ATOM      9  C   UNL     1      -0.706  -5.144   7.083  0.00  0.00    -0.002 A 
ATOM     10  C   UNL     1      -1.879  -4.433   6.812  0.00  0.00    +0.010 A 
ATOM     11  C   UNL     1      -2.882  -4.383   7.756  0.00  0.00    +0.001 A 
ATOM     12  C   UNL     1      -2.723  -5.035   8.968  0.00  0.00    +0.000 A 
ATOM     13  C   UNL     1      -1.567  -5.742   9.239  0.00  0.00    +0.004 A 
ATOM     14  C   UNL     1      -0.550  -5.808   8.304  0.00  0.00    -0.038 A 
ATOM     15  C   UNL     1       0.686  -6.603   8.624  0.00  0.00    +0.043 C 
ATOM     16  C   UNL     1       1.868  -6.166   7.758  0.00  0.00    -0.009 C 
ATOM     17  C   UNL     1       3.041  -7.119   7.998  0.00  0.00    +0.008 C 
ATOM     18  C   UNL     1       3.453  -7.061   9.470  0.00  0.00    +0.001 C 
ATOM     19  C   UNL     1       3.875  -5.634   9.825  0.00  0.00    +0.000 C 
ATOM     20  C   UNL     1       2.702  -4.681   9.587  0.00  0.00    +0.001 C 
ATOM     21  C   UNL     1       2.289  -4.739   8.115  0.00  0.00    +0.008 C 
ATOM     22  H   UNL     1      -0.336  -3.751   4.959  0.00  0.00    +0.168 HD
ATOM     23  H   UNL     1       0.635  -2.846   3.082  0.00  0.00    +0.173 HD
ENDROOT
BRANCH   1  24
ATOM     24  N   UNL     1       2.503  -3.308   2.335  0.00  0.00    -0.246 N 
ATOM     25  H   UNL     1       3.287  -3.863   2.469  0.00  0.00    +0.172 HD
BRANCH  24  26
ATOM     26  C   UNL     1       2.457  -2.447   1.299  0.00  0.00    +0.147 C 
ATOM     27  S   UNL     1       3.782  -2.333   0.221  0.00  0.00    -0.017 S 
BRANCH  26  28
ATOM     28  N   UNL     1       1.367  -1.676   1.111  0.00  0.00    -0.322 N 
ATOM     29  H   UNL     1       0.617  -1.740   1.722  0.00  0.00    +0.148 HD
BRANCH  28  30
ATOM     30  C   UNL     1       1.317  -0.740  -0.015  0.00  0.00    +0.130 C 
BRANCH  30  32
ATOM     31  C   UNL     1      -0.016   1.306   0.009  0.00  0.00    +0.005 C 
ATOM     32  C   UNL     1       0.002  -0.004   0.002  0.00  0.00    -0.016 C 
ENDBRANCH  30  32
ENDBRANCH  28  30
ENDBRANCH  26  28
ENDBRANCH  24  26
ENDBRANCH   1  24
TORSDOF 5
