REMARK  Name = ZINC16884895
REMARK  13 active torsions:
REMARK  status: ('A' for Active; 'I' for Inactive)
REMARK    1  A    between atoms: C_1  and  C_2
REMARK    2  A    between atoms: C_2  and  O_3
REMARK    3  A    between atoms: O_3  and  C_4
REMARK    4  A    between atoms: C_4  and  C_6
REMARK    5  A    between atoms: C_9  and  N_12
REMARK    6  A    between atoms: N_12  and  N_13
REMARK    7  A    between atoms: C_16  and  C_37
REMARK    8  A    between atoms: C_17  and  C_30
REMARK    9  A    between atoms: N_20  and  C_21
REMARK   10  A    between atoms: C_21  and  C_22
REMARK   11  A    between atoms: C_25  and  C_29
REMARK   12  A    between atoms: C_27  and  C_28
REMARK   13  A    between atoms: C_30  and  C_31
REMARK                            x       y       z     vdW  Elec       q    Type
REMARK                         _______ _______ _______ _____ _____    ______ ____
ROOT
ATOM      1  N   UNL     1       1.120  -2.123  -0.044  0.00  0.00    -0.236 N 
ATOM      2  C   UNL     1       1.116  -0.755  -0.022  0.00  0.00    +0.215 A 
ATOM      3  N   UNL     1      -0.033  -0.110  -0.007  0.00  0.00    -0.219 NA
ATOM      4  C   UNL     1      -0.081   1.220   0.014  0.00  0.00    +0.050 A 
ATOM      5  C   UNL     1       1.074   1.947   0.020  0.00  0.00    +0.042 A 
ATOM      6  C   UNL     1       2.304   1.267   0.003  0.00  0.00    +0.259 A 
ATOM      7  O   UNL     1       3.357   1.885   0.008  0.00  0.00    -0.267 OA
ATOM      8  N   UNL     1       2.300  -0.083  -0.017  0.00  0.00    -0.275 N 
ATOM      9  C   UNL     1      -1.413   1.925   0.025  0.00  0.00    +0.066 C 
ATOM     10  H   UNL     1       1.961  -2.606  -0.055  0.00  0.00    +0.173 HD
ENDROOT
BRANCH   1  11
ATOM     11  N   UNL     1      -0.092  -2.827  -0.050  0.00  0.00    -0.264 N 
ATOM     12  H   UNL     1      -0.933  -2.344  -0.038  0.00  0.00    +0.170 HD
BRANCH  11  16
ATOM     13  C   UNL     1      -0.082  -6.983  -0.115  0.00  0.00    +0.059 A 
ATOM     14  C   UNL     1      -1.294  -6.285  -0.098  0.00  0.00    +0.017 A 
ATOM     15  C   UNL     1      -1.294  -4.914  -0.077  0.00  0.00    +0.025 A 
ATOM     16  C   UNL     1      -0.089  -4.217  -0.072  0.00  0.00    +0.044 A 
ATOM     17  C   UNL     1       1.120  -4.908  -0.094  0.00  0.00    +0.025 A 
ATOM     18  C   UNL     1       1.127  -6.279  -0.110  0.00  0.00    +0.017 A 
BRANCH  13  19
ATOM     19  C   UNL     1      -0.078  -8.457  -0.137  0.00  0.00    +0.339 C 
ATOM     20  O   UNL     1      -1.129  -9.067  -0.141  0.00  0.00    -0.245 OA
BRANCH  19  21
ATOM     21  O   UNL     1       1.090  -9.127  -0.153  0.00  0.00    -0.461 OA
BRANCH  21  23
ATOM     22  C   UNL     1       2.433 -11.159  -0.190  0.00  0.00    +0.048 C 
ATOM     23  C   UNL     1       1.018 -10.578  -0.174  0.00  0.00    +0.229 C 
ENDBRANCH  21  23
ENDBRANCH  19  21
ENDBRANCH  13  19
ENDBRANCH  11  16
ENDBRANCH   1  11
BRANCH   8  24
ATOM     24  C   UNL     1       3.564  -0.823  -0.035  0.00  0.00    +0.163 C 
BRANCH  24  25
ATOM     25  C   UNL     1       3.923  -1.170  -1.457  0.00  0.00    -0.025 A 
ATOM     26  C   UNL     1       3.158  -0.685  -2.501  0.00  0.00    +0.006 A 
ATOM     27  C   UNL     1       3.489  -1.001  -3.806  0.00  0.00    +0.004 A 
ATOM     28  C   UNL     1       4.580  -1.809  -4.065  0.00  0.00    -0.050 A 
ATOM     29  C   UNL     1       5.343  -2.298  -3.021  0.00  0.00    +0.007 A 
ATOM     30  C   UNL     1       5.013  -1.979  -1.717  0.00  0.00    -0.045 A 
ATOM     31  C   UNL     1       5.844  -2.512  -0.578  0.00  0.00    +0.044 C 
ATOM     32  C   UNL     1       4.939  -2.157  -5.487  0.00  0.00    +0.044 C 
ENDBRANCH  24  25
ENDBRANCH   8  24
BRANCH   5  33
ATOM     33  C   UNL     1       1.031   3.453   0.044  0.00  0.00    +0.077 C 
BRANCH  33  34
ATOM     34  C   UNL     1       1.148   3.936   1.466  0.00  0.00    -0.043 A 
ATOM     35  C   UNL     1       0.009   4.128   2.227  0.00  0.00    +0.004 A 
ATOM     36  C   UNL     1       0.116   4.567   3.533  0.00  0.00    +0.000 A 
ATOM     37  C   UNL     1       1.361   4.823   4.076  0.00  0.00    +0.000 A 
ATOM     38  C   UNL     1       2.499   4.637   3.314  0.00  0.00    +0.000 A 
ATOM     39  C   UNL     1       2.393   4.193   2.009  0.00  0.00    +0.004 A 
ENDBRANCH  33  34
ENDBRANCH   5  33
TORSDOF 9
