REMARK  Name = ZINC16600836
REMARK  9 active torsions:
REMARK  status: ('A' for Active; 'I' for Inactive)
REMARK    1  A    between atoms: C_1  and  C_2
REMARK    2  A    between atoms: C_2  and  C_3
REMARK    3  A    between atoms: C_2  and  C_4
REMARK    4  A    between atoms: C_4  and  C_6
REMARK    5  A    between atoms: C_4  and  N_23
REMARK    6  A    between atoms: N_11  and  C_14
REMARK    7  A    between atoms: C_17  and  N_20
REMARK    8  A    between atoms: N_23  and  S_24
REMARK    9  A    between atoms: S_24  and  C_27
REMARK                            x       y       z     vdW  Elec       q    Type
REMARK                         _______ _______ _______ _____ _____    ______ ____
ROOT
ATOM      1  C   UNL     1       1.265   7.440  -1.084  0.00  0.00    +0.235 C 
ATOM      2  O   UNL     1       2.127   8.103  -0.549  0.00  0.00    -0.274 OA
ATOM      3  N   UNL     1       0.551   6.553  -0.363  0.00  0.00    -0.297 N 
ATOM      4  C   UNL     1       0.878   6.290   1.047  0.00  0.00    +0.126 C 
ATOM      5  C   UNL     1       1.010   4.775   1.242  0.00  0.00    +0.124 C 
ATOM      6  N   UNL     1      -0.207   4.114   0.753  0.00  0.00    -0.327 N 
ATOM      7  C   UNL     1      -0.385   4.326  -0.690  0.00  0.00    +0.124 C 
ATOM      8  C   UNL     1      -0.574   5.822  -0.964  0.00  0.00    +0.126 C 
ENDROOT
BRANCH   6   9
ATOM      9  C   UNL     1      -0.195   2.752   1.061  0.00  0.00    +0.030 A 
ATOM     10  C   UNL     1      -1.260   1.944   0.684  0.00  0.00    +0.025 A 
ATOM     11  C   UNL     1      -1.244   0.597   0.990  0.00  0.00    +0.034 A 
ATOM     12  C   UNL     1      -0.171   0.053   1.671  0.00  0.00    +0.126 A 
ATOM     13  C   UNL     1       0.891   0.855   2.048  0.00  0.00    +0.034 A 
ATOM     14  C   UNL     1       0.882   2.203   1.746  0.00  0.00    +0.025 A 
BRANCH  12  15
ATOM     15  N   UNL     1      -0.157  -1.391   1.997  0.00  0.00    +0.056 N 
ATOM     16  O   UNL     1      -1.092  -2.098   1.666  0.00  0.00    -0.126 OA
ATOM     17  O   UNL     1       0.788  -1.871   2.596  0.00  0.00    -0.126 OA
ENDBRANCH  12  15
ENDBRANCH   6   9
BRANCH   1  18
ATOM     18  C   UNL     1       0.990   7.607  -2.557  0.00  0.00    +0.165 C 
BRANCH  18  20
ATOM     19  C   UNL     1       1.322   6.604  -4.821  0.00  0.00    +0.009 C 
ATOM     20  C   UNL     1       1.617   6.444  -3.328  0.00  0.00    +0.010 C 
ATOM     21  C   UNL     1       3.130   6.440  -3.105  0.00  0.00    +0.009 C 
ENDBRANCH  18  20
BRANCH  18  22
ATOM     22  N   UNL     1       1.570   8.870  -3.021  0.00  0.00    -0.178 NA
ATOM     23  H   UNL     1       2.533   8.990  -3.021  0.00  0.00    +0.149 HD
BRANCH  22  24
ATOM     24  S   UNL     1       0.583  10.091  -3.546  0.00  0.00    +0.059 S 
ATOM     25  O   UNL     1       1.431  11.175  -3.901  0.00  0.00    -0.153 OA
ATOM     26  O   UNL     1      -0.332   9.508  -4.463  0.00  0.00    -0.153 OA
BRANCH  24  27
ATOM     27  C   UNL     1      -0.365  10.627  -2.160  0.00  0.00    +0.107 A 
ATOM     28  C   UNL     1       0.111  11.638  -1.347  0.00  0.00    +0.028 A 
ATOM     29  C   UNL     1      -0.633  12.059  -0.260  0.00  0.00    +0.003 A 
ATOM     30  C   UNL     1      -1.853  11.469   0.013  0.00  0.00    +0.020 A 
ATOM     31  C   UNL     1      -2.329  10.457  -0.800  0.00  0.00    +0.043 A 
ATOM     32  C   UNL     1      -1.587  10.040  -1.891  0.00  0.00    +0.048 A 
ATOM     33 CL   UNL     1      -3.861   9.716  -0.458  0.00  0.00    -0.083 Cl
ENDBRANCH  24  27
ENDBRANCH  22  24
ENDBRANCH  18  22
ENDBRANCH   1  18
TORSDOF 7
