REMARK  Name = ZINC33034907
REMARK  8 active torsions:
REMARK  status: ('A' for Active; 'I' for Inactive)
REMARK    1  A    between atoms: C_1  and  C_2
REMARK    2  A    between atoms: C_7  and  S_12
REMARK    3  A    between atoms: C_9  and  C_11
REMARK    4  A    between atoms: S_12  and  C_13
REMARK    5  A    between atoms: C_13  and  C_15
REMARK    6  A    between atoms: C_13  and  C_21
REMARK    7  A    between atoms: N_23  and  C_24
REMARK    8  A    between atoms: C_28  and  N_30
REMARK                            x       y       z     vdW  Elec       q    Type
REMARK                         _______ _______ _______ _____ _____    ______ ____
ROOT
ATOM      1  C   UNL     1       0.140   1.492  -0.018  0.00  0.00    +0.170 C 
ENDROOT
BRANCH   1   2
ATOM      2  C   UNL     1       1.539   2.021   0.171  0.00  0.00    -0.025 A 
ATOM      3  C   UNL     1       2.529   1.696  -0.737  0.00  0.00    +0.005 A 
ATOM      4  C   UNL     1       3.811   2.184  -0.566  0.00  0.00    +0.000 A 
ATOM      5  C   UNL     1       4.105   2.991   0.518  0.00  0.00    +0.000 A 
ATOM      6  C   UNL     1       3.115   3.312   1.428  0.00  0.00    +0.000 A 
ATOM      7  C   UNL     1       1.833   2.827   1.255  0.00  0.00    +0.005 A 
ENDBRANCH   1   2
BRANCH   1   8
ATOM      8  C   UNL     1       0.168  -0.014  -0.009  0.00  0.00    +0.235 C 
ATOM      9  O   UNL     1       0.229  -0.625  -1.055  0.00  0.00    -0.274 OA
ATOM     10  N   UNL     1       0.124  -0.683   1.160  0.00  0.00    -0.284 N 
ATOM     11  H   UNL     1       0.156  -0.130   2.111  0.00  0.00    +0.155 HD
BRANCH  10  12
ATOM     12  C   UNL     1       0.038  -2.080   1.165  0.00  0.00    +0.036 A 
ATOM     13  C   UNL     1      -0.664  -2.737   0.163  0.00  0.00    +0.025 A 
ATOM     14  C   UNL     1      -0.743  -4.116   0.167  0.00  0.00    +0.024 A 
ATOM     15  C   UNL     1      -0.132  -4.842   1.175  0.00  0.00    +0.071 A 
ATOM     16  C   UNL     1       0.563  -4.189   2.177  0.00  0.00    +0.146 A 
ATOM     17  C   UNL     1       0.650  -2.811   2.175  0.00  0.00    +0.057 A 
ATOM     18 CL   UNL     1      -0.239  -6.575   1.180  0.00  0.00    -0.081 Cl
BRANCH  16  19
ATOM     19  N   UNL     1       1.215  -4.969   3.253  0.00  0.00    +0.058 N 
ATOM     20  O   UNL     1       1.827  -4.395   4.136  0.00  0.00    -0.126 OA
ATOM     21  O   UNL     1       1.138  -6.185   3.256  0.00  0.00    -0.126 OA
ENDBRANCH  16  19
ENDBRANCH  10  12
ENDBRANCH   1   8
BRANCH   1  22
ATOM     22  S   UNL     1      -0.518   2.077  -1.604  0.00  0.00    -0.068 S 
BRANCH  22  29
ATOM     23  C   UNL     1      -2.259   8.107  -4.550  0.00  0.00    +0.066 C 
ATOM     24  C   UNL     1      -1.827   6.915  -3.735  0.00  0.00    +0.044 A 
ATOM     25  C   UNL     1      -1.369   7.096  -2.469  0.00  0.00    +0.071 A 
ATOM     26  C   UNL     1      -0.971   5.960  -1.730  0.00  0.00    +0.165 A 
ATOM     27  N   UNL     1      -0.495   5.764  -0.520  0.00  0.00    -0.128 NA
ATOM     28  N   UNL     1      -0.298   4.506  -0.329  0.00  0.00    -0.122 NA
ATOM     29  C   UNL     1      -0.625   3.824  -1.403  0.00  0.00    +0.198 A 
ATOM     30  N   UNL     1      -1.068   4.718  -2.332  0.00  0.00    -0.258 N 
ATOM     31  C   UNL     1      -1.538   4.624  -3.605  0.00  0.00    +0.114 A 
ATOM     32  N   UNL     1      -1.899   5.688  -4.266  0.00  0.00    -0.239 NA
ATOM     33  C   UNL     1      -1.645   3.271  -4.260  0.00  0.00    +0.086 C 
ENDBRANCH  22  29
ENDBRANCH   1  22
TORSDOF 6
