REMARK  Name = ZINC15732609
REMARK  8 active torsions:
REMARK  status: ('A' for Active; 'I' for Inactive)
REMARK    1  A    between atoms: C_1  and  C_2
REMARK    2  A    between atoms: C_2  and  C_3
REMARK    3  A    between atoms: C_2  and  C_4
REMARK    4  A    between atoms: C_2  and  N_5
REMARK    5  A    between atoms: C_6  and  C_8
REMARK    6  A    between atoms: C_8  and  S_9
REMARK    7  A    between atoms: S_9  and  C_10
REMARK    8  A    between atoms: C_12  and  C_21
REMARK                            x       y       z     vdW  Elec       q    Type
REMARK                         _______ _______ _______ _____ _____    ______ ____
ROOT
ATOM      1  C   UNL     1      -3.664   5.881   0.067  0.00  0.00    +0.192 A 
ATOM      2  N   UNL     1      -2.526   5.204   0.053  0.00  0.00    -0.202 NA
ATOM      3  C   UNL     1      -2.525   3.868   0.046  0.00  0.00    +0.168 A 
ATOM      4  N   UNL     1      -3.661   3.181   0.049  0.00  0.00    -0.208 NA
ATOM      5  C   UNL     1      -4.832   3.824   0.068  0.00  0.00    +0.162 A 
ATOM      6  N   UNL     1      -4.849   5.203   0.075  0.00  0.00    -0.210 N 
ATOM      7  N   UNL     1      -6.184   5.617   0.090  0.00  0.00    -0.256 N 
ATOM      8  H   UNL     1      -6.493   6.536   0.098  0.00  0.00    +0.191 HD
ATOM      9  C   UNL     1      -6.970   4.522   0.092  0.00  0.00    +0.267 A 
ATOM     10  O   UNL     1      -8.190   4.520   0.104  0.00  0.00    -0.266 OA
ATOM     11  C   UNL     1      -6.152   3.391   0.079  0.00  0.00    +0.119 A 
ENDROOT
BRANCH   3  12
ATOM     12  C   UNL     1      -1.236   3.142   0.030  0.00  0.00    +0.054 A 
ATOM     13  C   UNL     1      -1.217   1.747   0.017  0.00  0.00    +0.014 A 
ATOM     14  C   UNL     1      -0.013   1.076   0.008  0.00  0.00    +0.001 A 
ATOM     15  C   UNL     1       1.178   1.782   0.000  0.00  0.00    +0.003 A 
ATOM     16  C   UNL     1       1.169   3.164   0.007  0.00  0.00    +0.039 A 
ATOM     17  C   UNL     1      -0.031   3.850   0.022  0.00  0.00    +0.134 A 
ATOM     18  F   UNL     1      -0.040   5.202   0.029  0.00  0.00    -0.205 F 
ENDBRANCH   3  12
BRANCH   1  19
ATOM     19  S   UNL     1      -3.648   7.643   0.075  0.00  0.00    -0.077 S 
BRANCH  19  20
ATOM     20  C   UNL     1      -1.863   7.942   0.060  0.00  0.00    +0.173 C 
BRANCH  20  22
ATOM     21  N   UNL     1      -0.336   9.888   0.054  0.00  0.00    -0.310 N 
ATOM     22  C   UNL     1      -1.602   9.426   0.064  0.00  0.00    +0.224 C 
ATOM     23  O   UNL     1      -2.532  10.205   0.077  0.00  0.00    -0.275 OA
ATOM     24  H   UNL     1       0.407   9.264   0.044  0.00  0.00    +0.149 HD
BRANCH  21  26
ATOM     25  C   UNL     1      -0.693  11.952   1.317  0.00  0.00    +0.031 C 
ATOM     26  C   UNL     1      -0.082  11.331   0.059  0.00  0.00    +0.026 C 
ATOM     27  C   UNL     1       1.427  11.583   0.046  0.00  0.00    +0.031 C 
ATOM     28  C   UNL     1      -0.716  11.963  -1.181  0.00  0.00    +0.031 C 
ENDBRANCH  21  26
ENDBRANCH  20  22
ENDBRANCH  19  20
ENDBRANCH   1  19
TORSDOF 5
