REMARK  Name = ZINC36358207
REMARK  3 active torsions:
REMARK  status: ('A' for Active; 'I' for Inactive)
REMARK    1  A    between atoms: C_1  and  C_2
REMARK    2  A    between atoms: C_4  and  C_8
REMARK    3  A    between atoms: C_11  and  C_16
REMARK                            x       y       z     vdW  Elec       q    Type
REMARK                         _______ _______ _______ _____ _____    ______ ____
ROOT
ATOM      1  C   UNL     1       0.040  -3.318  -1.582  0.00  0.00    +0.150 A 
ATOM      2  N   UNL     1       0.040  -3.387  -2.891  0.00  0.00    -0.154 NA
ATOM      3  N   UNL     1       0.053  -4.612  -3.545  0.00  0.00    -0.185 N 
ATOM      4  C   UNL     1       0.057  -5.124  -4.835  0.00  0.00    +0.189 A 
ATOM      5  N   UNL     1       0.070  -6.435  -4.745  0.00  0.00    -0.126 NA
ATOM      6  N   UNL     1       0.075  -6.790  -3.507  0.00  0.00    -0.120 NA
ATOM      7  C   UNL     1       0.065  -5.733  -2.750  0.00  0.00    +0.219 A 
ATOM      8  S   UNL     1       0.066  -5.042  -1.115  0.00  0.00    -0.025 S 
ENDROOT
BRANCH   4   9
ATOM      9  C   UNL     1       0.047  -4.337  -6.085  0.00  0.00    +0.056 A 
ATOM     10  C   UNL     1       0.038  -2.942  -6.034  0.00  0.00    +0.016 A 
ATOM     11  C   UNL     1       0.030  -2.212  -7.204  0.00  0.00    +0.021 A 
ATOM     12  C   UNL     1       0.030  -2.859  -8.429  0.00  0.00    +0.044 A 
ATOM     13  C   UNL     1       0.038  -4.242  -8.488  0.00  0.00    +0.059 A 
ATOM     14  C   UNL     1       0.053  -4.985  -7.323  0.00  0.00    +0.135 A 
ATOM     15  F   UNL     1       0.067  -6.335  -7.381  0.00  0.00    -0.205 F 
ATOM     16 CL   UNL     1       0.018  -1.932  -9.896  0.00  0.00    -0.083 Cl
ENDBRANCH   4   9
BRANCH   1  20
ATOM     17  C   UNL     1      -0.018   1.503   0.010  0.00  0.00    +0.067 C 
ATOM     18  C   UNL     1       0.002  -0.004   0.002  0.00  0.00    +0.060 A 
ATOM     19  C   UNL     1       0.008  -0.810  -1.135  0.00  0.00    +0.054 A 
ATOM     20  C   UNL     1       0.028  -2.123  -0.717  0.00  0.00    +0.093 A 
ATOM     21  N   UNL     1       0.034  -2.110   0.647  0.00  0.00    -0.275 N 
ATOM     22  H   UNL     1       0.047  -2.888   1.226  0.00  0.00    +0.189 HD
ATOM     23  N   UNL     1       0.023  -0.772   1.061  0.00  0.00    -0.179 NA
ENDBRANCH   1  20
TORSDOF 2
