REMARK  Name = ZINC35518411
REMARK  7 active torsions:
REMARK  status: ('A' for Active; 'I' for Inactive)
REMARK    1  A    between atoms: C_3  and  C_10
REMARK    2  A    between atoms: C_5  and  N_7
REMARK    3  A    between atoms: C_13  and  C_15
REMARK    4  A    between atoms: N_19  and  N_23
REMARK    5  A    between atoms: C_24  and  C_26
REMARK    6  A    between atoms: C_26  and  C_27
REMARK    7  A    between atoms: C_27  and  N_28
REMARK                            x       y       z     vdW  Elec       q    Type
REMARK                         _______ _______ _______ _____ _____    ______ ____
ROOT
ATOM      1  C   UNL     1       7.181   2.403  -0.061  0.00  0.00    +0.066 C 
ATOM      2  C   UNL     1       7.727   1.112   0.026  0.00  0.00    +0.082 C 
ATOM      3  C   UNL     1       7.023  -0.202   0.037  0.00  0.00    +0.275 C 
ATOM      4  O   UNL     1       5.813  -0.283  -0.035  0.00  0.00    -0.267 OA
ATOM      5  N   UNL     1       7.793  -1.276   0.130  0.00  0.00    -0.170 N 
ATOM      6  C   UNL     1       9.129  -1.113   0.206  0.00  0.00    +0.138 C 
ATOM      7  S   UNL     1      10.337  -2.320   0.332  0.00  0.00    -0.026 S 
ATOM      8  S   UNL     1       9.343   0.655   0.139  0.00  0.00    -0.059 S 
ENDROOT
BRANCH   1  12
ATOM      9  C   UNL     1       3.676   2.189   0.394  0.00  0.00    +0.136 A 
ATOM     10  C   UNL     1       3.770   3.560   0.077  0.00  0.00    +0.050 A 
ATOM     11  C   UNL     1       5.083   3.844  -0.139  0.00  0.00    +0.050 A 
ATOM     12  C   UNL     1       5.813   2.586   0.057  0.00  0.00    +0.130 A 
ATOM     13  O   UNL     1       4.902   1.641   0.380  0.00  0.00    -0.455 OA
BRANCH   9  16
ATOM     14  C   UNL     1       0.044   1.476   0.970  0.00  0.00    +0.003 A 
ATOM     15  C   UNL     1       1.206   2.157   0.683  0.00  0.00    +0.012 A 
ATOM     16  C   UNL     1       2.436   1.476   0.698  0.00  0.00    +0.019 A 
ATOM     17  C   UNL     1       2.465   0.104   1.006  0.00  0.00    +0.044 A 
ATOM     18  C   UNL     1       1.293  -0.557   1.290  0.00  0.00    +0.127 A 
ATOM     19  C   UNL     1       0.085   0.124   1.273  0.00  0.00    +0.033 A 
BRANCH  18  20
ATOM     20  N   UNL     1       1.321  -2.001   1.616  0.00  0.00    +0.056 N 
ATOM     21  O   UNL     1       2.466  -2.650   1.633  0.00  0.00    -0.126 OA
ATOM     22  O   UNL     1       0.200  -2.637   1.888  0.00  0.00    -0.126 OA
ENDBRANCH  18  20
ENDBRANCH   9  16
ENDBRANCH   1  12
BRANCH   5  23
ATOM     23  N   UNL     1       7.229  -2.558   0.148  0.00  0.00    -0.226 N 
ATOM     24  C   UNL     1       7.304  -3.343  -0.945  0.00  0.00    +0.228 C 
ATOM     25  O   UNL     1       7.859  -2.939  -1.944  0.00  0.00    -0.274 OA
ATOM     26  H   UNL     1       6.785  -2.881   0.948  0.00  0.00    +0.173 HD
BRANCH  24  27
ATOM     27  C   UNL     1       6.697  -4.722  -0.925  0.00  0.00    +0.079 C 
BRANCH  27  28
ATOM     28  C   UNL     1       6.919  -5.397  -2.280  0.00  0.00    -0.070 C 
BRANCH  28  29
ATOM     29  N   UNL     1       6.328  -6.741  -2.260  0.00  0.00    +0.380 N 
ATOM     30  C   UNL     1       7.039  -7.573  -1.282  0.00  0.00    -0.079 C 
ATOM     31  C   UNL     1       6.376  -8.949  -1.199  0.00  0.00    -0.019 C 
ATOM     32  C   UNL     1       6.429  -9.619  -2.575  0.00  0.00    -0.004 C 
ATOM     33  C   UNL     1       5.749  -8.709  -3.602  0.00  0.00    -0.019 C 
ATOM     34  C   UNL     1       6.435  -7.341  -3.596  0.00  0.00    -0.079 C 
ATOM     35  H   UNL     1       5.355  -6.676  -1.999  0.00  0.00    -0.082 HD
ENDBRANCH  28  29
ENDBRANCH  27  28
ENDBRANCH  24  27
ENDBRANCH   5  23
TORSDOF 7
