REMARK  Name = ZINC22426707
REMARK  10 active torsions:
REMARK  status: ('A' for Active; 'I' for Inactive)
REMARK    1  A    between atoms: C_1  and  C_2
REMARK    2  A    between atoms: C_2  and  C_35
REMARK    3  A    between atoms: C_4  and  N_15
REMARK    4  A    between atoms: C_8  and  O_13
REMARK    5  A    between atoms: O_13  and  C_14
REMARK    6  A    between atoms: C_16  and  C_18
REMARK    7  A    between atoms: C_18  and  N_19
REMARK    8  A    between atoms: N_19  and  C_20
REMARK    9  A    between atoms: N_19  and  S_27
REMARK   10  A    between atoms: S_27  and  C_30
REMARK                            x       y       z     vdW  Elec       q    Type
REMARK                         _______ _______ _______ _____ _____    ______ ____
ROOT
ATOM      1  N   UNL     1       3.244  -0.193  -1.915  0.00  0.00    -0.307 N 
ATOM      2  C   UNL     1       4.570  -0.353  -1.740  0.00  0.00    +0.233 C 
ATOM      3  O   UNL     1       5.039  -0.350  -0.622  0.00  0.00    -0.274 OA
ATOM      4  H   UNL     1       2.818  -0.196  -2.929  0.00  0.00    +0.149 HD
ENDROOT
BRANCH   1   8
ATOM      5  C   UNL     1       0.501  -0.520   1.353  0.00  0.00    +0.055 C 
ATOM      6  C   UNL     1       0.002  -0.004   0.002  0.00  0.00    +0.107 C 
ATOM      7  C   UNL     1       0.951  -0.469  -1.111  0.00  0.00    +0.074 C 
ATOM      8  C   UNL     1       2.368  -0.014  -0.754  0.00  0.00    +0.111 C 
ATOM      9  C   UNL     1       2.351   1.440  -0.358  0.00  0.00    +0.018 A 
ATOM     10  C   UNL     1       3.544   2.144  -0.357  0.00  0.00    +0.054 A 
ATOM     11  C   UNL     1       3.566   3.481   0.004  0.00  0.00    +0.121 A 
ATOM     12  C   UNL     1       2.389   4.118   0.368  0.00  0.00    +0.049 A 
ATOM     13  C   UNL     1       1.200   3.418   0.367  0.00  0.00    +0.049 A 
ATOM     14  C   UNL     1       1.176   2.076   0.002  0.00  0.00    +0.126 A 
ATOM     15  O   UNL     1      -0.017   1.424   0.010  0.00  0.00    -0.486 OA
ATOM     16  C   UNL     1      -1.407  -0.537  -0.265  0.00  0.00    +0.055 C 
BRANCH  11  17
ATOM     17  O   UNL     1       4.740   4.168   0.004  0.00  0.00    -0.495 OA
ATOM     18  C   UNL     1       4.687   5.543   0.387  0.00  0.00    +0.277 C 
ENDBRANCH  11  17
ENDBRANCH   1   8
BRANCH   2  19
ATOM     19  C   UNL     1       5.471  -0.537  -2.934  0.00  0.00    +0.227 C 
BRANCH  19  20
ATOM     20  N   UNL     1       6.856  -0.690  -2.482  0.00  0.00    -0.191 N 
BRANCH  20  21
ATOM     21  C   UNL     1       7.332  -1.947  -2.099  0.00  0.00    +0.087 A 
ATOM     22  C   UNL     1       7.814  -2.830  -3.055  0.00  0.00    +0.027 A 
ATOM     23  C   UNL     1       8.288  -4.070  -2.672  0.00  0.00    +0.002 A 
ATOM     24  C   UNL     1       8.274  -4.437  -1.339  0.00  0.00    +0.003 A 
ATOM     25  C   UNL     1       7.790  -3.563  -0.383  0.00  0.00    +0.040 A 
ATOM     26  C   UNL     1       7.319  -2.318  -0.758  0.00  0.00    +0.146 A 
ATOM     27  F   UNL     1       6.846  -1.464   0.176  0.00  0.00    -0.203 F 
ENDBRANCH  20  21
BRANCH  20  28
ATOM     28  S   UNL     1       7.859   0.628  -2.426  0.00  0.00    +0.081 S 
ATOM     29  O   UNL     1       9.187   0.131  -2.511  0.00  0.00    -0.149 OA
ATOM     30  O   UNL     1       7.338   1.574  -3.350  0.00  0.00    -0.149 OA
BRANCH  28  31
ATOM     31  C   UNL     1       7.690   1.342  -0.824  0.00  0.00    +0.146 A 
ATOM     32  C   UNL     1       8.390   1.079   0.306  0.00  0.00    +0.036 A 
ATOM     33  C   UNL     1       8.082   1.770   1.462  0.00  0.00    +0.010 A 
ATOM     34  C   UNL     1       7.089   2.692   1.431  0.00  0.00    +0.047 A 
ATOM     35  S   UNL     1       6.558   2.607  -0.271  0.00  0.00    -0.077 S 
ENDBRANCH  28  31
ENDBRANCH  20  28
ENDBRANCH  19  20
ENDBRANCH   2  19
TORSDOF 7
