REMARK  Name = ZINC40069204
REMARK  14 active torsions:
REMARK  status: ('A' for Active; 'I' for Inactive)
REMARK    1  A    between atoms: C_1  and  C_2
REMARK    2  A    between atoms: C_2  and  C_4
REMARK    3  A    between atoms: C_2  and  N_9
REMARK    4  A    between atoms: C_4  and  C_5
REMARK    5  A    between atoms: C_5  and  C_6
REMARK    6  A    between atoms: C_6  and  C_7
REMARK    7  A    between atoms: C_6  and  C_8
REMARK    8  A    between atoms: C_10  and  C_12
REMARK    9  A    between atoms: C_12  and  S_13
REMARK   10  A    between atoms: S_13  and  C_14
REMARK   11  A    between atoms: C_17  and  C_26
REMARK   12  A    between atoms: N_18  and  C_19
REMARK   13  A    between atoms: C_26  and  C_28
REMARK   14  A    between atoms: C_26  and  N_29
REMARK                            x       y       z     vdW  Elec       q    Type
REMARK                         _______ _______ _______ _____ _____    ______ ____
ROOT
ATOM      1  C   UNL     1       5.268  -1.731   3.564  0.00  0.00    +0.197 A 
ATOM      2  N   UNL     1       4.614  -2.070   4.651  0.00  0.00    -0.122 NA
ATOM      3  N   UNL     1       5.440  -2.462   5.554  0.00  0.00    -0.135 NA
ATOM      4  C   UNL     1       6.661  -2.400   5.103  0.00  0.00    +0.125 A 
ATOM      5  N   UNL     1       6.596  -1.936   3.816  0.00  0.00    -0.275 N 
ENDROOT
BRANCH   5   6
ATOM      6  C   UNL     1       7.670  -1.715   2.940  0.00  0.00    +0.050 A 
ATOM      7  C   UNL     1       8.434  -2.784   2.493  0.00  0.00    +0.029 A 
ATOM      8  C   UNL     1       9.489  -2.564   1.630  0.00  0.00    +0.040 A 
ATOM      9  C   UNL     1       9.786  -1.278   1.210  0.00  0.00    +0.124 A 
ATOM     10  C   UNL     1       9.024  -0.210   1.655  0.00  0.00    +0.040 A 
ATOM     11  C   UNL     1       7.965  -0.427   2.514  0.00  0.00    +0.029 A 
ATOM     12  F   UNL     1      10.819  -1.065   0.367  0.00  0.00    -0.205 F 
ENDBRANCH   5   6
BRANCH   4  13
ATOM     13  C   UNL     1       7.912  -2.773   5.856  0.00  0.00    -0.002 C 
ATOM     14  C   UNL     1       8.235  -1.683   6.880  0.00  0.00    -0.005 C 
BRANCH  13  15
ATOM     15  N   UNL     1       7.702  -4.050   6.551  0.00  0.00    +0.386 N 
ATOM     16  C   UNL     1       8.918  -4.408   7.291  0.00  0.00    -0.078 C 
ATOM     17  C   UNL     1       8.678  -5.697   8.081  0.00  0.00    -0.019 C 
ATOM     18  C   UNL     1       8.319  -6.825   7.110  0.00  0.00    -0.004 C 
ATOM     19  C   UNL     1       7.093  -6.410   6.291  0.00  0.00    -0.019 C 
ATOM     20  C   UNL     1       7.392  -5.095   5.567  0.00  0.00    -0.078 C 
ATOM     21  H   UNL     1       6.932  -3.959   7.197  0.00  0.00    -0.081 HD
ENDBRANCH  13  15
ENDBRANCH   4  13
BRANCH   1  22
ATOM     22  S   UNL     1       4.566  -1.134   2.062  0.00  0.00    -0.076 S 
BRANCH  22  23
ATOM     23  C   UNL     1       2.783  -1.099   2.395  0.00  0.00    +0.173 C 
BRANCH  23  25
ATOM     24  N   UNL     1       0.711  -0.489   1.189  0.00  0.00    -0.312 N 
ATOM     25  C   UNL     1       2.054  -0.600   1.174  0.00  0.00    +0.224 C 
ATOM     26  O   UNL     1       2.676  -0.297   0.177  0.00  0.00    -0.275 OA
ATOM     27  H   UNL     1       0.213  -0.731   1.986  0.00  0.00    +0.149 HD
BRANCH  24  29
ATOM     28  C   UNL     1      -0.019   1.526   0.010  0.00  0.00    +0.028 C 
ATOM     29  C   UNL     1       0.002  -0.004   0.002  0.00  0.00    +0.070 C 
BRANCH  29  30
ATOM     30  C   UNL     1      -1.433  -0.534   0.013  0.00  0.00    +0.022 C 
BRANCH  30  31
ATOM     31  C   UNL     1      -1.416  -2.058  -0.121  0.00  0.00    +0.005 C 
BRANCH  31  32
ATOM     32  C   UNL     1      -2.851  -2.587  -0.110  0.00  0.00    -0.017 C 
ATOM     33  C   UNL     1      -3.591  -2.080  -1.350  0.00  0.00    +0.007 C 
ATOM     34  C   UNL     1      -2.830  -4.117  -0.119  0.00  0.00    +0.007 C 
ENDBRANCH  31  32
ENDBRANCH  30  31
ENDBRANCH  29  30
ENDBRANCH  24  29
ENDBRANCH  23  25
ENDBRANCH  22  23
ENDBRANCH   1  22
TORSDOF 10
