REMARK  Name = ZINC00898879
REMARK  7 active torsions:
REMARK  status: ('A' for Active; 'I' for Inactive)
REMARK    1  A    between atoms: C_1  and  C_2
REMARK    2  A    between atoms: C_4  and  C_33
REMARK    3  A    between atoms: C_9  and  C_13
REMARK    4  A    between atoms: C_16  and  C_32
REMARK    5  A    between atoms: N_18  and  C_26
REMARK    6  A    between atoms: C_21  and  N_25
REMARK    7  A    between atoms: C_22  and  C_23
REMARK                            x       y       z     vdW  Elec       q    Type
REMARK                         _______ _______ _______ _____ _____    ______ ____
ROOT
ATOM      1  C   UNL     1       2.558   1.966  -0.013  0.00  0.00    +0.104 C 
ATOM      2  C   UNL     1       1.096   2.332   0.004  0.00  0.00    +0.050 A 
ATOM      3  C   UNL     1      -0.018   1.503   0.010  0.00  0.00    +0.068 A 
ATOM      4  N   UNL     1      -1.092   2.257   0.019  0.00  0.00    -0.168 NA
ATOM      5  N   UNL     1      -0.690   3.602   0.027  0.00  0.00    -0.200 N 
ATOM      6  C   UNL     1       0.660   3.628   0.015  0.00  0.00    +0.230 A 
ATOM      7  O   UNL     1       1.508   4.686   0.015  0.00  0.00    -0.423 OA
ATOM      8  C   UNL     1       2.808   4.444   0.280  0.00  0.00    +0.200 C 
ATOM      9  C   UNL     1       3.358   3.209   0.285  0.00  0.00    +0.098 C 
ATOM     10  C   UNL     1       0.002  -0.004   0.002  0.00  0.00    +0.068 C 
ENDROOT
BRANCH   1  19
ATOM     11  C   UNL     1       3.238   2.684  -7.367  0.00  0.00    +0.044 C 
ATOM     12  C   UNL     1       3.377   1.879  -6.100  0.00  0.00    -0.050 A 
ATOM     13  C   UNL     1       3.873   0.579  -6.162  0.00  0.00    +0.008 A 
ATOM     14  C   UNL     1       4.011  -0.175  -5.038  0.00  0.00    -0.024 A 
ATOM     15  C   UNL     1       3.649   0.361  -3.790  0.00  0.00    +0.076 A 
ATOM     16  C   UNL     1       3.144   1.684  -3.729  0.00  0.00    +0.001 A 
ATOM     17  C   UNL     1       3.014   2.432  -4.910  0.00  0.00    +0.013 A 
ATOM     18  C   UNL     1       2.781   2.220  -2.479  0.00  0.00    +0.017 A 
ATOM     19  C   UNL     1       2.933   1.434  -1.372  0.00  0.00    +0.003 A 
ATOM     20  C   UNL     1       3.441   0.142  -1.500  0.00  0.00    +0.134 A 
ATOM     21  N   UNL     1       3.773  -0.356  -2.668  0.00  0.00    -0.235 NA
ATOM     22 CL   UNL     1       3.634  -0.836  -0.079  0.00  0.00    -0.062 Cl
ATOM     23  C   UNL     1       4.550  -1.579  -5.130  0.00  0.00    +0.046 C 
ENDBRANCH   1  19
BRANCH   5  24
ATOM     24  C   UNL     1      -1.538   4.718   0.040  0.00  0.00    +0.069 A 
ATOM     25  C   UNL     1      -1.171   5.862   0.736  0.00  0.00    +0.028 A 
ATOM     26  C   UNL     1      -2.007   6.962   0.743  0.00  0.00    +0.002 A 
ATOM     27  C   UNL     1      -3.212   6.921   0.066  0.00  0.00    +0.000 A 
ATOM     28  C   UNL     1      -3.582   5.781  -0.624  0.00  0.00    +0.002 A 
ATOM     29  C   UNL     1      -2.748   4.680  -0.639  0.00  0.00    +0.028 A 
ENDBRANCH   5  24
BRANCH   8  30
ATOM     30  N   UNL     1       3.621   5.514   0.560  0.00  0.00    -0.328 N 
ATOM     31  H   UNL     1       3.256   6.413   0.563  0.00  0.00    +0.145 HD
ATOM     32  H   UNL     1       4.561   5.372   0.754  0.00  0.00    +0.145 HD
ENDBRANCH   8  30
BRANCH   9  33
ATOM     33  C   UNL     1       4.752   3.076   0.585  0.00  0.00    +0.101 C 
ATOM     34  N   UNL     1       5.857   2.970   0.824  0.00  0.00    -0.191 NA
ENDBRANCH   9  33
TORSDOF 4
