REMARK  Name = ZINC09630264
REMARK  8 active torsions:
REMARK  status: ('A' for Active; 'I' for Inactive)
REMARK    1  A    between atoms: C_4  and  C_7
REMARK    2  A    between atoms: C_7  and  N_56
REMARK    3  A    between atoms: C_13  and  N_18
REMARK    4  A    between atoms: C_14  and  C_15
REMARK    5  A    between atoms: C_19  and  C_21
REMARK    6  A    between atoms: C_21  and  C_22
REMARK    7  A    between atoms: C_22  and  S_23
REMARK    8  A    between atoms: S_23  and  C_24
REMARK                            x       y       z     vdW  Elec       q    Type
REMARK                         _______ _______ _______ _____ _____    ______ ____
ROOT
ATOM      1  C   UNL     1       3.982   5.141  -1.440  0.00  0.00    -0.073 C 
ATOM      2  C   UNL     1       4.632   5.111  -2.826  0.00  0.00    +0.018 C 
ATOM      3  C   UNL     1       3.536   5.293  -3.869  0.00  0.00    -0.027 A 
ATOM      4  C   UNL     1       2.241   5.092  -3.535  0.00  0.00    -0.021 A 
ATOM      5  S   UNL     1       1.336   5.411  -5.021  0.00  0.00    -0.079 S 
ATOM      6  C   UNL     1       2.656   5.804  -6.073  0.00  0.00    +0.084 A 
ATOM      7  C   UNL     1       3.767   5.679  -5.248  0.00  0.00    +0.068 A 
ATOM      8  C   UNL     1       1.723   4.687  -2.190  0.00  0.00    -0.035 C 
ATOM      9  N   UNL     1       2.867   4.171  -1.400  0.00  0.00    +0.386 N 
ATOM     10  H   UNL     1       3.182   3.283  -1.808  0.00  0.00    -0.081 HD
ENDROOT
BRANCH   7  11
ATOM     11  C   UNL     1       5.121   5.930  -5.752  0.00  0.00    +0.244 C 
ATOM     12  O   UNL     1       5.770   5.019  -6.231  0.00  0.00    -0.270 OA
ATOM     13  N   UNL     1       5.646   7.169  -5.684  0.00  0.00    -0.325 N 
ATOM     14  H   UNL     1       5.129   7.895  -5.303  0.00  0.00    +0.145 HD
ATOM     15  H   UNL     1       6.542   7.334  -6.018  0.00  0.00    +0.145 HD
ENDBRANCH   7  11
BRANCH   6  16
ATOM     16  N   UNL     1       2.614   6.158  -7.413  0.00  0.00    -0.279 N 
ATOM     17  C   UNL     1       1.431   6.227  -8.054  0.00  0.00    +0.218 C 
ATOM     18  O   UNL     1       0.403   5.981  -7.459  0.00  0.00    -0.275 OA
ATOM     19  H   UNL     1       3.436   6.355  -7.889  0.00  0.00    +0.155 HD
BRANCH  17  20
ATOM     20  C   UNL     1       1.385   6.612  -9.511  0.00  0.00    +0.107 C 
BRANCH  20  21
ATOM     21  C   UNL     1      -0.068   6.616  -9.991  0.00  0.00    +0.083 C 
BRANCH  21  22
ATOM     22  S   UNL     1      -0.123   7.079 -11.745  0.00  0.00    -0.125 S 
BRANCH  22  23
ATOM     23  C   UNL     1      -1.840   7.037 -12.142  0.00  0.00    +0.008 A 
ATOM     24  C   UNL     1      -2.771   6.692 -11.171  0.00  0.00    +0.016 A 
ATOM     25  C   UNL     1      -4.116   6.666 -11.484  0.00  0.00    +0.021 A 
ATOM     26  C   UNL     1      -4.535   6.973 -12.767  0.00  0.00    +0.041 A 
ATOM     27  C   UNL     1      -3.609   7.311 -13.738  0.00  0.00    +0.021 A 
ATOM     28  C   UNL     1      -2.264   7.345 -13.429  0.00  0.00    +0.016 A 
ATOM     29 CL   UNL     1      -6.226   6.933 -13.158  0.00  0.00    -0.084 Cl
ENDBRANCH  22  23
ENDBRANCH  21  22
ENDBRANCH  20  21
ENDBRANCH  17  20
ENDBRANCH   6  16
BRANCH   9  30
ATOM     30  C   UNL     1       2.451   3.937  -0.001  0.00  0.00    -0.043 C 
BRANCH  30  34
ATOM     31  C   UNL     1      -1.219   1.751   0.017  0.00  0.00    +0.000 A 
ATOM     32  C   UNL     1      -0.013   1.076   0.008  0.00  0.00    +0.000 A 
ATOM     33  C   UNL     1       1.175   1.783   0.000  0.00  0.00    +0.002 A 
ATOM     34  C   UNL     1       1.156   3.165   0.008  0.00  0.00    -0.064 A 
ATOM     35  C   UNL     1      -0.050   3.840   0.023  0.00  0.00    +0.002 A 
ATOM     36  C   UNL     1      -1.238   3.133   0.030  0.00  0.00    +0.000 A 
ENDBRANCH  30  34
ENDBRANCH   9  30
TORSDOF 8
