REMARK  Name = ZINC07797764
REMARK  5 active torsions:
REMARK  status: ('A' for Active; 'I' for Inactive)
REMARK    1  A    between atoms: C_6  and  N_7
REMARK    2  A    between atoms: C_8  and  C_10
REMARK    3  A    between atoms: C_10  and  S_11
REMARK    4  A    between atoms: S_11  and  C_12
REMARK    5  A    between atoms: C_17  and  N_21
REMARK                            x       y       z     vdW  Elec       q    Type
REMARK                         _______ _______ _______ _____ _____    ______ ____
ROOT
ATOM      1  N   UNL     1      -1.201  -0.721   0.008  0.00  0.00    -0.285 N 
ATOM      2  C   UNL     1      -2.375  -0.068   0.122  0.00  0.00    +0.227 C 
ATOM      3  O   UNL     1      -2.396   1.145   0.129  0.00  0.00    -0.275 OA
ATOM      4  H   UNL     1      -1.190  -1.688  -0.075  0.00  0.00    +0.155 HD
ENDROOT
BRANCH   1  10
ATOM      5  C   UNL     1       0.120   1.155   0.762  0.00  0.00    +0.027 A 
ATOM      6  C   UNL     1       1.307   1.863   0.761  0.00  0.00    +0.051 A 
ATOM      7  C   UNL     1       2.383   1.419   0.007  0.00  0.00    +0.162 A 
ATOM      8  C   UNL     1       2.268   0.257  -0.747  0.00  0.00    +0.164 A 
ATOM      9  C   UNL     1       1.077  -0.453  -0.747  0.00  0.00    +0.072 A 
ATOM     10  C   UNL     1       0.002  -0.004   0.008  0.00  0.00    +0.037 A 
ATOM     11  O   UNL     1       3.316  -0.199  -1.487  0.00  0.00    -0.485 OA
ATOM     12  C   UNL     1       4.367   0.734  -1.758  0.00  0.00    +0.270 C 
ATOM     13  C   UNL     1       4.716   1.458  -0.451  0.00  0.00    +0.270 C 
ATOM     14  O   UNL     1       3.542   2.132   0.016  0.00  0.00    -0.485 OA
ENDBRANCH   1  10
BRANCH   2  15
ATOM     15  C   UNL     1      -3.661  -0.845   0.242  0.00  0.00    +0.172 C 
BRANCH  15  16
ATOM     16  S   UNL     1      -5.053   0.310   0.379  0.00  0.00    -0.089 S 
BRANCH  16  17
ATOM     17  C   UNL     1      -6.464  -0.738   0.510  0.00  0.00    +0.136 A 
ATOM     18  N   UNL     1      -6.518  -2.051   0.515  0.00  0.00    -0.233 NA
ATOM     19  C   UNL     1      -7.682  -2.728   0.624  0.00  0.00    +0.080 A 
ATOM     20  C   UNL     1      -7.878  -4.129   0.642  0.00  0.00    +0.031 A 
ATOM     21  C   UNL     1      -9.137  -4.658   0.758  0.00  0.00    +0.035 A 
ATOM     22  C   UNL     1     -10.258  -3.846   0.861  0.00  0.00    +0.127 A 
ATOM     23  C   UNL     1     -10.102  -2.472   0.847  0.00  0.00    +0.050 A 
ATOM     24  C   UNL     1      -8.845  -1.933   0.731  0.00  0.00    +0.042 A 
ATOM     25  S   UNL     1      -8.185  -0.285   0.676  0.00  0.00    -0.061 S 
BRANCH  22  26
ATOM     26  N   UNL     1     -11.606  -4.445   0.984  0.00  0.00    +0.056 N 
ATOM     27  O   UNL     1     -11.735  -5.647   0.996  0.00  0.00    -0.126 OA
ATOM     28  O   UNL     1     -12.578  -3.732   1.074  0.00  0.00    -0.126 OA
ENDBRANCH  22  26
ENDBRANCH  16  17
ENDBRANCH  15  16
ENDBRANCH   2  15
TORSDOF 5
