REMARK  Name = ZINC21327583
REMARK  6 active torsions:
REMARK  status: ('A' for Active; 'I' for Inactive)
REMARK    1  A    between atoms: N_5  and  N_6
REMARK    2  A    between atoms: C_10  and  S_13
REMARK    3  A    between atoms: N_11  and  N_12
REMARK    4  A    between atoms: S_13  and  C_14
REMARK    5  A    between atoms: C_14  and  C_15
REMARK    6  A    between atoms: C_15  and  C_17
REMARK                            x       y       z     vdW  Elec       q    Type
REMARK                         _______ _______ _______ _____ _____    ______ ____
ROOT
ATOM      1  N   UNL     1       4.506   7.545  -1.597  0.00  0.00    -0.204 N 
ATOM      2  C   UNL     1       3.879   6.327  -1.375  0.00  0.00    +0.254 A 
ATOM      3  N   UNL     1       4.408   5.142  -1.565  0.00  0.00    -0.109 NA
ATOM      4  N   UNL     1       3.448   4.180  -1.224  0.00  0.00    -0.119 NA
ATOM      5  C   UNL     1       2.364   4.809  -0.836  0.00  0.00    +0.210 A 
ATOM      6  N   UNL     1       2.600   6.151  -0.925  0.00  0.00    -0.211 N 
ATOM      7  H   UNL     1       3.967   8.484  -1.403  0.00  0.00    +0.177 HD
ENDROOT
BRANCH   1  12
ATOM      8  C   UNL     1       6.879  11.105  -2.450  0.00  0.00    +0.006 C 
ATOM      9  C   UNL     1       7.805  10.319  -3.413  0.00  0.00    +0.006 C 
ATOM     10  C   UNL     1       7.821   8.906  -2.778  0.00  0.00    +0.052 C 
ATOM     11  C   UNL     1       6.404   8.703  -2.273  0.00  0.00    +0.037 C 
ATOM     12  N   UNL     1       5.825   7.579  -2.068  0.00  0.00    -0.189 NA
ATOM     13  C   UNL     1       5.798  10.075  -2.062  0.00  0.00    +0.052 C 
ENDBRANCH   1  12
BRANCH   6  14
ATOM     14  N   UNL     1       1.715   7.144  -0.616  0.00  0.00    -0.294 N 
ATOM     15  H   UNL     1       0.705   6.890  -0.261  0.00  0.00    +0.163 HD
ATOM     16  H   UNL     1       2.011   8.198  -0.722  0.00  0.00    +0.163 HD
ENDBRANCH   6  14
BRANCH   5  17
ATOM     17  S   UNL     1       0.864   4.054  -0.302  0.00  0.00    -0.077 S 
BRANCH  17  18
ATOM     18  C   UNL     1       1.201   2.275  -0.423  0.00  0.00    +0.152 C 
BRANCH  18  19
ATOM     19  C   UNL     1      -0.018   1.503   0.010  0.00  0.00    +0.147 C 
ATOM     20  O   UNL     1      -1.013   2.091   0.360  0.00  0.00    -0.296 OA
BRANCH  19  21
ATOM     21  C   UNL     1       0.002  -0.004   0.002  0.00  0.00    +0.062 C 
ATOM     22  C   UNL     1      -1.427  -0.534   0.132  0.00  0.00    +0.000 C 
ATOM     23  C   UNL     1      -1.407  -2.064   0.123  0.00  0.00    +0.007 C 
ATOM     24  C   UNL     1      -0.567  -2.569   1.298  0.00  0.00    -0.010 C 
ATOM     25  C   UNL     1      -1.177  -2.075   2.611  0.00  0.00    +0.007 C 
ATOM     26  C   UNL     1      -1.198  -0.545   2.619  0.00  0.00    -0.010 C 
ATOM     27  C   UNL     1      -2.038  -0.040   1.445  0.00  0.00    +0.007 C 
ATOM     28  C   UNL     1       0.232  -0.015   2.490  0.00  0.00    +0.007 C 
ATOM     29  C   UNL     1       0.842  -0.509   1.177  0.00  0.00    +0.000 C 
ATOM     30  C   UNL     1       0.863  -2.039   1.169  0.00  0.00    +0.007 C 
ENDBRANCH  19  21
ENDBRANCH  18  19
ENDBRANCH  17  18
ENDBRANCH   5  17
TORSDOF 6
