REMARK  Name = ZINC36754914
REMARK  7 active torsions:
REMARK  status: ('A' for Active; 'I' for Inactive)
REMARK    1  A    between atoms: C_1  and  C_2
REMARK    2  A    between atoms: N_5  and  S_11
REMARK    3  A    between atoms: C_7  and  C_10
REMARK    4  A    between atoms: S_11  and  C_14
REMARK    5  A    between atoms: C_18  and  C_20
REMARK    6  A    between atoms: C_28  and  O_32
REMARK    7  A    between atoms: O_32  and  C_33
REMARK                            x       y       z     vdW  Elec       q    Type
REMARK                         _______ _______ _______ _____ _____    ______ ____
ROOT
ATOM      1  C   UNL     1       2.265   2.422  -1.552  0.00  0.00    +0.106 A 
ATOM      2  C   UNL     1       1.038   2.860  -1.085  0.00  0.00    +0.028 A 
ATOM      3  C   UNL     1       0.944   4.047  -0.380  0.00  0.00    +0.003 A 
ATOM      4  C   UNL     1       2.073   4.801  -0.139  0.00  0.00    +0.013 A 
ATOM      5  C   UNL     1       3.313   4.365  -0.607  0.00  0.00    +0.039 A 
ATOM      6  C   UNL     1       3.403   3.164  -1.313  0.00  0.00    +0.041 A 
ENDROOT
BRANCH   5   7
ATOM      7  C   UNL     1       4.528   5.168  -0.352  0.00  0.00    +0.251 C 
ATOM      8  O   UNL     1       5.610   4.622  -0.259  0.00  0.00    -0.270 OA
ATOM      9  N   UNL     1       4.435   6.507  -0.224  0.00  0.00    -0.264 N 
ATOM     10  C   UNL     1       3.279   7.232  -0.767  0.00  0.00    +0.114 C 
ATOM     11  C   UNL     1       3.805   8.480  -1.488  0.00  0.00    +0.024 C 
ATOM     12  C   UNL     1       4.490   9.388  -0.466  0.00  0.00    +0.038 C 
ATOM     13  C   UNL     1       5.500   8.611   0.336  0.00  0.00    -0.022 A 
ATOM     14  C   UNL     1       5.439   7.231   0.437  0.00  0.00    +0.082 A 
ATOM     15  C   UNL     1       6.385   6.543   1.196  0.00  0.00    +0.142 A 
ATOM     16  C   UNL     1       7.385   7.241   1.852  0.00  0.00    +0.047 A 
ATOM     17  C   UNL     1       7.442   8.618   1.752  0.00  0.00    +0.004 A 
ATOM     18  C   UNL     1       6.509   9.301   0.991  0.00  0.00    +0.006 A 
BRANCH  15  19
ATOM     19  O   UNL     1       6.325   5.188   1.292  0.00  0.00    -0.493 OA
ATOM     20  C   UNL     1       7.327   4.549   2.087  0.00  0.00    +0.277 C 
ENDBRANCH  15  19
ENDBRANCH   5   7
BRANCH   1  21
ATOM     21  S   UNL     1       2.374   0.909  -2.449  0.00  0.00    +0.061 S 
ATOM     22  O   UNL     1       3.550   0.992  -3.243  0.00  0.00    -0.153 OA
ATOM     23  O   UNL     1       1.090   0.676  -3.011  0.00  0.00    -0.153 OA
BRANCH  21  27
ATOM     24  C   UNL     1       1.571   0.424   1.327  0.00  0.00    +0.039 C 
ATOM     25  C   UNL     1       1.710  -1.004   0.797  0.00  0.00    +0.131 C 
ATOM     26  C   UNL     1       1.505  -1.009  -0.722  0.00  0.00    +0.140 C 
ATOM     27  N   UNL     1       2.633  -0.297  -1.344  0.00  0.00    -0.172 NA
ATOM     28  C   UNL     1       3.997  -0.690  -0.957  0.00  0.00    +0.140 C 
ATOM     29  C   UNL     1       4.080  -0.701   0.574  0.00  0.00    +0.131 C 
ATOM     30  O   UNL     1       3.016  -1.500   1.099  0.00  0.00    -0.371 OA
ATOM     31  C   UNL     1       5.424  -1.289   1.008  0.00  0.00    +0.039 C 
ENDBRANCH  21  27
ENDBRANCH   1  21
TORSDOF 4
