REMARK  Name = ZINC36738977
REMARK  6 active torsions:
REMARK  status: ('A' for Active; 'I' for Inactive)
REMARK    1  A    between atoms: C_1  and  C_2
REMARK    2  A    between atoms: C_5  and  O_20
REMARK    3  A    between atoms: C_6  and  C_8
REMARK    4  A    between atoms: N_10  and  C_11
REMARK    5  A    between atoms: C_12  and  C_19
REMARK    6  A    between atoms: C_16  and  N_17
REMARK                            x       y       z     vdW  Elec       q    Type
REMARK                         _______ _______ _______ _____ _____    ______ ____
ROOT
ATOM      1  C   UNL     1       0.579  -2.535   2.604  0.00  0.00    +0.252 C 
ATOM      2  O   UNL     1       1.339  -3.478   2.727  0.00  0.00    -0.270 OA
ATOM      3  N   UNL     1      -0.174  -2.136   3.648  0.00  0.00    -0.280 N 
ATOM      4  H   UNL     1      -0.730  -1.345   3.571  0.00  0.00    +0.155 HD
ENDROOT
BRANCH   3   5
ATOM      5  C   UNL     1      -0.153  -2.864   4.846  0.00  0.00    +0.058 A 
ATOM      6  C   UNL     1      -0.382  -4.231   4.833  0.00  0.00    -0.026 A 
ATOM      7  C   UNL     1      -0.361  -4.947   6.015  0.00  0.00    +0.020 A 
ATOM      8  C   UNL     1      -0.113  -4.303   7.214  0.00  0.00    +0.020 A 
ATOM      9  C   UNL     1       0.116  -2.939   7.236  0.00  0.00    +0.040 A 
ATOM     10  C   UNL     1       0.103  -2.215   6.054  0.00  0.00    +0.047 A 
ATOM     11 BR   UNL     1      -0.088  -5.290   8.827  0.00  0.00    -0.050 Br
ATOM     12  C   UNL     1      -0.653  -4.937   3.529  0.00  0.00    +0.046 C 
BRANCH  10  13
ATOM     13  N   UNL     1       0.341  -0.836   6.073  0.00  0.00    -0.356 N 
ATOM     14  H   UNL     1       0.435  -0.349   5.240  0.00  0.00    +0.142 HD
ATOM     15  H   UNL     1       0.411  -0.368   6.919  0.00  0.00    +0.142 HD
ENDBRANCH  10  13
ENDBRANCH   3   5
BRANCH   1  21
ATOM     16  C   UNL     1      -1.415   1.074  -0.199  0.00  0.00    +0.044 C 
ATOM     17  C   UNL     1      -0.475  -0.093  -0.043  0.00  0.00    -0.050 A 
ATOM     18  C   UNL     1       0.299  -0.503  -1.116  0.00  0.00    +0.007 A 
ATOM     19  C   UNL     1       1.165  -1.571  -0.986  0.00  0.00    +0.046 A 
ATOM     20  C   UNL     1       1.264  -2.242   0.224  0.00  0.00    +0.129 A 
ATOM     21  C   UNL     1       0.483  -1.830   1.313  0.00  0.00    +0.079 A 
ATOM     22  C   UNL     1      -0.385  -0.744   1.168  0.00  0.00    +0.020 A 
BRANCH  20  23
ATOM     23  O   UNL     1       2.113  -3.292   0.354  0.00  0.00    -0.506 OA
ATOM     24  H   UNL     1       3.002  -3.045   0.644  0.00  0.00    +0.292 HD
ENDBRANCH  20  23
ENDBRANCH   1  21
TORSDOF 4
