REMARK  Name = ZINC39662832
REMARK  5 active torsions:
REMARK  status: ('A' for Active; 'I' for Inactive)
REMARK    1  A    between atoms: C_3  and  C_8
REMARK    2  A    between atoms: C_12  and  C_21
REMARK    3  A    between atoms: N_23  and  C_24
REMARK    4  A    between atoms: C_24  and  C_25
REMARK    5  A    between atoms: C_28  and  C_31
REMARK                            x       y       z     vdW  Elec       q    Type
REMARK                         _______ _______ _______ _____ _____    ______ ____
ROOT
ATOM      1  C   UNL     1       3.693   2.026   1.172  0.00  0.00    +0.219 C 
ATOM      2  O   UNL     1       4.079   2.892   0.415  0.00  0.00    -0.275 OA
ATOM      3  N   UNL     1       4.492   1.599   2.170  0.00  0.00    -0.300 N 
ATOM      4  C   UNL     1       4.249   0.482   3.114  0.00  0.00    +0.121 C 
ATOM      5  C   UNL     1       5.627  -0.198   3.278  0.00  0.00    +0.100 C 
ATOM      6  C   UNL     1       6.649   0.896   2.923  0.00  0.00    -0.004 C 
ATOM      7  C   UNL     1       5.816   2.136   2.568  0.00  0.00    +0.115 C 
ATOM      8  C   UNL     1       7.484   0.467   1.720  0.00  0.00    -0.010 C 
ATOM      9  C   UNL     1       8.530   1.545   1.422  0.00  0.00    -0.082 C 
ATOM     10  N   UNL     1       9.389   1.735   2.597  0.00  0.00    +0.379 N 
ATOM     11  C   UNL     1       8.593   2.235   3.724  0.00  0.00    -0.082 C 
ATOM     12  C   UNL     1       7.549   1.187   4.119  0.00  0.00    -0.010 C 
ATOM     13  H   UNL     1       9.810   0.853   2.850  0.00  0.00    -0.086 HD
ATOM     14  H   UNL     1      10.115   2.400   2.378  0.00  0.00    -0.086 HD
ENDROOT
BRANCH   1  17
ATOM     15  C   UNL     1      -0.019   1.425   1.836  0.00  0.00    +0.027 C 
ATOM     16  C   UNL     1       1.319   2.165   1.894  0.00  0.00    +0.017 C 
ATOM     17  C   UNL     1       2.321   1.428   0.997  0.00  0.00    +0.079 C 
ATOM     18  C   UNL     1       1.871   1.579  -0.458  0.00  0.00    +0.039 C 
ATOM     19  C   UNL     1       0.418   1.230  -0.588  0.00  0.00    -0.030 C 
ATOM     20  C   UNL     1      -0.405   1.167   0.409  0.00  0.00    -0.031 C 
ENDBRANCH   1  17
BRANCH   5  21
ATOM     21  C   UNL     1       5.752  -1.364   2.331  0.00  0.00    +0.218 C 
ATOM     22  O   UNL     1       5.205  -1.328   1.250  0.00  0.00    -0.275 OA
ATOM     23  N   UNL     1       6.472  -2.446   2.687  0.00  0.00    -0.315 N 
ATOM     24  H   UNL     1       6.910  -2.474   3.552  0.00  0.00    +0.149 HD
BRANCH  23  25
ATOM     25  C   UNL     1       6.594  -3.579   1.767  0.00  0.00    +0.107 C 
BRANCH  25  26
ATOM     26  C   UNL     1       7.457  -4.667   2.410  0.00  0.00    +0.006 C 
ATOM     27  C   UNL     1       6.743  -5.222   3.644  0.00  0.00    +0.006 C 
ATOM     28  C   UNL     1       7.606  -6.310   4.286  0.00  0.00    +0.015 C 
ATOM     29  C   UNL     1       7.837  -7.439   3.280  0.00  0.00    +0.102 C 
ATOM     30  C   UNL     1       8.551  -6.884   2.046  0.00  0.00    +0.015 C 
ATOM     31  C   UNL     1       7.688  -5.796   1.403  0.00  0.00    +0.006 C 
BRANCH  29  32
ATOM     32  C   UNL     1       8.687  -8.510   3.913  0.00  0.00    +0.359 C 
ATOM     33  O   UNL     1       8.440  -9.686   3.706  0.00  0.00    -0.246 OA
ATOM     34  O   UNL     1       9.623  -8.201   4.631  0.00  0.00    -0.246 OA
ENDBRANCH  29  32
ENDBRANCH  25  26
ENDBRANCH  23  25
ENDBRANCH   5  21
TORSDOF 5
