REMARK  Name = ZINC50869855
REMARK  2 active torsions:
REMARK  status: ('A' for Active; 'I' for Inactive)
REMARK    1  A    between atoms: C_1  and  C_2
REMARK    2  A    between atoms: C_4  and  N_14
REMARK                            x       y       z     vdW  Elec       q    Type
REMARK                         _______ _______ _______ _____ _____    ______ ____
ROOT
ATOM      1  C   UNL     1      -0.018   1.503   0.010  0.00  0.00    +0.065 C 
ATOM      2  C   UNL     1       0.002  -0.004   0.002  0.00  0.00    +0.041 A 
ATOM      3  C   UNL     1       0.005  -0.672  -1.215  0.00  0.00    +0.046 A 
ATOM      4  C   UNL     1       0.025  -2.057  -1.238  0.00  0.00    +0.036 A 
ATOM      5  C   UNL     1       0.040  -2.740   0.002  0.00  0.00    +0.025 A 
ATOM      6  C   UNL     1       0.061  -4.140   0.064  0.00  0.00    +0.027 A 
ATOM      7  C   UNL     1       0.076  -4.762   1.277  0.00  0.00    +0.021 A 
ATOM      8  C   UNL     1       0.071  -4.023   2.458  0.00  0.00    +0.055 A 
ATOM      9  C   UNL     1       0.051  -2.661   2.434  0.00  0.00    +0.150 A 
ATOM     10  C   UNL     1       0.036  -1.985   1.199  0.00  0.00    +0.108 A 
ATOM     11  N   UNL     1       0.022  -0.648   1.145  0.00  0.00    -0.249 NA
ATOM     12  F   UNL     1       0.047  -1.961   3.590  0.00  0.00    -0.203 F 
ATOM     13 BR   UNL     1       0.103  -6.651   1.358  0.00  0.00    -0.050 Br
ENDROOT
BRANCH   4  14
ATOM     14  N   UNL     1       0.028  -2.754  -2.437  0.00  0.00    -0.357 N 
ATOM     15  H   UNL     1       0.017  -2.271  -3.279  0.00  0.00    +0.142 HD
ATOM     16  H   UNL     1       0.042  -3.724  -2.435  0.00  0.00    +0.142 HD
ENDBRANCH   4  14
TORSDOF 1
