REMARK  Name = ZINC00920324
REMARK  6 active torsions:
REMARK  status: ('A' for Active; 'I' for Inactive)
REMARK    1  A    between atoms: C_1  and  C_2
REMARK    2  A    between atoms: C_4  and  O_38
REMARK    3  A    between atoms: C_14  and  C_16
REMARK    4  A    between atoms: C_16  and  C_21
REMARK    5  A    between atoms: C_26  and  C_37
REMARK    6  A    between atoms: N_28  and  O_29
REMARK                            x       y       z     vdW  Elec       q    Type
REMARK                         _______ _______ _______ _____ _____    ______ ____
ROOT
ATOM      1  C   UNL     1       3.779   1.690   1.580  0.00  0.00    +0.012 C 
ATOM      2  C   UNL     1       2.348   1.175   1.412  0.00  0.00    -0.019 C 
ATOM      3  C   UNL     1       1.817   1.610   0.068  0.00  0.00    +0.039 C 
ATOM      4  C   UNL     1       0.345   1.235  -0.097  0.00  0.00    +0.119 C 
ATOM      5  C   UNL     1      -0.455   1.916   1.020  0.00  0.00    +0.033 C 
ATOM      6  C   UNL     1       0.008   1.381   2.350  0.00  0.00    -0.001 C 
ATOM      7  C   UNL     1       1.494   1.661   2.595  0.00  0.00    -0.001 C 
ATOM      8  C   UNL     1       1.956   0.743   3.759  0.00  0.00    +0.005 C 
ATOM      9  C   UNL     1       2.478  -0.551   3.108  0.00  0.00    +0.009 C 
ATOM     10  C   UNL     1       2.355  -0.356   1.579  0.00  0.00    +0.054 C 
ATOM     11  C   UNL     1      -0.806   2.012   3.484  0.00  0.00    +0.004 C 
ATOM     12  C   UNL     1      -2.292   1.719   3.269  0.00  0.00    +0.005 C 
ATOM     13  C   UNL     1      -2.742   2.308   1.934  0.00  0.00    +0.006 C 
ATOM     14  C   UNL     1      -1.933   1.685   0.793  0.00  0.00    +0.018 C 
ATOM     15  C   UNL     1      -2.358   2.350  -0.500  0.00  0.00    +0.069 C 
ATOM     16  N   UNL     1      -2.730   1.655  -1.508  0.00  0.00    -0.096 NA
ATOM     17  C   UNL     1      -2.329   3.861  -0.564  0.00  0.00    +0.119 C 
ATOM     18  C   UNL     1      -3.093   4.420   0.640  0.00  0.00    +0.176 C 
ATOM     19  C   UNL     1      -2.538   3.823   1.934  0.00  0.00    +0.069 C 
ATOM     20  O   UNL     1      -4.485   4.086   0.517  0.00  0.00    -0.346 OA
ATOM     21  C   UNL     1      -5.189   5.233   1.053  0.00  0.00    +0.191 C 
ATOM     22  C   UNL     1      -4.287   6.403   0.584  0.00  0.00    +0.191 C 
ATOM     23  O   UNL     1      -2.960   5.846   0.672  0.00  0.00    -0.346 OA
ATOM     24  C   UNL     1      -2.199   0.180   0.722  0.00  0.00    +0.018 C 
ENDROOT
BRANCH  10  25
ATOM     25  C   UNL     1       3.557  -0.971   0.859  0.00  0.00    +0.171 C 
ATOM     26  O   UNL     1       4.773  -0.424   1.396  0.00  0.00    -0.346 OA
ATOM     27  C   UNL     1       5.667  -0.322   0.264  0.00  0.00    +0.191 C 
ATOM     28  C   UNL     1       4.689   0.071  -0.872  0.00  0.00    +0.191 C 
ATOM     29  O   UNL     1       3.492  -0.661  -0.539  0.00  0.00    -0.346 OA
ATOM     30  C   UNL     1       3.549  -2.489   1.049  0.00  0.00    +0.074 C 
ENDBRANCH  10  25
BRANCH  16  31
ATOM     31  O   UNL     1      -3.124   2.299  -2.706  0.00  0.00    -0.409 OA
ATOM     32  H   UNL     1      -3.388   1.691  -3.411  0.00  0.00    +0.328 HD
ENDBRANCH  16  31
BRANCH   4  33
ATOM     33  O   UNL     1      -0.126   1.682  -1.370  0.00  0.00    -0.391 OA
ATOM     34  H   UNL     1       0.344   1.296  -2.122  0.00  0.00    +0.210 HD
ENDBRANCH   4  33
TORSDOF 3
