REMARK  Name = ZINC63809148
REMARK  7 active torsions:
REMARK  status: ('A' for Active; 'I' for Inactive)
REMARK    1  A    between atoms: C_1  and  C_2
REMARK    2  A    between atoms: C_4  and  O_26
REMARK    3  A    between atoms: C_5  and  O_24
REMARK    4  A    between atoms: C_7  and  N_8
REMARK    5  A    between atoms: C_9  and  C_11
REMARK    6  A    between atoms: O_24  and  C_25
REMARK    7  A    between atoms: O_26  and  C_27
REMARK                            x       y       z     vdW  Elec       q    Type
REMARK                         _______ _______ _______ _____ _____    ______ ____
ROOT
ATOM      1  N   UNL     1       0.025  -0.010   2.417  0.00  0.00    -0.281 N 
ATOM      2  C   UNL     1      -0.632  -0.512   3.481  0.00  0.00    +0.248 C 
ATOM      3  O   UNL     1      -1.149  -1.610   3.412  0.00  0.00    -0.270 OA
ATOM      4  H   UNL     1       0.493   0.837   2.491  0.00  0.00    +0.155 HD
ENDROOT
BRANCH   2   5
ATOM      5  C   UNL     1      -0.724   0.273   4.733  0.00  0.00    +0.039 A 
ATOM      6  C   UNL     1      -0.130   1.542   4.803  0.00  0.00    +0.014 A 
ATOM      7  C   UNL     1      -0.201   2.284   5.943  0.00  0.00    +0.016 A 
ATOM      8  C   UNL     1      -0.875   1.778   7.064  0.00  0.00    +0.065 A 
ATOM      9  C   UNL     1      -1.481   0.496   7.007  0.00  0.00    +0.080 A 
ATOM     10  C   UNL     1      -1.401  -0.250   5.823  0.00  0.00    +0.041 A 
ATOM     11  N   UNL     1      -2.122   0.028   8.088  0.00  0.00    -0.223 NA
ATOM     12  C   UNL     1      -2.192   0.747   9.197  0.00  0.00    +0.180 A 
ATOM     13  N   UNL     1      -1.636   1.965   9.302  0.00  0.00    -0.301 N 
ATOM     14  H   UNL     1      -1.712   2.456  10.135  0.00  0.00    +0.171 HD
ATOM     15  C   UNL     1      -0.971   2.515   8.263  0.00  0.00    +0.260 A 
ATOM     16  O   UNL     1      -0.414   3.735   8.369  0.00  0.00    -0.267 OA
ATOM     17  S   UNL     1      -3.023   0.101  10.547  0.00  0.00    -0.011 S 
ENDBRANCH   2   5
BRANCH   1  24
ATOM     18  C   UNL     1      -0.009   1.493   0.004  0.00  0.00    +0.046 C 
ATOM     19  C   UNL     1       0.015  -0.014   0.002  0.00  0.00    -0.026 A 
ATOM     20  C   UNL     1       0.027  -0.703  -1.196  0.00  0.00    +0.054 A 
ATOM     21  C   UNL     1       0.050  -2.088  -1.201  0.00  0.00    +0.162 A 
ATOM     22  C   UNL     1       0.060  -2.787   0.002  0.00  0.00    +0.163 A 
ATOM     23  C   UNL     1       0.049  -2.098   1.203  0.00  0.00    +0.073 A 
ATOM     24  C   UNL     1       0.031  -0.709   1.204  0.00  0.00    +0.040 A 
BRANCH  22  25
ATOM     25  O   UNL     1       0.082  -4.147  -0.001  0.00  0.00    -0.491 OA
ATOM     26  C   UNL     1       0.092  -4.799   1.271  0.00  0.00    +0.277 C 
ENDBRANCH  22  25
BRANCH  21  27
ATOM     27  O   UNL     1       0.060  -2.764  -2.381  0.00  0.00    -0.491 OA
ATOM     28  C   UNL     1       0.048  -1.982  -3.577  0.00  0.00    +0.277 C 
ENDBRANCH  21  27
ENDBRANCH   1  24
TORSDOF 4
