REMARK  Name = ZINC12198170
REMARK  7 active torsions:
REMARK  status: ('A' for Active; 'I' for Inactive)
REMARK    1  A    between atoms: C_1  and  C_2
REMARK    2  A    between atoms: C_5  and  C_7
REMARK    3  A    between atoms: C_7  and  N_65
REMARK    4  A    between atoms: C_10  and  C_13
REMARK    5  A    between atoms: C_13  and  C_25
REMARK    6  A    between atoms: N_16  and  C_20
REMARK    7  A    between atoms: C_25  and  C_26
REMARK                            x       y       z     vdW  Elec       q    Type
REMARK                         _______ _______ _______ _____ _____    ______ ____
ROOT
ATOM      1  C   UNL     1       6.071  -0.182  -5.273  0.00  0.00    +0.119 C 
ATOM      2  C   UNL     1       5.440  -1.490  -5.708  0.00  0.00    +0.247 C 
ATOM      3  O   UNL     1       4.257  -1.751  -5.757  0.00  0.00    -0.273 OA
ATOM      4  N   UNL     1       6.467  -2.301  -6.029  0.00  0.00    -0.221 N 
ATOM      5  C   UNL     1       7.647  -1.694  -5.859  0.00  0.00    +0.310 C 
ATOM      6  O   UNL     1       8.717  -2.224  -6.084  0.00  0.00    -0.252 OA
ATOM      7  N   UNL     1       7.516  -0.432  -5.412  0.00  0.00    -0.284 N 
ATOM      8  H   UNL     1       8.234   0.192  -5.220  0.00  0.00    +0.151 HD
ENDROOT
BRANCH   1  11
ATOM      9  C   UNL     1       3.853   0.623  -2.231  0.00  0.00    -0.078 C 
ATOM     10  C   UNL     1       4.210   0.373  -3.698  0.00  0.00    -0.013 C 
ATOM     11  C   UNL     1       5.717   0.129  -3.817  0.00  0.00    +0.018 C 
ATOM     12  C   UNL     1       6.105  -1.059  -2.932  0.00  0.00    -0.013 C 
ATOM     13  C   UNL     1       5.693  -0.767  -1.487  0.00  0.00    -0.078 C 
ATOM     14  N   UNL     1       4.229  -0.566  -1.437  0.00  0.00    +0.383 N 
ATOM     15  H   UNL     1       3.766  -1.391  -1.833  0.00  0.00    -0.081 HD
BRANCH  14  16
ATOM     16  C   UNL     1       3.791  -0.395  -0.036  0.00  0.00    -0.036 C 
BRANCH  16  21
ATOM     17  C   UNL     1      -1.200   2.284   0.020  0.00  0.00    +0.051 C 
ATOM     18  C   UNL     1      -0.016   1.351   0.009  0.00  0.00    -0.013 A 
ATOM     19  C   UNL     1       0.002  -0.004   0.002  0.00  0.00    +0.011 A 
ATOM     20  C   UNL     1       1.220  -0.658  -0.013  0.00  0.00    +0.009 A 
ATOM     21  C   UNL     1       2.360   0.076  -0.020  0.00  0.00    -0.026 A 
ATOM     22  S   UNL     1       1.725   1.744  -0.005  0.00  0.00    -0.100 S 
ENDBRANCH  16  21
ENDBRANCH  14  16
ENDBRANCH   1  11
BRANCH   4  23
ATOM     23  C   UNL     1       6.310  -3.678  -6.505  0.00  0.00    +0.086 C 
ATOM     24  C   UNL     1       7.061  -4.649  -5.570  0.00  0.00    +0.023 C 
ATOM     25  C   UNL     1       7.643  -5.721  -6.526  0.00  0.00    +0.002 C 
ATOM     26  C   UNL     1       8.059  -4.887  -7.763  0.00  0.00    +0.002 C 
ATOM     27  C   UNL     1       6.944  -3.829  -7.899  0.00  0.00    +0.023 C 
ENDBRANCH   4  23
BRANCH   1  28
ATOM     28  C   UNL     1       5.628   0.961  -6.189  0.00  0.00    +0.070 C 
BRANCH  28  29
ATOM     29  C   UNL     1       5.989   0.630  -7.614  0.00  0.00    -0.045 A 
ATOM     30  C   UNL     1       7.215   1.013  -8.123  0.00  0.00    +0.006 A 
ATOM     31  C   UNL     1       7.548   0.707  -9.429  0.00  0.00    +0.038 A 
ATOM     32  C   UNL     1       6.649   0.025 -10.230  0.00  0.00    +0.123 A 
ATOM     33  C   UNL     1       5.418  -0.354  -9.721  0.00  0.00    +0.038 A 
ATOM     34  C   UNL     1       5.089  -0.051  -8.414  0.00  0.00    +0.006 A 
ATOM     35  F   UNL     1       6.971  -0.272 -11.509  0.00  0.00    -0.205 F 
ENDBRANCH  28  29
ENDBRANCH   1  28
TORSDOF 6
