REMARK  Name = ZINC41630082
REMARK  9 active torsions:
REMARK  status: ('A' for Active; 'I' for Inactive)
REMARK    1  A    between atoms: C_1  and  C_2
REMARK    2  A    between atoms: C_2  and  C_3
REMARK    3  A    between atoms: C_3  and  C_5
REMARK    4  A    between atoms: C_3  and  S_16
REMARK    5  A    between atoms: N_7  and  C_8
REMARK    6  A    between atoms: C_9  and  C_15
REMARK    7  A    between atoms: C_13  and  C_14
REMARK    8  A    between atoms: S_16  and  C_17
REMARK    9  A    between atoms: C_23  and  N_25
REMARK                            x       y       z     vdW  Elec       q    Type
REMARK                         _______ _______ _______ _____ _____    ______ ____
ROOT
ATOM      1  C   UNL     1      -2.003  -0.627  -0.133  0.00  0.00    +0.140 C 
ENDROOT
BRANCH   1   2
ATOM      2  C   UNL     1      -1.934  -2.128  -0.020  0.00  0.00    +0.231 C 
ATOM      3  O   UNL     1      -2.656  -2.711   0.761  0.00  0.00    -0.274 OA
ATOM      4  N   UNL     1      -1.070  -2.823  -0.786  0.00  0.00    -0.284 N 
ATOM      5  H   UNL     1      -0.543  -2.365  -1.459  0.00  0.00    +0.155 HD
BRANCH   4   6
ATOM      6  C   UNL     1      -0.932  -4.204  -0.609  0.00  0.00    +0.039 A 
ATOM      7  C   UNL     1      -1.028  -5.058  -1.700  0.00  0.00    -0.029 A 
ATOM      8  C   UNL     1      -0.892  -6.421  -1.522  0.00  0.00    +0.005 A 
ATOM      9  C   UNL     1      -0.660  -6.935  -0.260  0.00  0.00    +0.001 A 
ATOM     10  C   UNL     1      -0.565  -6.088   0.828  0.00  0.00    +0.005 A 
ATOM     11  C   UNL     1      -0.694  -4.723   0.656  0.00  0.00    -0.029 A 
ATOM     12  C   UNL     1      -0.582  -3.800   1.842  0.00  0.00    +0.045 C 
ATOM     13  C   UNL     1      -1.281  -4.498  -3.076  0.00  0.00    +0.045 C 
ENDBRANCH   4   6
ENDBRANCH   1   2
BRANCH   1  15
ATOM     14  C   UNL     1      -0.840   1.511   0.433  0.00  0.00    +0.005 C 
ATOM     15  C   UNL     1      -0.855  -0.002   0.662  0.00  0.00    +0.020 C 
ENDBRANCH   1  15
BRANCH   1  16
ATOM     16  S   UNL     1      -3.587  -0.043   0.531  0.00  0.00    -0.075 S 
BRANCH  16  17
ATOM     17  C   UNL     1      -4.782  -0.671  -0.603  0.00  0.00    +0.171 A 
ATOM     18  N   UNL     1      -6.092  -0.333  -0.446  0.00  0.00    -0.302 N 
ATOM     19  H   UNL     1      -6.358   0.248   0.284  0.00  0.00    +0.171 HD
ATOM     20  C   UNL     1      -7.020  -0.805  -1.304  0.00  0.00    +0.254 A 
ATOM     21  O   UNL     1      -8.197  -0.507  -1.171  0.00  0.00    -0.268 OA
ATOM     22  C   UNL     1      -6.612  -1.640  -2.349  0.00  0.00    +0.113 A 
ATOM     23  C   UNL     1      -5.265  -1.954  -2.465  0.00  0.00    +0.124 A 
ATOM     24  N   UNL     1      -4.388  -1.452  -1.587  0.00  0.00    -0.209 NA
BRANCH  23  25
ATOM     25  N   UNL     1      -4.830  -2.776  -3.485  0.00  0.00    -0.343 N 
ATOM     26  H   UNL     1      -5.467  -3.135  -4.122  0.00  0.00    +0.144 HD
ATOM     27  H   UNL     1      -3.889  -2.994  -3.564  0.00  0.00    +0.144 HD
ENDBRANCH  23  25
ENDBRANCH  16  17
ENDBRANCH   1  16
TORSDOF 6
