REMARK  Name = ZINC39929769
REMARK  6 active torsions:
REMARK  status: ('A' for Active; 'I' for Inactive)
REMARK    1  A    between atoms: C_4  and  C_7
REMARK    2  A    between atoms: C_9  and  C_28
REMARK    3  A    between atoms: C_11  and  S_14
REMARK    4  A    between atoms: S_14  and  C_15
REMARK    5  A    between atoms: C_15  and  C_16
REMARK    6  A    between atoms: N_21  and  C_22
REMARK                            x       y       z     vdW  Elec       q    Type
REMARK                         _______ _______ _______ _____ _____    ______ ____
ROOT
ATOM      1  C   UNL     1       3.793  -0.682  -0.051  0.00  0.00    +0.136 C 
ATOM      2  C   UNL     1       4.106  -1.116   1.364  0.00  0.00    +0.067 C 
ATOM      3  N   UNL     1       4.454  -2.360   1.363  0.00  0.00    -0.256 NA
ATOM      4  C   UNL     1       4.425  -2.904   0.001  0.00  0.00    +0.233 C 
ATOM      5  N   UNL     1       3.619  -1.950  -0.801  0.00  0.00    -0.275 NA
ATOM      6  H   UNL     1       2.649  -2.226  -0.825  0.00  0.00    +0.126 HD
ENDROOT
BRANCH   1  10
ATOM      7  C   UNL     1       0.191   1.613  -0.146  0.00  0.00    +0.000 A 
ATOM      8  C   UNL     1       1.403   2.216  -0.428  0.00  0.00    +0.000 A 
ATOM      9  C   UNL     1       2.568   1.474  -0.397  0.00  0.00    +0.005 A 
ATOM     10  C   UNL     1       2.523   0.128  -0.084  0.00  0.00    -0.025 A 
ATOM     11  C   UNL     1       1.311  -0.475   0.199  0.00  0.00    +0.005 A 
ATOM     12  C   UNL     1       0.146   0.267   0.167  0.00  0.00    +0.000 A 
ENDBRANCH   1  10
BRANCH   2  13
ATOM     13  C   UNL     1       4.027  -0.253   2.559  0.00  0.00    -0.002 A 
ATOM     14  C   UNL     1       3.912  -0.822   3.829  0.00  0.00    +0.010 A 
ATOM     15  C   UNL     1       3.838  -0.010   4.941  0.00  0.00    +0.001 A 
ATOM     16  C   UNL     1       3.877   1.366   4.801  0.00  0.00    +0.000 A 
ATOM     17  C   UNL     1       3.991   1.937   3.545  0.00  0.00    +0.001 A 
ATOM     18  C   UNL     1       4.072   1.136   2.425  0.00  0.00    +0.010 A 
ENDBRANCH   2  13
BRANCH   4  19
ATOM     19  S   UNL     1       3.645  -4.542  -0.002  0.00  0.00    -0.111 S 
BRANCH  19  20
ATOM     20  C   UNL     1       1.991  -4.242   0.679  0.00  0.00    +0.149 C 
BRANCH  20  21
ATOM     21  C   UNL     1       1.227  -5.540   0.732  0.00  0.00    +0.149 A 
ATOM     22  N   UNL     1       0.473  -6.032  -0.210  0.00  0.00    -0.132 NA
ATOM     23  N   UNL     1      -0.028  -7.154   0.164  0.00  0.00    -0.121 NA
ATOM     24  C   UNL     1       0.381  -7.444   1.377  0.00  0.00    +0.207 A 
ATOM     25  S   UNL     1      -0.040  -8.878   2.311  0.00  0.00    -0.009 SA
ATOM     26  N   UNL     1       1.201  -6.425   1.778  0.00  0.00    -0.273 N 
BRANCH  26  27
ATOM     27  C   UNL     1       1.872  -6.308   3.003  0.00  0.00    +0.050 A 
ATOM     28  C   UNL     1       3.260  -6.323   3.041  0.00  0.00    +0.026 A 
ATOM     29  C   UNL     1       3.918  -6.208   4.249  0.00  0.00    +0.002 A 
ATOM     30  C   UNL     1       3.196  -6.078   5.422  0.00  0.00    +0.000 A 
ATOM     31  C   UNL     1       1.814  -6.063   5.388  0.00  0.00    +0.002 A 
ATOM     32  C   UNL     1       1.150  -6.171   4.181  0.00  0.00    +0.026 A 
ENDBRANCH  26  27
ENDBRANCH  20  21
ENDBRANCH  19  20
ENDBRANCH   4  19
TORSDOF 6
