REMARK  Name = ZINC45092984
REMARK  8 active torsions:
REMARK  status: ('A' for Active; 'I' for Inactive)
REMARK    1  A    between atoms: C_1  and  C_2
REMARK    2  A    between atoms: C_2  and  C_3
REMARK    3  A    between atoms: C_3  and  N_4
REMARK    4  A    between atoms: N_4  and  C_5
REMARK    5  A    between atoms: C_5  and  C_6
REMARK    6  A    between atoms: N_7  and  O_8
REMARK    7  A    between atoms: N_12  and  C_13
REMARK    8  A    between atoms: C_16  and  C_20
REMARK                            x       y       z     vdW  Elec       q    Type
REMARK                         _______ _______ _______ _____ _____    ______ ____
ROOT
ATOM      1  N   UNL     1       0.765  -1.976   1.239  0.00  0.00    -0.278 N 
ATOM      2  C   UNL     1      -0.235  -2.666   1.821  0.00  0.00    +0.307 C 
ATOM      3  O   UNL     1      -0.223  -3.882   1.807  0.00  0.00    -0.252 OA
ATOM      4  N   UNL     1      -1.248  -2.010   2.420  0.00  0.00    -0.269 N 
ATOM      5  H   UNL     1      -1.225  -1.042   2.490  0.00  0.00    +0.156 HD
ENDROOT
BRANCH   4   6
ATOM      6  C   UNL     1      -2.334  -2.723   2.940  0.00  0.00    +0.036 A 
ATOM      7  C   UNL     1      -3.613  -2.185   2.879  0.00  0.00    +0.024 A 
ATOM      8  C   UNL     1      -4.683  -2.891   3.392  0.00  0.00    +0.006 A 
ATOM      9  C   UNL     1      -4.483  -4.133   3.967  0.00  0.00    -0.032 A 
ATOM     10  C   UNL     1      -3.210  -4.672   4.030  0.00  0.00    +0.046 A 
ATOM     11  C   UNL     1      -2.136  -3.972   3.512  0.00  0.00    +0.043 A 
ATOM     12 CL   UNL     1      -2.962  -6.230   4.753  0.00  0.00    -0.083 Cl
ATOM     13  C   UNL     1      -5.653  -4.900   4.527  0.00  0.00    +0.045 C 
ENDBRANCH   4   6
BRANCH   1  14
ATOM     14  C   UNL     1       0.751  -0.511   1.257  0.00  0.00    +0.109 C 
BRANCH  14  16
ATOM     15  C   UNL     1       0.001   1.537   0.037  0.00  0.00    +0.005 C 
ATOM     16  C   UNL     1       0.016   0.007   0.019  0.00  0.00    +0.016 C 
ENDBRANCH  14  16
ENDBRANCH   1  14
BRANCH   1  17
ATOM     17  C   UNL     1       1.867  -2.689   0.589  0.00  0.00    +0.183 C 
BRANCH  17  18
ATOM     18  C   UNL     1       2.963  -2.942   1.591  0.00  0.00    +0.149 C 
ATOM     19  N   UNL     1       2.829  -2.538   2.811  0.00  0.00    -0.075 NA
ATOM     20  N   UNL     1       4.109  -3.603   1.207  0.00  0.00    -0.343 N 
ATOM     21  H   UNL     1       4.210  -3.906   0.291  0.00  0.00    +0.144 HD
ATOM     22  H   UNL     1       4.814  -3.766   1.852  0.00  0.00    +0.144 HD
BRANCH  19  23
ATOM     23  O   UNL     1       3.859  -2.775   3.753  0.00  0.00    -0.408 OA
ATOM     24  H   UNL     1       3.668  -2.437   4.638  0.00  0.00    +0.328 HD
ENDBRANCH  19  23
ENDBRANCH  17  18
ENDBRANCH   1  17
TORSDOF 6
