REMARK  Name = ZINC19940877
REMARK  8 active torsions:
REMARK  status: ('A' for Active; 'I' for Inactive)
REMARK    1  A    between atoms: C_1  and  C_2
REMARK    2  A    between atoms: C_5  and  C_40
REMARK    3  A    between atoms: C_9  and  C_14
REMARK    4  A    between atoms: C_14  and  C_16
REMARK    5  A    between atoms: C_14  and  N_27
REMARK    6  A    between atoms: N_20  and  C_21
REMARK    7  A    between atoms: N_30  and  C_33
REMARK    8  A    between atoms: C_33  and  C_34
REMARK                            x       y       z     vdW  Elec       q    Type
REMARK                         _______ _______ _______ _____ _____    ______ ____
ROOT
ATOM      1  C   UNL     1       1.750   3.127   0.002  0.00  0.00    +0.162 C 
ENDROOT
BRANCH   1  10
ATOM      2  C   UNL     1       0.683   6.553  -3.771  0.00  0.00    +0.044 C 
ATOM      3  C   UNL     1       1.788   5.661  -4.276  0.00  0.00    -0.041 A 
ATOM      4  C   UNL     1       2.308   5.852  -5.525  0.00  0.00    +0.004 A 
ATOM      5  C   UNL     1       3.326   5.037  -5.999  0.00  0.00    +0.005 A 
ATOM      6  C   UNL     1       3.833   4.019  -5.219  0.00  0.00    -0.026 A 
ATOM      7  C   UNL     1       3.319   3.805  -3.945  0.00  0.00    +0.052 A 
ATOM      8  C   UNL     1       2.287   4.635  -3.467  0.00  0.00    +0.002 A 
ATOM      9  C   UNL     1       1.753   4.403  -2.124  0.00  0.00    +0.021 A 
ATOM     10  C   UNL     1       2.276   3.393  -1.385  0.00  0.00    +0.042 A 
ATOM     11  C   UNL     1       3.315   2.594  -1.908  0.00  0.00    +0.254 A 
ATOM     12  O   UNL     1       3.774   1.694  -1.226  0.00  0.00    -0.268 OA
ATOM     13  N   UNL     1       3.807   2.795  -3.143  0.00  0.00    -0.322 N 
ATOM     14  H   UNL     1       4.611   2.141  -3.512  0.00  0.00    +0.169 HD
ATOM     15  C   UNL     1       4.939   3.142  -5.746  0.00  0.00    +0.046 C 
ENDBRANCH   1  10
BRANCH   1  16
ATOM     16  N   UNL     1       2.867   3.119   0.956  0.00  0.00    -0.286 NA
ATOM     17  C   UNL     1       2.399   2.796   2.311  0.00  0.00    +0.101 C 
ATOM     18  C   UNL     1       3.600   2.720   3.257  0.00  0.00    +0.100 C 
ATOM     19  N   UNL     1       4.314   4.004   3.243  0.00  0.00    -0.296 NA
ATOM     20  C   UNL     1       4.781   4.328   1.887  0.00  0.00    +0.100 C 
ATOM     21  C   UNL     1       3.581   4.404   0.941  0.00  0.00    +0.101 C 
BRANCH  19  22
ATOM     22  C   UNL     1       5.431   3.997   4.197  0.00  0.00    +0.119 C 
BRANCH  22  23
ATOM     23  C   UNL     1       4.891   3.907   5.601  0.00  0.00    -0.033 A 
ATOM     24  C   UNL     1       4.605   5.060   6.307  0.00  0.00    +0.005 A 
ATOM     25  C   UNL     1       4.106   4.978   7.593  0.00  0.00    +0.000 A 
ATOM     26  C   UNL     1       3.901   3.741   8.177  0.00  0.00    +0.000 A 
ATOM     27  C   UNL     1       4.192   2.588   7.473  0.00  0.00    +0.000 A 
ATOM     28  C   UNL     1       4.687   2.671   6.185  0.00  0.00    +0.005 A 
ENDBRANCH  22  23
ENDBRANCH  19  22
ENDBRANCH   1  16
BRANCH   1  29
ATOM     29  C   UNL     1       1.058   1.788   0.028  0.00  0.00    +0.173 A 
ATOM     30  N   UNL     1       1.632   0.610   0.024  0.00  0.00    -0.111 NA
ATOM     31  N   UNL     1       0.705  -0.284   0.052  0.00  0.00    -0.023 NA
ATOM     32  N   UNL     1      -0.446   0.293   0.074  0.00  0.00    -0.044 NA
ATOM     33  N   UNL     1      -0.270   1.571   0.060  0.00  0.00    -0.224 N 
BRANCH  33  34
ATOM     34  C   UNL     1      -1.319   2.593   0.071  0.00  0.00    +0.111 C 
ATOM     35  C   UNL     1      -2.165   2.444   1.337  0.00  0.00    +0.027 C 
ATOM     36  C   UNL     1      -3.260   3.511   1.348  0.00  0.00    +0.002 C 
ATOM     37  C   UNL     1      -4.152   3.340   0.117  0.00  0.00    +0.000 C 
ATOM     38  C   UNL     1      -3.307   3.490  -1.150  0.00  0.00    +0.002 C 
ATOM     39  C   UNL     1      -2.211   2.422  -1.161  0.00  0.00    +0.027 C 
ENDBRANCH  33  34
ENDBRANCH   1  29
TORSDOF 6
