REMARK  Name = ZINC62089062
REMARK  6 active torsions:
REMARK  status: ('A' for Active; 'I' for Inactive)
REMARK    1  A    between atoms: C_1  and  C_2
REMARK    2  A    between atoms: C_5  and  S_9
REMARK    3  A    between atoms: C_7  and  C_8
REMARK    4  A    between atoms: S_9  and  N_12
REMARK    5  A    between atoms: N_12  and  C_13
REMARK    6  A    between atoms: N_19  and  C_23
REMARK                            x       y       z     vdW  Elec       q    Type
REMARK                         _______ _______ _______ _____ _____    ______ ____
ROOT
ATOM      1  N   UNL     1       1.644  -4.999  -0.172  0.00  0.00    -0.216 N 
ATOM      2  H   UNL     1       1.793  -5.868   0.231  0.00  0.00    +0.174 HD
ENDROOT
BRANCH   1   3
ATOM      3  C   UNL     1       2.385  -4.611  -1.293  0.00  0.00    +0.050 A 
ATOM      4  C   UNL     1       1.792  -4.606  -2.550  0.00  0.00    +0.028 A 
ATOM      5  C   UNL     1       2.519  -4.224  -3.660  0.00  0.00    +0.050 A 
ATOM      6  C   UNL     1       3.846  -3.845  -3.524  0.00  0.00    +0.157 A 
ATOM      7  C   UNL     1       4.443  -3.850  -2.263  0.00  0.00    +0.092 A 
ATOM      8  C   UNL     1       3.711  -4.227  -1.149  0.00  0.00    +0.054 A 
ATOM      9  N   UNL     1       5.760  -3.427  -2.444  0.00  0.00    -0.277 N 
ATOM     10  C   UNL     1       5.930  -3.184  -3.759  0.00  0.00    +0.421 A 
ATOM     11  O   UNL     1       6.963  -2.799  -4.273  0.00  0.00    -0.223 OA
ATOM     12  O   UNL     1       4.785  -3.433  -4.412  0.00  0.00    -0.407 OA
ATOM     13  C   UNL     1       6.772  -3.276  -1.397  0.00  0.00    +0.156 C 
ENDBRANCH   1   3
BRANCH   1  14
ATOM     14  S   UNL     1       0.511  -3.973   0.467  0.00  0.00    +0.072 S 
ATOM     15  O   UNL     1      -0.016  -4.617   1.618  0.00  0.00    -0.150 OA
ATOM     16  O   UNL     1      -0.309  -3.551  -0.614  0.00  0.00    -0.150 OA
BRANCH  14  21
ATOM     17  C   UNL     1       3.439   0.927   2.422  0.00  0.00    +0.044 C 
ATOM     18  C   UNL     1       2.708  -0.297   1.934  0.00  0.00    -0.047 A 
ATOM     19  C   UNL     1       2.135  -0.304   0.675  0.00  0.00    +0.005 A 
ATOM     20  C   UNL     1       1.465  -1.426   0.227  0.00  0.00    +0.029 A 
ATOM     21  C   UNL     1       1.367  -2.542   1.037  0.00  0.00    +0.109 A 
ATOM     22  C   UNL     1       1.940  -2.536   2.295  0.00  0.00    +0.032 A 
ATOM     23  C   UNL     1       2.615  -1.415   2.741  0.00  0.00    -0.046 A 
ATOM     24  C   UNL     1       3.244  -1.409   4.111  0.00  0.00    +0.044 C 
ENDBRANCH  14  21
ENDBRANCH   1  14
TORSDOF 3
