REMARK  Name = ZINC33035418
REMARK  7 active torsions:
REMARK  status: ('A' for Active; 'I' for Inactive)
REMARK    1  A    between atoms: C_1  and  C_2
REMARK    2  A    between atoms: C_7  and  S_12
REMARK    3  A    between atoms: C_9  and  C_11
REMARK    4  A    between atoms: S_12  and  C_13
REMARK    5  A    between atoms: C_13  and  C_14
REMARK    6  A    between atoms: N_16  and  C_17
REMARK    7  A    between atoms: C_20  and  N_24
REMARK                            x       y       z     vdW  Elec       q    Type
REMARK                         _______ _______ _______ _____ _____    ______ ____
ROOT
ATOM      1  C   UNL     1      -0.739   1.590  -1.213  0.00  0.00    +0.228 C 
ATOM      2  O   UNL     1      -1.735   2.270  -1.089  0.00  0.00    -0.275 OA
ATOM      3  N   UNL     1      -0.288   1.272  -2.443  0.00  0.00    -0.284 N 
ATOM      4  H   UNL     1       0.655   0.719  -2.557  0.00  0.00    +0.155 HD
ENDROOT
BRANCH   3   5
ATOM      5  C   UNL     1      -1.022   1.647  -3.575  0.00  0.00    +0.048 A 
ATOM      6  C   UNL     1      -1.723   2.845  -3.585  0.00  0.00    +0.026 A 
ATOM      7  C   UNL     1      -2.445   3.212  -4.704  0.00  0.00    +0.034 A 
ATOM      8  C   UNL     1      -2.471   2.387  -5.813  0.00  0.00    +0.127 A 
ATOM      9  C   UNL     1      -1.775   1.192  -5.807  0.00  0.00    +0.049 A 
ATOM     10  C   UNL     1      -1.045   0.822  -4.693  0.00  0.00    +0.041 A 
ATOM     11 BR   UNL     1      -0.086  -0.808  -4.688  0.00  0.00    -0.048 Br
BRANCH   8  12
ATOM     12  N   UNL     1      -3.246   2.783  -7.010  0.00  0.00    +0.056 N 
ATOM     13  O   UNL     1      -3.860   3.836  -7.017  0.00  0.00    -0.126 OA
ATOM     14  O   UNL     1      -3.270   2.058  -7.988  0.00  0.00    -0.126 OA
ENDBRANCH   8  12
ENDBRANCH   3   5
BRANCH   1  15
ATOM     15  C   UNL     1      -0.004   1.101   0.008  0.00  0.00    +0.173 C 
BRANCH  15  16
ATOM     16  S   UNL     1      -0.850   1.691   1.500  0.00  0.00    -0.076 S 
BRANCH  16  23
ATOM     17  C   UNL     1      -0.084   1.233   8.376  0.00  0.00    +0.066 C 
ATOM     18  C   UNL     1      -0.071   1.210   6.869  0.00  0.00    +0.044 A 
ATOM     19  C   UNL     1       0.910   0.536   6.215  0.00  0.00    +0.071 A 
ATOM     20  C   UNL     1       0.896   0.532   4.803  0.00  0.00    +0.165 A 
ATOM     21  N   UNL     1       1.660   0.003   3.872  0.00  0.00    -0.128 NA
ATOM     22  N   UNL     1       1.196   0.302   2.709  0.00  0.00    -0.122 NA
ATOM     23  C   UNL     1       0.118   1.044   2.823  0.00  0.00    +0.198 A 
ATOM     24  N   UNL     1      -0.117   1.216   4.154  0.00  0.00    -0.258 N 
ATOM     25  C   UNL     1      -1.062   1.867   4.885  0.00  0.00    +0.114 A 
ATOM     26  N   UNL     1      -1.027   1.855   6.188  0.00  0.00    -0.239 NA
ATOM     27  C   UNL     1      -2.165   2.612   4.179  0.00  0.00    +0.086 C 
ENDBRANCH  16  23
ENDBRANCH  15  16
ENDBRANCH   1  15
TORSDOF 5
