REMARK  Name = ZINC13976849
REMARK  7 active torsions:
REMARK  status: ('A' for Active; 'I' for Inactive)
REMARK    1  A    between atoms: C_5  and  C_7
REMARK    2  A    between atoms: N_9  and  N_10
REMARK    3  A    between atoms: N_10  and  C_11
REMARK    4  A    between atoms: C_11  and  N_13
REMARK    5  A    between atoms: C_14  and  C_16
REMARK    6  A    between atoms: C_16  and  O_17
REMARK    7  A    between atoms: O_17  and  C_18
REMARK                            x       y       z     vdW  Elec       q    Type
REMARK                         _______ _______ _______ _____ _____    ______ ____
ROOT
ATOM      1  C   UNL     1       2.369   1.025  -0.015  0.00  0.00    +0.153 C 
ATOM      2  S   UNL     1       3.840   1.901  -0.024  0.00  0.00    -0.017 S 
ENDROOT
BRANCH   1   3
ATOM      3  N   UNL     1       2.387  -0.323  -0.022  0.00  0.00    -0.264 N 
ATOM      4  C   UNL     1       3.563  -0.981  -0.037  0.00  0.00    +0.256 C 
ATOM      5  O   UNL     1       4.605  -0.360  -0.044  0.00  0.00    -0.272 OA
ATOM      6  H   UNL     1       1.554  -0.819  -0.017  0.00  0.00    +0.157 HD
BRANCH   4   7
ATOM      7  C   UNL     1       3.584  -2.487  -0.045  0.00  0.00    +0.325 C 
BRANCH   7   8
ATOM      8  O   UNL     1       4.937  -2.946  -0.061  0.00  0.00    -0.481 OA
BRANCH   8   9
ATOM      9  C   UNL     1       5.133  -4.290  -0.070  0.00  0.00    +0.139 A 
ATOM     10  C   UNL     1       4.046  -5.151  -0.059  0.00  0.00    +0.047 A 
ATOM     11  C   UNL     1       4.248  -6.518  -0.074  0.00  0.00    +0.004 A 
ATOM     12  C   UNL     1       5.533  -7.029  -0.089  0.00  0.00    +0.002 A 
ATOM     13  C   UNL     1       6.619  -6.173  -0.094  0.00  0.00    +0.023 A 
ATOM     14  C   UNL     1       6.423  -4.805  -0.085  0.00  0.00    +0.083 A 
ATOM     15 CL   UNL     1       7.787  -3.731  -0.092  0.00  0.00    -0.080 Cl
ENDBRANCH   8   9
ENDBRANCH   7   8
ENDBRANCH   4   7
ENDBRANCH   1   3
BRANCH   1  16
ATOM     16  N   UNL     1       1.193   1.683  -0.000  0.00  0.00    -0.245 N 
ATOM     17  H   UNL     1       1.179   2.653   0.005  0.00  0.00    +0.172 HD
BRANCH  16  20
ATOM     18  C   UNL     1      -1.187   1.624   0.017  0.00  0.00    +0.261 C 
ATOM     19  O   UNL     1      -1.204   2.839   0.023  0.00  0.00    -0.269 OA
ATOM     20  N   UNL     1      -0.011   0.966   0.007  0.00  0.00    -0.231 N 
ATOM     21  H   UNL     1       0.002  -0.004   0.002  0.00  0.00    +0.173 HD
BRANCH  18  26
ATOM     22  C   UNL     1      -3.630  -1.228   0.011  0.00  0.00    +0.001 A 
ATOM     23  C   UNL     1      -4.837  -0.550   0.021  0.00  0.00    +0.001 A 
ATOM     24  C   UNL     1      -4.860   0.833   0.029  0.00  0.00    +0.015 A 
ATOM     25  C   UNL     1      -3.678   1.546   0.028  0.00  0.00    +0.026 A 
ATOM     26  C   UNL     1      -2.457   0.867   0.018  0.00  0.00    +0.051 A 
ATOM     27  C   UNL     1      -2.442  -0.528   0.005  0.00  0.00    +0.014 A 
ATOM     28  I   UNL     1      -3.714   3.640   0.040  0.00  0.00    -0.043 I 
ENDBRANCH  18  26
ENDBRANCH  16  20
ENDBRANCH   1  16
TORSDOF 7
