REMARK  Name = ZINC12756048
REMARK  11 active torsions:
REMARK  status: ('A' for Active; 'I' for Inactive)
REMARK    1  A    between atoms: C_1  and  C_2
REMARK    2  A    between atoms: C_5  and  C_28
REMARK    3  A    between atoms: C_6  and  C_8
REMARK    4  A    between atoms: C_8  and  C_10
REMARK    5  A    between atoms: C_8  and  N_51
REMARK    6  A    between atoms: C_11  and  C_12
REMARK    7  A    between atoms: C_11  and  N_51
REMARK    8  A    between atoms: C_19  and  O_26
REMARK    9  A    between atoms: C_20  and  O_24
REMARK   10  A    between atoms: O_24  and  C_25
REMARK   11  A    between atoms: O_26  and  C_27
REMARK                            x       y       z     vdW  Elec       q    Type
REMARK                         _______ _______ _______ _____ _____    ______ ____
ROOT
ATOM      1  C   UNL     1      -1.254   5.855   1.781  0.00  0.00    +0.093 A 
ATOM      2  N   UNL     1      -1.310   7.084   2.359  0.00  0.00    -0.312 N 
ATOM      3  H   UNL     1      -0.519   7.645   2.373  0.00  0.00    +0.170 HD
ATOM      4  C   UNL     1      -2.459   7.532   2.916  0.00  0.00    +0.259 A 
ATOM      5  O   UNL     1      -2.523   8.631   3.436  0.00  0.00    -0.267 OA
ATOM      6  C   UNL     1      -3.627   6.642   2.868  0.00  0.00    +0.068 A 
ATOM      7  C   UNL     1      -4.856   7.012   3.413  0.00  0.00    +0.064 A 
ATOM      8  C   UNL     1      -5.922   6.140   3.341  0.00  0.00    +0.162 A 
ATOM      9  C   UNL     1      -5.776   4.891   2.727  0.00  0.00    +0.164 A 
ATOM     10  C   UNL     1      -4.564   4.512   2.183  0.00  0.00    +0.078 A 
ATOM     11  C   UNL     1      -3.475   5.382   2.246  0.00  0.00    +0.082 A 
ATOM     12  N   UNL     1      -2.269   5.049   1.719  0.00  0.00    -0.236 NA
ENDROOT
BRANCH   9  13
ATOM     13  O   UNL     1      -6.835   4.044   2.665  0.00  0.00    -0.491 OA
ATOM     14  C   UNL     1      -6.621   2.784   2.025  0.00  0.00    +0.277 C 
ENDBRANCH   9  13
BRANCH   8  15
ATOM     15  O   UNL     1      -7.124   6.495   3.870  0.00  0.00    -0.491 OA
ATOM     16  C   UNL     1      -7.207   7.784   4.483  0.00  0.00    +0.277 C 
ENDBRANCH   8  15
BRANCH   1  17
ATOM     17  C   UNL     1       0.052   5.408   1.176  0.00  0.00    -0.006 C 
BRANCH  17  18
ATOM     18  N   UNL     1      -0.115   4.056   0.611  0.00  0.00    +0.388 N 
ATOM     19  H   UNL     1      -0.393   3.408   1.357  0.00  0.00    -0.084 HD
ATOM     20  H   UNL     1      -0.844   4.079  -0.112  0.00  0.00    -0.084 HD
BRANCH  18  21
ATOM     21  C   UNL     1       1.151   3.592   0.010  0.00  0.00    -0.043 C 
ATOM     22  C   UNL     1       1.256   4.112  -1.425  0.00  0.00    -0.009 C 
BRANCH  21  28
ATOM     23  C   UNL     1      -1.293  -0.775   0.010  0.00  0.00    +0.044 C 
ATOM     24  C   UNL     1       0.002  -0.004   0.002  0.00  0.00    -0.050 A 
ATOM     25  C   UNL     1       1.209  -0.679  -0.014  0.00  0.00    +0.003 A 
ATOM     26  C   UNL     1       2.396   0.028  -0.021  0.00  0.00    +0.004 A 
ATOM     27  C   UNL     1       2.377   1.411  -0.014  0.00  0.00    -0.049 A 
ATOM     28  C   UNL     1       1.171   2.085   0.002  0.00  0.00    -0.058 A 
ATOM     29  C   UNL     1      -0.017   1.378   0.010  0.00  0.00    +0.005 A 
ATOM     30  C   UNL     1       3.672   2.182  -0.021  0.00  0.00    +0.044 C 
ENDBRANCH  21  28
ENDBRANCH  18  21
ENDBRANCH  17  18
ENDBRANCH   1  17
TORSDOF 6
