REMARK  Name = ZINC08743316
REMARK  8 active torsions:
REMARK  status: ('A' for Active; 'I' for Inactive)
REMARK    1  A    between atoms: C_1  and  C_2
REMARK    2  A    between atoms: C_3  and  C_25
REMARK    3  A    between atoms: C_4  and  C_16
REMARK    4  A    between atoms: C_19  and  O_24
REMARK    5  A    between atoms: C_20  and  O_22
REMARK    6  A    between atoms: O_22  and  C_23
REMARK    7  A    between atoms: C_25  and  O_27
REMARK    8  A    between atoms: O_27  and  C_28
REMARK                            x       y       z     vdW  Elec       q    Type
REMARK                         _______ _______ _______ _____ _____    ______ ____
ROOT
ATOM      1  C   UNL     1      -0.018   1.503   0.010  0.00  0.00    +0.066 C 
ATOM      2  C   UNL     1       0.002  -0.004   0.002  0.00  0.00    +0.054 C 
ATOM      3  C   UNL     1      -1.184  -0.687   0.004  0.00  0.00    +0.083 C 
ATOM      4  C   UNL     1      -1.107  -2.203  -0.005  0.00  0.00    +0.150 C 
ATOM      5  N   UNL     1       0.244  -2.785  -0.014  0.00  0.00    -0.259 N 
ATOM      6  C   UNL     1       0.697  -4.097  -0.024  0.00  0.00    +0.058 A 
ATOM      7  C   UNL     1       0.050  -5.325  -0.028  0.00  0.00    +0.025 A 
ATOM      8  C   UNL     1       0.787  -6.492  -0.038  0.00  0.00    +0.002 A 
ATOM      9  C   UNL     1       2.171  -6.443  -0.044  0.00  0.00    +0.002 A 
ATOM     10  C   UNL     1       2.825  -5.228  -0.040  0.00  0.00    +0.025 A 
ATOM     11  C   UNL     1       2.093  -4.048  -0.030  0.00  0.00    +0.055 A 
ATOM     12  N   UNL     1       2.456  -2.707  -0.025  0.00  0.00    -0.285 N 
ATOM     13  C   UNL     1       1.319  -1.948  -0.015  0.00  0.00    +0.193 C 
ATOM     14  N   UNL     1       1.166  -0.633  -0.013  0.00  0.00    -0.222 NA
ATOM     15  H   UNL     1       3.365  -2.366  -0.027  0.00  0.00    +0.155 HD
ENDROOT
BRANCH   4  16
ATOM     16  C   UNL     1      -1.825  -2.716   1.217  0.00  0.00    -0.018 A 
ATOM     17  C   UNL     1      -1.192  -2.702   2.446  0.00  0.00    +0.009 A 
ATOM     18  C   UNL     1      -1.847  -3.172   3.569  0.00  0.00    +0.049 A 
ATOM     19  C   UNL     1      -3.141  -3.657   3.465  0.00  0.00    +0.158 A 
ATOM     20  C   UNL     1      -3.778  -3.670   2.228  0.00  0.00    +0.162 A 
ATOM     21  C   UNL     1      -3.118  -3.194   1.107  0.00  0.00    +0.055 A 
BRANCH  20  22
ATOM     22  O   UNL     1      -5.048  -4.146   2.120  0.00  0.00    -0.491 OA
ATOM     23  C   UNL     1      -5.639  -4.129   0.820  0.00  0.00    +0.277 C 
ENDBRANCH  20  22
BRANCH  19  24
ATOM     24  O   UNL     1      -3.786  -4.120   4.569  0.00  0.00    -0.503 OA
ATOM     25  H   UNL     1      -4.289  -3.443   5.043  0.00  0.00    +0.292 HD
ENDBRANCH  19  24
ENDBRANCH   4  16
BRANCH   3  26
ATOM     26  C   UNL     1      -2.416  -0.016   0.014  0.00  0.00    +0.339 C 
ATOM     27  O   UNL     1      -2.446   1.202   0.021  0.00  0.00    -0.245 OA
BRANCH  26  28
ATOM     28  O   UNL     1      -3.569  -0.721   0.016  0.00  0.00    -0.465 OA
ATOM     29  C   UNL     1      -4.786   0.028   0.026  0.00  0.00    +0.280 C 
ENDBRANCH  26  28
ENDBRANCH   3  26
TORSDOF 5
