REMARK  Name = ZINC36716801
REMARK  7 active torsions:
REMARK  status: ('A' for Active; 'I' for Inactive)
REMARK    1  A    between atoms: C_1  and  C_2
REMARK    2  A    between atoms: C_4  and  N_12
REMARK    3  A    between atoms: C_7  and  N_8
REMARK    4  A    between atoms: C_9  and  C_11
REMARK    5  A    between atoms: C_13  and  C_15
REMARK    6  A    between atoms: C_15  and  O_16
REMARK    7  A    between atoms: O_16  and  C_17
REMARK                            x       y       z     vdW  Elec       q    Type
REMARK                         _______ _______ _______ _____ _____    ______ ____
ROOT
ATOM      1  N   UNL     1       0.023  -3.071  -2.160  0.00  0.00    -0.283 N 
ATOM      2  C   UNL     1       0.226  -4.389  -1.968  0.00  0.00    +0.255 C 
ATOM      3  O   UNL     1       0.494  -4.807  -0.862  0.00  0.00    -0.272 OA
ATOM      4  H   UNL     1      -0.127  -2.728  -3.055  0.00  0.00    +0.155 HD
ENDROOT
BRANCH   1   8
ATOM      5  C   UNL     1       1.838  -1.792   2.227  0.00  0.00    +0.046 C 
ATOM      6  C   UNL     1       0.898  -1.553   1.074  0.00  0.00    -0.027 A 
ATOM      7  C   UNL     1       0.893  -2.416  -0.004  0.00  0.00    +0.028 A 
ATOM      8  C   UNL     1       0.026  -2.196  -1.066  0.00  0.00    +0.034 A 
ATOM      9  C   UNL     1      -0.837  -1.107  -1.044  0.00  0.00    +0.025 A 
ATOM     10  C   UNL     1      -0.832  -0.245   0.034  0.00  0.00    +0.025 A 
ATOM     11  C   UNL     1       0.031  -0.468   1.099  0.00  0.00    +0.036 A 
BRANCH  11  12
ATOM     12  N   UNL     1       0.032   0.404   2.195  0.00  0.00    -0.285 N 
ATOM     13  C   UNL     1      -0.328   1.692   2.031  0.00  0.00    +0.214 C 
ATOM     14  O   UNL     1      -0.727   2.078   0.952  0.00  0.00    -0.276 OA
ATOM     15  C   UNL     1      -0.235   2.654   3.187  0.00  0.00    +0.109 C 
ATOM     16  H   UNL     1       0.291   0.081   3.072  0.00  0.00    +0.155 HD
ENDBRANCH  11  12
ENDBRANCH   1   8
BRANCH   2  17
ATOM     17  C   UNL     1       0.121  -5.344  -3.130  0.00  0.00    +0.324 C 
BRANCH  17  18
ATOM     18  O   UNL     1       0.377  -6.675  -2.677  0.00  0.00    -0.483 OA
BRANCH  18  19
ATOM     19  C   UNL     1       0.321  -7.663  -3.606  0.00  0.00    +0.125 A 
ATOM     20  C   UNL     1       0.030  -7.350  -4.932  0.00  0.00    +0.046 A 
ATOM     21  C   UNL     1      -0.030  -8.332  -5.877  0.00  0.00    +0.015 A 
ATOM     22  C   UNL     1       0.203  -9.663  -5.513  0.00  0.00    +0.018 A 
ATOM     23  C   UNL     1       0.146 -10.738  -6.506  0.00  0.00    +0.018 A 
ATOM     24  C   UNL     1       0.382 -12.009  -6.090  0.00  0.00    +0.092 A 
ATOM     25  C   UNL     1       0.672 -12.261  -4.733  0.00  0.00    +0.337 A 
ATOM     26  O   UNL     1       0.881 -13.405  -4.373  0.00  0.00    -0.245 OA
ATOM     27  O   UNL     1       0.723 -11.271  -3.828  0.00  0.00    -0.422 OA
ATOM     28  C   UNL     1       0.498  -9.986  -4.175  0.00  0.00    +0.143 A 
ATOM     29  C   UNL     1       0.560  -8.975  -3.228  0.00  0.00    +0.092 A 
ENDBRANCH  18  19
ENDBRANCH  17  18
ENDBRANCH   2  17
TORSDOF 5
