REMARK  Name = ZINC38688516
REMARK  7 active torsions:
REMARK  status: ('A' for Active; 'I' for Inactive)
REMARK    1  A    between atoms: C_1  and  C_2
REMARK    2  A    between atoms: C_10  and  C_11
REMARK    3  A    between atoms: C_11  and  O_13
REMARK    4  A    between atoms: O_13  and  C_14
REMARK    5  A    between atoms: C_21  and  N_32
REMARK    6  A    between atoms: C_22  and  C_30
REMARK    7  A    between atoms: C_23  and  C_25
REMARK                            x       y       z     vdW  Elec       q    Type
REMARK                         _______ _______ _______ _____ _____    ______ ____
ROOT
ATOM      1  C   UNL     1       0.026  -0.746   4.722  0.00  0.00    +0.136 A 
ATOM      2  C   UNL     1      -0.069   0.630   4.874  0.00  0.00    +0.047 A 
ATOM      3  C   UNL     1      -0.098   1.185   6.138  0.00  0.00    +0.012 A 
ATOM      4  C   UNL     1      -0.034   0.373   7.257  0.00  0.00    +0.011 A 
ATOM      5  C   UNL     1       0.060  -1.002   7.111  0.00  0.00    +0.138 A 
ATOM      6  C   UNL     1       0.085  -1.562   5.840  0.00  0.00    +0.093 A 
ATOM      7  O   UNL     1       0.124  -1.814   8.195  0.00  0.00    -0.441 OA
ATOM      8  C   UNL     1      -0.282  -1.364   9.394  0.00  0.00    +0.199 C 
ATOM      9  C   UNL     1      -0.394  -0.042   9.663  0.00  0.00    +0.101 C 
ATOM     10  C   UNL     1      -0.068   0.997   8.627  0.00  0.00    +0.134 C 
ENDROOT
BRANCH  10  11
ATOM     11  C   UNL     1       1.278   1.601   8.933  0.00  0.00    +0.117 A 
ATOM     12  C   UNL     1       1.515   2.897   9.206  0.00  0.00    +0.045 A 
ATOM     13  C   UNL     1       2.906   3.021   9.430  0.00  0.00    +0.041 A 
ATOM     14  C   UNL     1       3.436   1.793   9.281  0.00  0.00    +0.195 A 
ATOM     15  O   UNL     1       2.444   0.936   8.986  0.00  0.00    -0.467 OA
ENDBRANCH  10  11
BRANCH   8  16
ATOM     16  N   UNL     1      -0.593  -2.272  10.376  0.00  0.00    -0.328 N 
ATOM     17  H   UNL     1      -0.518  -3.222  10.199  0.00  0.00    +0.145 HD
ATOM     18  H   UNL     1      -0.887  -1.962  11.247  0.00  0.00    +0.145 HD
ENDBRANCH   8  16
BRANCH   9  19
ATOM     19  C   UNL     1      -0.834   0.376  10.960  0.00  0.00    +0.101 C 
ATOM     20  N   UNL     1      -1.183   0.707  11.990  0.00  0.00    -0.191 NA
ENDBRANCH   9  19
BRANCH   1  21
ATOM     21  O   UNL     1       0.054  -1.293   3.478  0.00  0.00    -0.420 OA
BRANCH  21  22
ATOM     22  C   UNL     1      -1.073  -1.869   3.014  0.00  0.00    +0.380 C 
ATOM     23  O   UNL     1      -2.047  -1.968   3.735  0.00  0.00    -0.241 OA
BRANCH  22  33
ATOM     24  C   UNL     1      -3.542  -3.235   1.704  0.00  0.00    +0.048 C 
ATOM     25  C   UNL     1      -2.203  -2.974   1.064  0.00  0.00    +0.010 A 
ATOM     26  C   UNL     1      -1.802  -3.306  -0.303  0.00  0.00    +0.027 A 
ATOM     27  C   UNL     1      -2.444  -3.916  -1.384  0.00  0.00    +0.050 A 
ATOM     28  C   UNL     1      -1.765  -4.085  -2.571  0.00  0.00    +0.124 A 
ATOM     29  C   UNL     1      -0.449  -3.652  -2.693  0.00  0.00    +0.042 A 
ATOM     30  C   UNL     1       0.195  -3.049  -1.635  0.00  0.00    +0.050 A 
ATOM     31  C   UNL     1      -0.471  -2.868  -0.428  0.00  0.00    +0.136 A 
ATOM     32  O   UNL     1      -0.108  -2.325   0.752  0.00  0.00    -0.448 OA
ATOM     33  C   UNL     1      -1.125  -2.377   1.638  0.00  0.00    +0.216 A 
ATOM     34  F   UNL     1      -2.379  -4.675  -3.619  0.00  0.00    -0.205 F 
ENDBRANCH  22  33
ENDBRANCH  21  22
ENDBRANCH   1  21
TORSDOF 6
