REMARK  Name = ZINC67059652
REMARK  5 active torsions:
REMARK  status: ('A' for Active; 'I' for Inactive)
REMARK    1  A    between atoms: C_4  and  C_7
REMARK    2  A    between atoms: C_7  and  C_8
REMARK    3  A    between atoms: N_10  and  N_11
REMARK    4  A    between atoms: N_14  and  C_15
REMARK    5  A    between atoms: C_21  and  C_23
REMARK                            x       y       z     vdW  Elec       q    Type
REMARK                         _______ _______ _______ _____ _____    ______ ____
ROOT
ATOM      1  N   UNL     1       5.721  -1.900  -2.834  0.00  0.00    -0.218 N 
ATOM      2  C   UNL     1       5.791  -2.789  -3.844  0.00  0.00    +0.316 C 
ATOM      3  O   UNL     1       5.419  -3.934  -3.673  0.00  0.00    -0.251 OA
ATOM      4  N   UNL     1       6.273  -2.409  -5.044  0.00  0.00    -0.295 N 
ATOM      5  H   UNL     1       5.374  -2.173  -1.970  0.00  0.00    +0.174 HD
ATOM      6  H   UNL     1       6.569  -1.496  -5.181  0.00  0.00    +0.151 HD
ENDROOT
BRANCH   4   7
ATOM      7  C   UNL     1       6.349  -3.376  -6.143  0.00  0.00    +0.077 C 
ATOM      8  C   UNL     1       7.652  -4.171  -6.033  0.00  0.00    +0.041 C 
ATOM      9  C   UNL     1       7.712  -5.204  -7.162  0.00  0.00    +0.109 C 
ATOM     10  N   UNL     1       7.533  -4.512  -8.446  0.00  0.00    -0.301 N 
ATOM     11  C   UNL     1       6.359  -3.648  -8.626  0.00  0.00    +0.109 C 
ATOM     12  C   UNL     1       6.314  -2.632  -7.480  0.00  0.00    +0.041 C 
ATOM     13  C   UNL     1       8.430  -4.666  -9.440  0.00  0.00    +0.219 C 
ATOM     14  O   UNL     1       9.436  -5.317  -9.253  0.00  0.00    -0.275 OA
BRANCH  13  15
ATOM     15  C   UNL     1       8.183  -4.030 -10.784  0.00  0.00    +0.075 C 
ATOM     16  C   UNL     1       7.246  -4.919 -11.604  0.00  0.00    +0.013 C 
ATOM     17  C   UNL     1       6.996  -4.273 -12.968  0.00  0.00    +0.001 C 
ATOM     18  C   UNL     1       8.325  -4.112 -13.709  0.00  0.00    +0.000 C 
ATOM     19  C   UNL     1       9.262  -3.224 -12.888  0.00  0.00    +0.001 C 
ATOM     20  C   UNL     1       9.512  -3.869 -11.524  0.00  0.00    +0.013 C 
ENDBRANCH  13  15
ENDBRANCH   4   7
BRANCH   1  23
ATOM     21  C   UNL     1       6.079   0.309  -2.021  0.00  0.00    +0.229 C 
ATOM     22  O   UNL     1       5.646  -0.033  -0.941  0.00  0.00    -0.274 OA
ATOM     23  N   UNL     1       6.149  -0.581  -3.031  0.00  0.00    -0.233 N 
ATOM     24  H   UNL     1       6.496  -0.307  -3.895  0.00  0.00    +0.173 HD
BRANCH  21  25
ATOM     25  C   UNL     1       6.540   1.728  -2.233  0.00  0.00    +0.101 C 
BRANCH  25  29
ATOM     26  C   UNL     1       5.260   4.825   0.505  0.00  0.00    +0.000 C 
ATOM     27  C   UNL     1       6.752   4.722   0.179  0.00  0.00    +0.000 C 
ATOM     28  C   UNL     1       6.937   3.927  -1.115  0.00  0.00    +0.004 C 
ATOM     29  C   UNL     1       6.355   2.523  -0.939  0.00  0.00    -0.002 C 
ATOM     30  C   UNL     1       4.864   2.626  -0.613  0.00  0.00    +0.004 C 
ATOM     31  C   UNL     1       4.679   3.421   0.681  0.00  0.00    +0.000 C 
ENDBRANCH  25  29
ENDBRANCH  21  25
ENDBRANCH   1  23
TORSDOF 5
