REMARK  Name = ZINC10248665
REMARK  8 active torsions:
REMARK  status: ('A' for Active; 'I' for Inactive)
REMARK    1  A    between atoms: C_1  and  C_2
REMARK    2  A    between atoms: C_7  and  N_8
REMARK    3  A    between atoms: N_18  and  C_19
REMARK    4  A    between atoms: C_19  and  C_20
REMARK    5  A    between atoms: C_20  and  S_21
REMARK    6  A    between atoms: S_21  and  C_22
REMARK    7  A    between atoms: N_30  and  C_35
REMARK    8  A    between atoms: N_33  and  C_34
REMARK                            x       y       z     vdW  Elec       q    Type
REMARK                         _______ _______ _______ _____ _____    ______ ____
ROOT
ATOM      1  N   UNL     1      -1.068   6.524  -4.872  0.00  0.00    -0.327 N 
ATOM      2  C   UNL     1      -1.833   7.718  -4.487  0.00  0.00    +0.124 C 
ATOM      3  C   UNL     1      -1.563   8.040  -3.015  0.00  0.00    +0.127 C 
ATOM      4  N   UNL     1      -1.940   6.887  -2.186  0.00  0.00    -0.298 N 
ATOM      5  C   UNL     1      -1.175   5.693  -2.571  0.00  0.00    +0.127 C 
ATOM      6  C   UNL     1      -1.445   5.370  -4.043  0.00  0.00    +0.124 C 
ATOM      7  C   UNL     1      -1.777   7.167  -0.849  0.00  0.00    +0.201 A 
ATOM      8  N   UNL     1      -0.662   7.591  -0.290  0.00  0.00    -0.196 NA
ATOM      9  C   UNL     1      -0.846   7.764   1.020  0.00  0.00    +0.170 A 
ATOM     10  C   UNL     1      -2.166   7.432   1.305  0.00  0.00    +0.153 A 
ATOM     11  N   UNL     1      -2.742   7.048   0.102  0.00  0.00    -0.305 N 
ATOM     12  C   UNL     1      -2.629   7.533   2.629  0.00  0.00    +0.282 A 
ATOM     13  O   UNL     1      -3.781   7.244   2.903  0.00  0.00    -0.265 OA
ATOM     14  N   UNL     1      -1.784   7.953   3.594  0.00  0.00    -0.262 N 
ATOM     15  C   UNL     1      -0.511   8.275   3.306  0.00  0.00    +0.333 A 
ATOM     16  O   UNL     1       0.223   8.650   4.201  0.00  0.00    -0.246 OA
ATOM     17  N   UNL     1      -0.025   8.185   2.054  0.00  0.00    -0.280 N 
ATOM     18  C   UNL     1       1.368   8.546   1.781  0.00  0.00    +0.155 C 
ATOM     19  C   UNL     1      -2.261   8.060   4.974  0.00  0.00    +0.157 C 
ENDROOT
BRANCH   1  26
ATOM     20  C   UNL     1       1.243   6.508  -6.530  0.00  0.00    +0.045 C 
ATOM     21  C   UNL     1      -0.132   6.221  -7.076  0.00  0.00    -0.029 A 
ATOM     22  C   UNL     1      -0.298   5.939  -8.418  0.00  0.00    +0.006 A 
ATOM     23  C   UNL     1      -1.559   5.676  -8.920  0.00  0.00    +0.020 A 
ATOM     24  C   UNL     1      -2.659   5.694  -8.080  0.00  0.00    +0.043 A 
ATOM     25  C   UNL     1      -2.498   5.970  -6.735  0.00  0.00    +0.043 A 
ATOM     26  C   UNL     1      -1.233   6.240  -6.229  0.00  0.00    +0.034 A 
ATOM     27 CL   UNL     1      -4.240   5.362  -8.714  0.00  0.00    -0.083 Cl
ENDBRANCH   1  26
BRANCH  11  28
ATOM     28  C   UNL     1      -4.123   6.607  -0.105  0.00  0.00    +0.136 C 
BRANCH  28  29
ATOM     29  C   UNL     1      -4.206   5.090   0.072  0.00  0.00    +0.096 C 
BRANCH  29  30
ATOM     30  S   UNL     1      -5.880   4.524  -0.337  0.00  0.00    -0.123 S 
BRANCH  30  31
ATOM     31  C   UNL     1      -5.814   2.781  -0.087  0.00  0.00    +0.008 A 
ATOM     32  C   UNL     1      -4.631   2.181   0.329  0.00  0.00    +0.015 A 
ATOM     33  C   UNL     1      -4.582   0.814   0.519  0.00  0.00    +0.001 A 
ATOM     34  C   UNL     1      -5.707   0.042   0.296  0.00  0.00    +0.000 A 
ATOM     35  C   UNL     1      -6.886   0.635  -0.118  0.00  0.00    +0.001 A 
ATOM     36  C   UNL     1      -6.943   2.002  -0.310  0.00  0.00    +0.015 A 
ENDBRANCH  30  31
ENDBRANCH  29  30
ENDBRANCH  28  29
ENDBRANCH  11  28
TORSDOF 5
