REMARK  Name = ZINC38742906
REMARK  3 active torsions:
REMARK  status: ('A' for Active; 'I' for Inactive)
REMARK    1  A    between atoms: C_4  and  C_7
REMARK    2  A    between atoms: C_9  and  C_13
REMARK    3  A    between atoms: C_21  and  C_23
REMARK                            x       y       z     vdW  Elec       q    Type
REMARK                         _______ _______ _______ _____ _____    ______ ____
ROOT
ATOM      1  C   UNL     1       5.782  -3.012   1.181  0.00  0.00    +0.206 C 
ATOM      2  N   UNL     1       5.166  -4.360   1.202  0.00  0.00    -0.231 NA
ATOM      3  N   UNL     1       6.275  -5.326   1.285  0.00  0.00    -0.224 NA
ATOM      4  C   UNL     1       7.360  -4.534   1.897  0.00  0.00    +0.240 C 
ATOM      5  N   UNL     1       7.244  -3.241   1.144  0.00  0.00    -0.206 N 
ATOM      6  N   UNL     1       8.442  -2.787   0.637  0.00  0.00    -0.173 NA
ATOM      7  C   UNL     1       9.497  -3.541   0.532  0.00  0.00    +0.125 C 
ATOM      8  S   UNL     1       9.007  -5.100   1.332  0.00  0.00    -0.063 S 
ATOM      9  H   UNL     1       4.540  -4.460   1.987  0.00  0.00    +0.143 HD
ATOM     10  H   UNL     1       6.027  -6.112   1.867  0.00  0.00    +0.144 HD
ENDROOT
BRANCH   7  11
ATOM     11  C   UNL     1      10.798  -3.208  -0.086  0.00  0.00    +0.011 A 
ATOM     12  C   UNL     1      11.824  -4.154  -0.113  0.00  0.00    +0.011 A 
ATOM     13  C   UNL     1      13.036  -3.837  -0.691  0.00  0.00    +0.003 A 
ATOM     14  C   UNL     1      13.238  -2.585  -1.243  0.00  0.00    +0.038 A 
ATOM     15  C   UNL     1      12.224  -1.641  -1.220  0.00  0.00    +0.124 A 
ATOM     16  C   UNL     1      11.003  -1.948  -0.649  0.00  0.00    +0.049 A 
ATOM     17  F   UNL     1      12.428  -0.419  -1.761  0.00  0.00    -0.205 F 
ENDBRANCH   7  11
BRANCH   1  20
ATOM     18  C   UNL     1       3.699  -0.689  -0.037  0.00  0.00    +0.091 C 
ATOM     19  C   UNL     1       3.832  -2.029  -0.051  0.00  0.00    +0.034 C 
ATOM     20  C   UNL     1       5.335  -2.245  -0.065  0.00  0.00    +0.190 C 
ATOM     21  N   UNL     1       5.871  -0.874  -0.056  0.00  0.00    -0.176 NA
ATOM     22  N   UNL     1       4.919  -0.090  -0.047  0.00  0.00    -0.154 NA
BRANCH  18  26
ATOM     23  C   UNL     1      -0.017   1.379   0.010  0.00  0.00    +0.000 A 
ATOM     24  C   UNL     1       1.169   2.092   0.002  0.00  0.00    +0.001 A 
ATOM     25  C   UNL     1       2.377   1.426  -0.013  0.00  0.00    +0.010 A 
ATOM     26  C   UNL     1       2.402   0.033  -0.021  0.00  0.00    +0.002 A 
ATOM     27  C   UNL     1       1.205  -0.680  -0.013  0.00  0.00    +0.010 A 
ATOM     28  C   UNL     1       0.002  -0.004   0.002  0.00  0.00    +0.001 A 
ENDBRANCH  18  26
ENDBRANCH   1  20
TORSDOF 3
