REMARK  Name = ZINC39961120
REMARK  3 active torsions:
REMARK  status: ('A' for Active; 'I' for Inactive)
REMARK    1  A    between atoms: C_11  and  C_13
REMARK    2  A    between atoms: C_13  and  N_14
REMARK    3  A    between atoms: C_22  and  C_24
REMARK                            x       y       z     vdW  Elec       q    Type
REMARK                         _______ _______ _______ _____ _____    ______ ____
ROOT
ATOM      1  N   UNL     1       6.052  -1.568  -0.069  0.00  0.00    -0.298 N 
ATOM      2  C   UNL     1       6.633  -0.980  -1.201  0.00  0.00    +0.053 A 
ATOM      3  C   UNL     1       6.386  -1.187  -2.553  0.00  0.00    +0.025 A 
ATOM      4  C   UNL     1       7.096  -0.480  -3.504  0.00  0.00    +0.002 A 
ATOM      5  C   UNL     1       8.055   0.437  -3.115  0.00  0.00    +0.002 A 
ATOM      6  C   UNL     1       8.307   0.650  -1.774  0.00  0.00    +0.025 A 
ATOM      7  C   UNL     1       7.598  -0.056  -0.809  0.00  0.00    +0.050 A 
ATOM      8  N   UNL     1       7.675  -0.015   0.590  0.00  0.00    -0.320 N 
ATOM      9  C   UNL     1       6.690  -0.970   1.111  0.00  0.00    +0.199 C 
ATOM     10  H   UNL     1       8.267   0.545   1.117  0.00  0.00    +0.148 HD
ENDROOT
BRANCH   9  11
ATOM     11  C   UNL     1       7.381  -2.034   1.923  0.00  0.00    +0.047 A 
ATOM     12  C   UNL     1       8.480  -1.943   2.716  0.00  0.00    +0.125 A 
ATOM     13  N   UNL     1       8.875  -3.046   3.319  0.00  0.00    -0.255 NA
ATOM     14  C   UNL     1       8.234  -4.177   3.159  0.00  0.00    +0.156 A 
ATOM     15  S   UNL     1       6.978  -3.763   2.118  0.00  0.00    -0.077 S 
ENDBRANCH   9  11
BRANCH   1  16
ATOM     16  C   UNL     1       4.999  -2.586  -0.063  0.00  0.00    +0.181 C 
BRANCH  16  27
ATOM     17  C   UNL     1      -0.017   1.373   0.010  0.00  0.00    +0.001 A 
ATOM     18  C   UNL     1       1.169   2.096   0.002  0.00  0.00    +0.002 A 
ATOM     19  C   UNL     1       2.387   1.453  -0.013  0.00  0.00    +0.028 A 
ATOM     20  C   UNL     1       2.432   0.058  -0.021  0.00  0.00    +0.078 A 
ATOM     21  C   UNL     1       1.224  -0.674  -0.013  0.00  0.00    +0.065 A 
ATOM     22  C   UNL     1       0.002  -0.004   0.002  0.00  0.00    +0.015 A 
ATOM     23  C   UNL     1       1.306  -2.142  -0.022  0.00  0.00    +0.259 A 
ATOM     24  O   UNL     1       0.302  -2.832  -0.017  0.00  0.00    -0.267 OA
ATOM     25  N   UNL     1       2.540  -2.697  -0.038  0.00  0.00    -0.309 N 
ATOM     26  H   UNL     1       2.633  -3.663  -0.045  0.00  0.00    +0.170 HD
ATOM     27  C   UNL     1       3.650  -1.914  -0.045  0.00  0.00    +0.128 A 
ATOM     28  N   UNL     1       3.609  -0.616  -0.037  0.00  0.00    -0.232 NA
ENDBRANCH  16  27
ENDBRANCH   1  16
TORSDOF 3
