REMARK  Name = ZINC40376515
REMARK  6 active torsions:
REMARK  status: ('A' for Active; 'I' for Inactive)
REMARK    1  A    between atoms: C_4  and  C_7
REMARK    2  A    between atoms: C_7  and  C_9
REMARK    3  A    between atoms: C_7  and  N_13
REMARK    4  A    between atoms: N_10  and  O_11
REMARK    5  A    between atoms: N_13  and  S_14
REMARK    6  A    between atoms: S_14  and  C_17
REMARK                            x       y       z     vdW  Elec       q    Type
REMARK                         _______ _______ _______ _____ _____    ______ ____
ROOT
ATOM      1  C   UNL     1       2.902  -0.556  -2.493  0.00  0.00    +0.145 C 
ENDROOT
BRANCH   1   5
ATOM      2  C   UNL     1       1.676   1.708   0.985  0.00  0.00    +0.000 C 
ATOM      3  C   UNL     1       1.744   0.184   1.103  0.00  0.00    +0.000 C 
ATOM      4  C   UNL     1       2.622  -0.376  -0.017  0.00  0.00    +0.005 C 
ATOM      5  C   UNL     1       2.024   0.004  -1.373  0.00  0.00    +0.015 C 
ATOM      6  C   UNL     1       1.957   1.528  -1.491  0.00  0.00    +0.005 C 
ATOM      7  C   UNL     1       1.078   2.088  -0.371  0.00  0.00    +0.000 C 
ENDBRANCH   1   5
BRANCH   1   8
ATOM      8  C   UNL     1       2.255  -0.281  -3.825  0.00  0.00    +0.151 C 
ATOM      9  N   UNL     1       2.908   0.353  -4.742  0.00  0.00    -0.075 NA
ATOM     10  N   UNL     1       0.966  -0.704  -4.065  0.00  0.00    -0.343 N 
ATOM     11  H   UNL     1       0.503  -1.245  -3.407  0.00  0.00    +0.144 HD
ATOM     12  H   UNL     1       0.522  -0.461  -4.893  0.00  0.00    +0.144 HD
BRANCH   9  13
ATOM     13  O   UNL     1       2.299   0.612  -5.994  0.00  0.00    -0.408 OA
ATOM     14  H   UNL     1       2.865   1.091  -6.615  0.00  0.00    +0.328 HD
ENDBRANCH   9  13
ENDBRANCH   1   8
BRANCH   1  15
ATOM     15  N   UNL     1       3.057  -2.002  -2.315  0.00  0.00    -0.184 NA
ATOM     16  H   UNL     1       2.333  -2.525  -1.935  0.00  0.00    +0.148 HD
BRANCH  15  17
ATOM     17  S   UNL     1       4.468  -2.745  -2.763  0.00  0.00    +0.033 S 
ATOM     18  O   UNL     1       4.265  -4.120  -2.464  0.00  0.00    -0.158 OA
ATOM     19  O   UNL     1       4.693  -2.320  -4.100  0.00  0.00    -0.158 OA
BRANCH  17  20
ATOM     20  C   UNL     1       5.732  -2.047  -1.665  0.00  0.00    +0.148 C 
ATOM     21  C   UNL     1       5.419  -2.434  -0.218  0.00  0.00    +0.028 C 
ATOM     22  C   UNL     1       6.485  -1.845   0.709  0.00  0.00    +0.002 C 
ATOM     23  C   UNL     1       7.859  -2.394   0.319  0.00  0.00    +0.000 C 
ATOM     24  C   UNL     1       8.171  -2.007  -1.128  0.00  0.00    +0.002 C 
ATOM     25  C   UNL     1       7.106  -2.596  -2.054  0.00  0.00    +0.028 C 
ENDBRANCH  17  20
ENDBRANCH  15  17
ENDBRANCH   1  15
TORSDOF 6
