REMARK  Name = ZINC63456269
REMARK  9 active torsions:
REMARK  status: ('A' for Active; 'I' for Inactive)
REMARK    1  A    between atoms: C_1  and  C_2
REMARK    2  A    between atoms: C_2  and  C_3
REMARK    3  A    between atoms: C_2  and  N_6
REMARK    4  A    between atoms: C_7  and  C_9
REMARK    5  A    between atoms: C_9  and  O_10
REMARK    6  A    between atoms: O_10  and  N_11
REMARK    7  A    between atoms: C_12  and  C_13
REMARK    8  A    between atoms: C_14  and  N_24
REMARK    9  A    between atoms: N_20  and  C_23
REMARK                            x       y       z     vdW  Elec       q    Type
REMARK                         _______ _______ _______ _____ _____    ______ ____
ROOT
ATOM      1  N   UNL     1       4.978  -1.472   3.251  0.00  0.00    -0.068 NA
ATOM      2  C   UNL     1       6.261  -1.648   3.111  0.00  0.00    +0.169 C 
ATOM      3  N   UNL     1       7.018  -2.102   4.179  0.00  0.00    -0.340 N 
ATOM      4  H   UNL     1       6.583  -2.358   5.007  0.00  0.00    +0.144 HD
ATOM      5  H   UNL     1       7.983  -2.164   4.098  0.00  0.00    +0.144 HD
ENDROOT
BRANCH   2   6
ATOM      6  C   UNL     1       6.909  -1.364   1.816  0.00  0.00    +0.098 C 
ATOM      7  C   UNL     1       6.686  -2.046   0.652  0.00  0.00    +0.041 C 
ATOM      8  C   UNL     1       7.563  -1.400  -0.384  0.00  0.00    +0.076 C 
ATOM      9  C   UNL     1       8.540  -2.422  -0.995  0.00  0.00    +0.032 C 
ATOM     10  C   UNL     1       8.899  -1.778  -2.358  0.00  0.00    +0.003 C 
ATOM     11  C   UNL     1       7.582  -1.127  -2.831  0.00  0.00    +0.003 C 
ATOM     12  C   UNL     1       6.736  -0.878  -1.567  0.00  0.00    +0.032 C 
ATOM     13  N   UNL     1       8.281  -0.319   0.283  0.00  0.00    -0.289 N 
ATOM     14  C   UNL     1       7.887  -0.303   1.572  0.00  0.00    +0.252 C 
ATOM     15  O   UNL     1       8.289   0.480   2.413  0.00  0.00    -0.270 OA
ATOM     16  C   UNL     1       9.252   0.587  -0.337  0.00  0.00    +0.133 C 
BRANCH   7  17
ATOM     17  N   UNL     1       5.842  -3.098   0.468  0.00  0.00    -0.359 N 
ATOM     18  H   UNL     1       5.376  -3.483   1.226  0.00  0.00    +0.142 HD
ATOM     19  H   UNL     1       5.707  -3.461  -0.421  0.00  0.00    +0.142 HD
ENDBRANCH   7  17
ENDBRANCH   2   6
BRANCH   1  20
ATOM     20  O   UNL     1       4.223  -0.902   2.197  0.00  0.00    -0.383 OA
BRANCH  20  21
ATOM     21  C   UNL     1       2.830  -0.768   2.486  0.00  0.00    +0.358 C 
BRANCH  21  23
ATOM     22  N   UNL     1       0.799   0.069   1.348  0.00  0.00    -0.310 N 
ATOM     23  C   UNL     1       2.128  -0.153   1.303  0.00  0.00    +0.254 C 
ATOM     24  O   UNL     1       2.758   0.140   0.309  0.00  0.00    -0.272 OA
ATOM     25  H   UNL     1       0.295  -0.166   2.143  0.00  0.00    +0.149 HD
BRANCH  22  27
ATOM     26  C   UNL     1       0.227   2.190   0.274  0.00  0.00    +0.028 C 
ATOM     27  C   UNL     1       0.117   0.666   0.197  0.00  0.00    +0.073 C 
BRANCH  27  28
ATOM     28  C   UNL     1      -1.358   0.260   0.212  0.00  0.00    +0.009 C 
ATOM     29  C   UNL     1      -1.841  -0.689  -0.887  0.00  0.00    +0.005 C 
ATOM     30  C   UNL     1      -2.247   0.786  -0.916  0.00  0.00    +0.005 C 
ENDBRANCH  27  28
ENDBRANCH  22  27
ENDBRANCH  21  23
ENDBRANCH  20  21
ENDBRANCH   1  20
TORSDOF 7
