REMARK  Name = ZINC22851934
REMARK  5 active torsions:
REMARK  status: ('A' for Active; 'I' for Inactive)
REMARK    1  A    between atoms: C_1  and  C_2
REMARK    2  A    between atoms: N_7  and  C_9
REMARK    3  A    between atoms: C_9  and  C_11
REMARK    4  A    between atoms: C_9  and  C_18
REMARK    5  A    between atoms: C_24  and  C_26
REMARK                            x       y       z     vdW  Elec       q    Type
REMARK                         _______ _______ _______ _____ _____    ______ ____
ROOT
ATOM      1  C   UNL     1       2.755   4.070   0.115  0.00  0.00    +0.006 C 
ENDROOT
BRANCH   1   2
ATOM      2  C   UNL     1       3.315   3.709   1.467  0.00  0.00    +0.050 A 
ATOM      3  C   UNL     1       4.526   3.233   1.778  0.00  0.00    +0.282 A 
ATOM      4  N   UNL     1       4.859   2.964   3.084  0.00  0.00    -0.169 N 
ATOM      5  C   UNL     1       3.901   3.194   4.032  0.00  0.00    +0.200 A 
ATOM      6  S   UNL     1       2.534   3.798   3.071  0.00  0.00    -0.050 S 
ATOM      7  N   UNL     1       4.365   2.887   5.211  0.00  0.00    -0.197 NA
ATOM      8  C   UNL     1       5.626   2.450   5.090  0.00  0.00    +0.218 A 
ATOM      9  N   UNL     1       5.971   2.478   3.821  0.00  0.00    -0.138 NA
ATOM     10  O   UNL     1       5.439   3.018   0.793  0.00  0.00    -0.265 OA
BRANCH   8  11
ATOM     11  C   UNL     1       6.490   2.008   6.204  0.00  0.00    +0.173 A 
ATOM     12  C   UNL     1       6.144   1.975   7.518  0.00  0.00    +0.053 A 
ATOM     13  C   UNL     1       7.265   1.490   8.222  0.00  0.00    +0.042 A 
ATOM     14  C   UNL     1       8.230   1.253   7.311  0.00  0.00    +0.196 A 
ATOM     15  O   UNL     1       7.756   1.562   6.093  0.00  0.00    -0.460 OA
ENDBRANCH   8  11
ENDBRANCH   1   2
BRANCH   1  21
ATOM     16  C   UNL     1       0.002  -0.004   0.002  0.00  0.00    +0.005 C 
ATOM     17  C   UNL     1      -0.019   1.526   0.010  0.00  0.00    -0.031 C 
ATOM     18  C   UNL     1      -0.755   2.034  -1.232  0.00  0.00    -0.001 C 
ATOM     19  C   UNL     1      -0.719   3.565  -1.247  0.00  0.00    -0.018 C 
ATOM     20  C   UNL     1       0.737   4.036  -1.221  0.00  0.00    -0.077 C 
ATOM     21  N   UNL     1       1.397   3.525  -0.014  0.00  0.00    +0.388 N 
ATOM     22  C   UNL     1       1.417   2.056  -0.000  0.00  0.00    -0.074 C 
ATOM     23  H   UNL     1       0.812   3.860   0.856  0.00  0.00    -0.080 HD
ENDBRANCH   1  21
BRANCH   1  24
ATOM     24  C   UNL     1       2.709   5.570  -0.025  0.00  0.00    -0.056 A 
ATOM     25  C   UNL     1       1.676   6.287   0.550  0.00  0.00    +0.004 A 
ATOM     26  C   UNL     1       1.637   7.663   0.426  0.00  0.00    +0.020 A 
ATOM     27  C   UNL     1       2.625   8.322  -0.283  0.00  0.00    +0.041 A 
ATOM     28  C   UNL     1       3.655   7.604  -0.863  0.00  0.00    +0.020 A 
ATOM     29  C   UNL     1       3.696   6.228  -0.734  0.00  0.00    +0.004 A 
ATOM     30 CL   UNL     1       2.571  10.049  -0.445  0.00  0.00    -0.084 Cl
ENDBRANCH   1  24
TORSDOF 4
