REMARK  Name = ZINC59405051
REMARK  12 active torsions:
REMARK  status: ('A' for Active; 'I' for Inactive)
REMARK    1  A    between atoms: C_1  and  C_2
REMARK    2  A    between atoms: C_2  and  C_3
REMARK    3  A    between atoms: C_8  and  N_9
REMARK    4  A    between atoms: C_10  and  C_12
REMARK    5  A    between atoms: C_12  and  N_13
REMARK    6  A    between atoms: N_13  and  C_14
REMARK    7  A    between atoms: C_15  and  C_17
REMARK    8  A    between atoms: C_17  and  C_19
REMARK    9  A    between atoms: C_17  and  N_20
REMARK   10  A    between atoms: N_20  and  C_21
REMARK   11  A    between atoms: N_20  and  C_22
REMARK   12  A    between atoms: C_22  and  C_23
REMARK                            x       y       z     vdW  Elec       q    Type
REMARK                         _______ _______ _______ _____ _____    ______ ____
ROOT
ATOM      1  N   UNL     1       6.343  -0.463   0.958  0.00  0.00    -0.297 N 
ATOM      2  C   UNL     1       7.283   0.645   0.773  0.00  0.00    +0.132 C 
ATOM      3  C   UNL     1       6.798  -1.730   1.023  0.00  0.00    +0.202 C 
ATOM      4  O   UNL     1       6.030  -2.640   1.253  0.00  0.00    -0.277 OA
ENDROOT
BRANCH   3   5
ATOM      5  C   UNL     1       8.262  -2.016   0.811  0.00  0.00    +0.016 C 
ATOM      6  C   UNL     1       8.546  -2.139  -0.687  0.00  0.00    -0.004 C 
BRANCH   5   7
ATOM      7  N   UNL     1       8.618  -3.274   1.482  0.00  0.00    +0.388 N 
ATOM      8  C   UNL     1       8.354  -3.152   2.922  0.00  0.00    -0.095 C 
ATOM      9  H   UNL     1       8.065  -4.026   1.101  0.00  0.00    -0.081 HD
BRANCH   7  10
ATOM     10  C   UNL     1      10.043  -3.557   1.268  0.00  0.00    -0.042 C 
BRANCH  10  11
ATOM     11  C   UNL     1      10.380  -4.905   1.850  0.00  0.00    -0.061 A 
ATOM     12  C   UNL     1      10.790  -5.007   3.167  0.00  0.00    +0.021 A 
ATOM     13  C   UNL     1      11.100  -6.245   3.701  0.00  0.00    +0.043 A 
ATOM     14  C   UNL     1      11.000  -7.381   2.919  0.00  0.00    +0.040 A 
ATOM     15  C   UNL     1      10.590  -7.279   1.602  0.00  0.00    +0.043 A 
ATOM     16  C   UNL     1      10.275  -6.041   1.069  0.00  0.00    +0.021 A 
ATOM     17 CL   UNL     1      10.464  -8.704   0.618  0.00  0.00    -0.083 Cl
ATOM     18 CL   UNL     1      11.615  -6.372   5.354  0.00  0.00    -0.083 Cl
ENDBRANCH  10  11
ENDBRANCH   7  10
ENDBRANCH   5   7
ENDBRANCH   3   5
BRANCH   1  19
ATOM     19  C   UNL     1       4.907  -0.195   1.071  0.00  0.00    +0.203 C 
BRANCH  19  21
ATOM     20  N   UNL     1       2.959  -0.002  -0.442  0.00  0.00    -0.284 N 
ATOM     21  C   UNL     1       4.281  -0.224  -0.300  0.00  0.00    +0.235 C 
ATOM     22  O   UNL     1       4.967  -0.447  -1.275  0.00  0.00    -0.274 OA
ATOM     23  H   UNL     1       2.424   0.250   0.327  0.00  0.00    +0.155 HD
BRANCH  20  29
ATOM     24  C   UNL     1       1.054  -0.597  -1.802  0.00  0.00    -0.026 A 
ATOM     25  C   UNL     1       0.462  -0.720  -3.044  0.00  0.00    +0.005 A 
ATOM     26  C   UNL     1       1.170  -0.389  -4.185  0.00  0.00    +0.000 A 
ATOM     27  C   UNL     1       2.471   0.068  -4.086  0.00  0.00    +0.002 A 
ATOM     28  C   UNL     1       3.069   0.194  -2.847  0.00  0.00    +0.023 A 
ATOM     29  C   UNL     1       2.359  -0.133  -1.699  0.00  0.00    +0.037 A 
BRANCH  24  31
ATOM     30  C   UNL     1      -0.366   0.299   0.023  0.00  0.00    +0.009 C 
ATOM     31  C   UNL     1       0.282  -0.959  -0.559  0.00  0.00    +0.033 C 
ENDBRANCH  24  31
ENDBRANCH  20  29
ENDBRANCH  19  21
ENDBRANCH   1  19
TORSDOF 8
