REMARK  Name = ZINC04150299
REMARK  9 active torsions:
REMARK  status: ('A' for Active; 'I' for Inactive)
REMARK    1  A    between atoms: C_1  and  C_2
REMARK    2  A    between atoms: C_2  and  C_3
REMARK    3  A    between atoms: C_2  and  S_4
REMARK    4  A    between atoms: S_4  and  C_5
REMARK    5  A    between atoms: C_12  and  C_24
REMARK    6  A    between atoms: C_17  and  C_21
REMARK    7  A    between atoms: C_17  and  C_22
REMARK    8  A    between atoms: C_27  and  O_30
REMARK    9  A    between atoms: O_30  and  C_31
REMARK                            x       y       z     vdW  Elec       q    Type
REMARK                         _______ _______ _______ _____ _____    ______ ____
ROOT
ATOM      1  C   UNL     1      -2.365  -0.093  -1.525  0.00  0.00    +0.172 A 
ATOM      2  N   UNL     1      -3.655  -0.398  -1.841  0.00  0.00    -0.322 N 
ATOM      3  C   UNL     1      -4.186   0.016  -3.034  0.00  0.00    +0.111 A 
ATOM      4  C   UNL     1      -3.413   0.731  -3.895  0.00  0.00    +0.069 A 
ATOM      5  C   UNL     1      -2.080   1.022  -3.533  0.00  0.00    +0.280 A 
ATOM      6  N   UNL     1      -1.607   0.601  -2.349  0.00  0.00    -0.185 NA
ATOM      7  O   UNL     1      -1.361   1.657  -4.291  0.00  0.00    -0.265 OA
ATOM      8  C   UNL     1      -3.961   1.213  -5.206  0.00  0.00    +0.092 C 
ATOM      9  C   UNL     1      -5.215   0.467  -5.583  0.00  0.00    +0.024 C 
ATOM     10  C   UNL     1      -5.644   0.528  -6.921  0.00  0.00    +0.162 C 
ATOM     11  C   UNL     1      -6.899  -0.168  -7.371  0.00  0.00    +0.086 C 
ATOM     12  C   UNL     1      -7.868  -0.261  -6.188  0.00  0.00    -0.023 C 
ATOM     13  C   UNL     1      -7.163  -0.987  -5.040  0.00  0.00    +0.058 C 
ATOM     14  C   UNL     1      -5.908  -0.238  -4.663  0.00  0.00    +0.017 C 
ATOM     15  N   UNL     1      -5.486  -0.292  -3.362  0.00  0.00    -0.304 N 
ATOM     16  C   UNL     1      -9.113  -1.047  -6.605  0.00  0.00    +0.011 C 
ATOM     17  C   UNL     1      -8.269   1.145  -5.739  0.00  0.00    +0.011 C 
ATOM     18  O   UNL     1      -4.988   1.157  -7.728  0.00  0.00    -0.292 OA
ATOM     19  H   UNL     1      -6.109  -0.550  -2.665  0.00  0.00    +0.153 HD
ATOM     20  H   UNL     1      -4.198  -0.908  -1.220  0.00  0.00    +0.169 HD
ENDROOT
BRANCH   8  21
ATOM     21  C   UNL     1      -4.277   2.683  -5.099  0.00  0.00    -0.035 A 
ATOM     22  C   UNL     1      -5.189   3.126  -4.160  0.00  0.00    +0.008 A 
ATOM     23  C   UNL     1      -5.481   4.473  -4.060  0.00  0.00    +0.046 A 
ATOM     24  C   UNL     1      -4.856   5.381  -4.902  0.00  0.00    +0.120 A 
ATOM     25  C   UNL     1      -3.940   4.934  -5.843  0.00  0.00    +0.046 A 
ATOM     26  C   UNL     1      -3.648   3.586  -5.936  0.00  0.00    +0.008 A 
BRANCH  24  27
ATOM     27  O   UNL     1      -5.141   6.706  -4.806  0.00  0.00    -0.495 OA
ATOM     28  C   UNL     1      -4.460   7.583  -5.706  0.00  0.00    +0.277 C 
ENDBRANCH  24  27
ENDBRANCH   8  21
BRANCH   1  29
ATOM     29  S   UNL     1      -1.700  -0.632   0.015  0.00  0.00    -0.085 S 
BRANCH  29  31
ATOM     30  C   UNL     1      -0.019   1.526   0.010  0.00  0.00    +0.019 C 
ATOM     31  C   UNL     1       0.002  -0.004   0.002  0.00  0.00    +0.048 C 
ATOM     32  C   UNL     1       0.742  -0.511   1.242  0.00  0.00    +0.019 C 
ENDBRANCH  29  31
ENDBRANCH   1  29
TORSDOF 4
