REMARK  Name = ZINC08790768
REMARK  7 active torsions:
REMARK  status: ('A' for Active; 'I' for Inactive)
REMARK    1  A    between atoms: C_1  and  C_2
REMARK    2  A    between atoms: C_16  and  C_18
REMARK    3  A    between atoms: C_18  and  C_19
REMARK    4  A    between atoms: C_19  and  C_20
REMARK    5  A    between atoms: N_24  and  C_27
REMARK    6  A    between atoms: C_27  and  C_28
REMARK    7  A    between atoms: C_28  and  C_29
REMARK                            x       y       z     vdW  Elec       q    Type
REMARK                         _______ _______ _______ _____ _____    ______ ____
ROOT
ATOM      1  C   UNL     1       1.152   5.847   8.855  0.00  0.00    +0.045 C 
ATOM      2  C   UNL     1       0.531   5.282   7.603  0.00  0.00    -0.029 A 
ATOM      3  C   UNL     1      -0.202   6.102   6.769  0.00  0.00    +0.005 A 
ATOM      4  C   UNL     1      -0.775   5.593   5.618  0.00  0.00    +0.001 A 
ATOM      5  C   UNL     1      -0.613   4.256   5.301  0.00  0.00    +0.004 A 
ATOM      6  C   UNL     1       0.117   3.434   6.130  0.00  0.00    -0.027 A 
ATOM      7  C   UNL     1       0.699   3.936   7.292  0.00  0.00    +0.039 A 
ATOM      8  N   UNL     1       1.384   2.922   7.965  0.00  0.00    -0.286 N 
ATOM      9  C   UNL     1       1.302   1.740   7.324  0.00  0.00    +0.211 C 
ATOM     10  O   UNL     1       1.796   0.690   7.675  0.00  0.00    -0.277 OA
ATOM     11  C   UNL     1       0.478   1.977   6.087  0.00  0.00    +0.050 C 
ATOM     12  C   UNL     1       1.262   1.625   4.817  0.00  0.00    +0.088 C 
ATOM     13  C   UNL     1       0.803   0.188   4.442  0.00  0.00    +0.073 C 
ATOM     14  C   UNL     1      -0.211  -0.203   5.537  0.00  0.00    -0.057 C 
ATOM     15  C   UNL     1       0.084   0.384   3.127  0.00  0.00    +0.224 C 
ATOM     16  O   UNL     1      -0.448  -0.494   2.482  0.00  0.00    -0.275 OA
ATOM     17  N   UNL     1       0.127   1.677   2.784  0.00  0.00    -0.241 N 
ATOM     18  C   UNL     1       0.761   2.463   3.662  0.00  0.00    +0.225 C 
ATOM     19  O   UNL     1       0.911   3.660   3.548  0.00  0.00    -0.275 OA
ATOM     20  H   UNL     1       1.863   3.053   8.798  0.00  0.00    +0.155 HD
ATOM     21  N   UNL     1      -0.681   1.082   6.064  0.00  0.00    +0.394 N 
ATOM     22  H   UNL     1      -1.414   1.467   5.456  0.00  0.00    -0.083 HD
ATOM     23  H   UNL     1      -1.054   0.960   7.013  0.00  0.00    -0.083 HD
ENDROOT
BRANCH  14  24
ATOM     24  C   UNL     1       0.481  -1.005   6.641  0.00  0.00    -0.004 C 
BRANCH  24  25
ATOM     25  C   UNL     1       0.382  -2.499   6.325  0.00  0.00    +0.123 C 
BRANCH  25  26
ATOM     26  C   UNL     1       1.064  -3.288   7.413  0.00  0.00    +0.356 C 
ATOM     27  O   UNL     1       1.577  -2.715   8.345  0.00  0.00    -0.246 OA
ATOM     28  O   UNL     1       1.101  -4.629   7.346  0.00  0.00    -0.246 OA
ENDBRANCH  25  26
ENDBRANCH  24  25
ENDBRANCH  14  24
BRANCH  17  29
ATOM     29  C   UNL     1      -0.476   2.190   1.552  0.00  0.00    +0.121 C 
BRANCH  29  30
ATOM     30  C   UNL     1       0.556   2.148   0.423  0.00  0.00    +0.054 C 
BRANCH  30  31
ATOM     31  C   UNL     1      -0.065   2.677  -0.844  0.00  0.00    -0.046 A 
ATOM     32  C   UNL     1      -0.702   1.813  -1.714  0.00  0.00    +0.004 A 
ATOM     33  C   UNL     1      -1.276   2.298  -2.875  0.00  0.00    +0.000 A 
ATOM     34  C   UNL     1      -1.202   3.647  -3.170  0.00  0.00    +0.000 A 
ATOM     35  C   UNL     1      -0.560   4.510  -2.303  0.00  0.00    +0.000 A 
ATOM     36  C   UNL     1       0.009   4.026  -1.140  0.00  0.00    +0.004 A 
ENDBRANCH  30  31
ENDBRANCH  29  30
ENDBRANCH  17  29
TORSDOF 6
