REMARK  Name = ZINC21726619
REMARK  7 active torsions:
REMARK  status: ('A' for Active; 'I' for Inactive)
REMARK    1  A    between atoms: C_1  and  C_2
REMARK    2  A    between atoms: C_13  and  C_16
REMARK    3  A    between atoms: C_21  and  C_23
REMARK    4  A    between atoms: C_28  and  O_29
REMARK    5  A    between atoms: O_29  and  C_30
REMARK    6  A    between atoms: C_30  and  C_31
REMARK    7  A    between atoms: C_30  and  C_32
REMARK                            x       y       z     vdW  Elec       q    Type
REMARK                         _______ _______ _______ _____ _____    ______ ____
ROOT
ATOM      1  C   UNL     1       0.486   1.605  -0.162  0.00  0.00    +0.068 C 
ATOM      2  C   UNL     1       0.393   0.103  -0.077  0.00  0.00    +0.066 A 
ATOM      3  C   UNL     1       0.166  -0.758  -1.142  0.00  0.00    +0.023 A 
ATOM      4  C   UNL     1       0.156  -2.038  -0.656  0.00  0.00    +0.134 A 
ATOM      5  N   UNL     1       0.362  -1.970   0.677  0.00  0.00    -0.198 N 
ATOM      6  N   UNL     1       0.518  -0.615   1.014  0.00  0.00    -0.168 NA
ATOM      7  C   UNL     1       0.417  -3.052   1.560  0.00  0.00    +0.176 A 
ATOM      8  C   UNL     1       0.635  -2.819   2.931  0.00  0.00    +0.054 A 
ATOM      9  C   UNL     1       0.690  -3.864   3.800  0.00  0.00    +0.054 A 
ATOM     10  C   UNL     1       0.526  -5.173   3.309  0.00  0.00    +0.178 A 
ATOM     11  N   UNL     1       0.525  -6.369   3.874  0.00  0.00    -0.128 NA
ATOM     12  N   UNL     1       0.330  -7.265   2.970  0.00  0.00    -0.132 NA
ATOM     13  C   UNL     1       0.196  -6.700   1.795  0.00  0.00    +0.152 A 
ATOM     14  N   UNL     1       0.315  -5.366   1.966  0.00  0.00    -0.195 N 
ATOM     15  N   UNL     1       0.259  -4.271   1.102  0.00  0.00    -0.144 NA
ATOM     16  C   UNL     1      -0.045  -7.412   0.489  0.00  0.00    +0.090 C 
ATOM     17  N   UNL     1      -0.030  -3.141  -1.487  0.00  0.00    -0.270 N 
ATOM     18  C   UNL     1      -0.001  -2.943  -2.822  0.00  0.00    +0.219 C 
ATOM     19  O   UNL     1      -0.345  -3.844  -3.557  0.00  0.00    -0.275 OA
ATOM     20  C   UNL     1       0.446  -1.641  -3.425  0.00  0.00    +0.109 C 
ATOM     21  C   UNL     1      -0.049  -0.448  -2.601  0.00  0.00    +0.066 C 
ATOM     22  H   UNL     1      -0.175  -4.026  -1.117  0.00  0.00    +0.156 HD
ENDROOT
BRANCH  21  23
ATOM     23  C   UNL     1      -1.516  -0.224  -2.862  0.00  0.00    +0.002 A 
ATOM     24  C   UNL     1      -2.427  -1.228  -2.595  0.00  0.00    +0.008 A 
ATOM     25  C   UNL     1      -3.773  -1.023  -2.834  0.00  0.00    +0.001 A 
ATOM     26  C   UNL     1      -4.212   0.187  -3.341  0.00  0.00    +0.004 A 
ATOM     27  C   UNL     1      -3.305   1.194  -3.609  0.00  0.00    +0.046 A 
ATOM     28  C   UNL     1      -1.954   0.993  -3.365  0.00  0.00    +0.125 A 
BRANCH  28  29
ATOM     29  O   UNL     1      -1.061   1.984  -3.622  0.00  0.00    -0.489 OA
BRANCH  29  30
ATOM     30  C   UNL     1      -1.564   3.162  -4.254  0.00  0.00    +0.167 C 
ATOM     31  C   UNL     1      -2.130   4.108  -3.193  0.00  0.00    +0.051 C 
ATOM     32  C   UNL     1      -0.430   3.861  -5.008  0.00  0.00    +0.051 C 
ENDBRANCH  29  30
ENDBRANCH  28  29
ENDBRANCH  21  23
TORSDOF 3
