REMARK  Name = ZINC12587285
REMARK  9 active torsions:
REMARK  status: ('A' for Active; 'I' for Inactive)
REMARK    1  A    between atoms: C_1  and  C_2
REMARK    2  A    between atoms: C_5  and  N_9
REMARK    3  A    between atoms: C_6  and  C_8
REMARK    4  A    between atoms: N_9  and  S_10
REMARK    5  A    between atoms: S_10  and  C_13
REMARK    6  A    between atoms: C_16  and  N_22
REMARK    7  A    between atoms: C_17  and  N_19
REMARK    8  A    between atoms: N_22  and  N_23
REMARK    9  A    between atoms: C_24  and  C_25
REMARK                            x       y       z     vdW  Elec       q    Type
REMARK                         _______ _______ _______ _____ _____    ______ ____
ROOT
ATOM      1  C   UNL     1       2.938   3.073   0.037  0.00  0.00    +0.111 A 
ATOM      2  C   UNL     1       2.890   1.693   0.106  0.00  0.00    +0.031 A 
ATOM      3  C   UNL     1       1.697   1.054   0.382  0.00  0.00    +0.029 A 
ATOM      4  C   UNL     1       0.543   1.801   0.589  0.00  0.00    +0.079 A 
ATOM      5  C   UNL     1       0.594   3.188   0.513  0.00  0.00    +0.150 A 
ATOM      6  C   UNL     1       1.792   3.820   0.244  0.00  0.00    +0.063 A 
ENDROOT
BRANCH   1   7
ATOM      7  S   UNL     1       4.463   3.883  -0.314  0.00  0.00    +0.072 S 
ATOM      8  O   UNL     1       4.356   5.198   0.215  0.00  0.00    -0.150 OA
ATOM      9  O   UNL     1       5.497   2.988   0.072  0.00  0.00    -0.150 OA
BRANCH   7  10
ATOM     10  N   UNL     1       4.565   4.042  -1.960  0.00  0.00    -0.216 N 
ATOM     11  H   UNL     1       5.301   3.634  -2.441  0.00  0.00    +0.174 HD
BRANCH  10  16
ATOM     12  C   UNL     1       0.613   6.974  -4.777  0.00  0.00    +0.044 C 
ATOM     13  C   UNL     1       1.662   6.194  -4.028  0.00  0.00    -0.050 A 
ATOM     14  C   UNL     1       2.058   6.604  -2.768  0.00  0.00    +0.005 A 
ATOM     15  C   UNL     1       3.020   5.893  -2.079  0.00  0.00    +0.025 A 
ATOM     16  C   UNL     1       3.591   4.764  -2.653  0.00  0.00    +0.051 A 
ATOM     17  C   UNL     1       3.195   4.358  -3.921  0.00  0.00    -0.028 A 
ATOM     18  C   UNL     1       2.228   5.071  -4.603  0.00  0.00    +0.008 A 
ATOM     19  C   UNL     1       3.816   3.137  -4.551  0.00  0.00    +0.046 C 
ENDBRANCH  10  16
ENDBRANCH   7  10
ENDBRANCH   1   7
BRANCH   5  20
ATOM     20  N   UNL     1      -0.633   3.987   0.728  0.00  0.00    +0.058 N 
ATOM     21  O   UNL     1      -1.703   3.586   0.305  0.00  0.00    -0.126 OA
ATOM     22  O   UNL     1      -0.574   5.046   1.326  0.00  0.00    -0.126 OA
ENDBRANCH   5  20
BRANCH   4  23
ATOM     23  N   UNL     1      -0.664   1.160   0.868  0.00  0.00    -0.236 N 
ATOM     24  H   UNL     1      -1.453   1.682   1.082  0.00  0.00    +0.174 HD
BRANCH  23  25
ATOM     25  N   UNL     1      -0.739  -0.239   0.832  0.00  0.00    -0.190 NA
ATOM     26  C   UNL     1      -1.863  -0.836   1.091  0.00  0.00    +0.138 C 
BRANCH  26  27
ATOM     27  C   UNL     1      -1.941  -2.308   1.054  0.00  0.00    -0.004 A 
ATOM     28  C   UNL     1      -3.149  -2.953   1.332  0.00  0.00    +0.009 A 
ATOM     29  C   UNL     1      -3.216  -4.330   1.295  0.00  0.00    +0.002 A 
ATOM     30  C   UNL     1      -2.091  -5.073   0.983  0.00  0.00    +0.015 A 
ATOM     31  C   UNL     1      -0.891  -4.440   0.706  0.00  0.00    +0.018 A 
ATOM     32  C   UNL     1      -0.811  -3.063   0.734  0.00  0.00    +0.024 A 
ATOM     33 BR   UNL     1       0.640  -5.466   0.281  0.00  0.00    -0.050 Br
ENDBRANCH  26  27
ENDBRANCH  23  25
ENDBRANCH   4  23
TORSDOF 7
