REMARK  Name = ZINC49398593
REMARK  5 active torsions:
REMARK  status: ('A' for Active; 'I' for Inactive)
REMARK    1  A    between atoms: C_1  and  C_2
REMARK    2  A    between atoms: C_5  and  C_23
REMARK    3  A    between atoms: C_6  and  O_8
REMARK    4  A    between atoms: O_8  and  C_9
REMARK    5  A    between atoms: C_9  and  C_11
REMARK                            x       y       z     vdW  Elec       q    Type
REMARK                         _______ _______ _______ _____ _____    ______ ____
ROOT
ATOM      1  O   UNL     1       0.052  -2.766   2.369  0.00  0.00    -0.425 OA
ENDROOT
BRANCH   1   7
ATOM      2  C   UNL     1      -3.100  -1.057  -0.938  0.00  0.00    +0.044 C 
ATOM      3  C   UNL     1      -1.692  -1.231  -0.431  0.00  0.00    -0.047 A 
ATOM      4  C   UNL     1      -0.632  -0.697  -1.144  0.00  0.00    +0.004 A 
ATOM      5  C   UNL     1       0.660  -0.850  -0.690  0.00  0.00    +0.017 A 
ATOM      6  C   UNL     1       0.903  -1.547   0.496  0.00  0.00    +0.079 A 
ATOM      7  C   UNL     1      -0.172  -2.086   1.215  0.00  0.00    +0.144 A 
ATOM      8  C   UNL     1      -1.466  -1.918   0.746  0.00  0.00    +0.050 A 
BRANCH   6   9
ATOM      9  C   UNL     1       2.284  -1.716   0.989  0.00  0.00    +0.245 C 
ATOM     10  O   UNL     1       2.491  -2.323   2.021  0.00  0.00    -0.270 OA
ATOM     11  N   UNL     1       3.315  -1.197   0.293  0.00  0.00    -0.325 N 
ATOM     12  H   UNL     1       3.150  -0.712  -0.530  0.00  0.00    +0.145 HD
ATOM     13  H   UNL     1       4.223  -1.307   0.617  0.00  0.00    +0.145 HD
ENDBRANCH   6   9
ENDBRANCH   1   7
BRANCH   1  14
ATOM     14  C   UNL     1       0.151  -2.060   3.507  0.00  0.00    +0.319 C 
ATOM     15  O   UNL     1       0.133  -0.853   3.473  0.00  0.00    -0.250 OA
BRANCH  14  16
ATOM     16  C   UNL     1       0.285  -2.775   4.827  0.00  0.00    +0.140 C 
ATOM     17  C   UNL     1       0.394  -1.751   5.960  0.00  0.00    +0.057 C 
ATOM     18  C   UNL     1       0.822  -2.442   7.230  0.00  0.00    -0.003 A 
ATOM     19  C   UNL     1       0.623  -1.796   8.439  0.00  0.00    +0.027 A 
ATOM     20  C   UNL     1       1.006  -2.398   9.622  0.00  0.00    +0.041 A 
ATOM     21  C   UNL     1       1.591  -3.652   9.602  0.00  0.00    +0.023 A 
ATOM     22  C   UNL     1       1.789  -4.300   8.400  0.00  0.00    +0.047 A 
ATOM     23  C   UNL     1       1.403  -3.697   7.207  0.00  0.00    +0.124 A 
ATOM     24  O   UNL     1       1.606  -4.371   6.045  0.00  0.00    -0.491 OA
ATOM     25  C   UNL     1       1.559  -3.630   4.825  0.00  0.00    +0.244 C 
ATOM     26 CL   UNL     1       0.752  -1.582  11.133  0.00  0.00    -0.084 Cl
ENDBRANCH  14  16
ENDBRANCH   1  14
TORSDOF 4
