REMARK  Name = ZINC12942800
REMARK  2 active torsions:
REMARK  status: ('A' for Active; 'I' for Inactive)
REMARK    1  A    between atoms: C_10  and  C_14
REMARK    2  A    between atoms: C_18  and  N_20
REMARK                            x       y       z     vdW  Elec       q    Type
REMARK                         _______ _______ _______ _____ _____    ______ ____
ROOT
ATOM      1  C   UNL     1      -1.730  -4.308   5.164  0.00  0.00    +0.002 A 
ATOM      2  C   UNL     1      -1.487  -3.042   4.649  0.00  0.00    +0.002 A 
ATOM      3  C   UNL     1      -1.707  -2.778   3.313  0.00  0.00    +0.028 A 
ATOM      4  C   UNL     1      -2.174  -3.789   2.486  0.00  0.00    +0.070 A 
ATOM      5  C   UNL     1      -2.419  -5.067   3.003  0.00  0.00    +0.089 A 
ATOM      6  C   UNL     1      -2.191  -5.313   4.361  0.00  0.00    +0.030 A 
ATOM      7  N   UNL     1      -2.859  -5.824   1.973  0.00  0.00    -0.231 NA
ATOM      8  C   UNL     1      -2.897  -5.104   0.867  0.00  0.00    +0.122 A 
ATOM      9  N   UNL     1      -2.489  -3.847   1.128  0.00  0.00    -0.310 N 
ATOM     10  C   UNL     1      -2.462  -2.865   0.010  0.00  0.00    +0.178 C 
ATOM     11  S   UNL     1      -2.582  -3.965  -1.460  0.00  0.00    -0.123 S 
ATOM     12  C   UNL     1      -3.297  -5.415  -0.580  0.00  0.00    +0.145 C 
ENDROOT
BRANCH  10  13
ATOM     13  C   UNL     1      -1.167  -2.094   0.002  0.00  0.00    -0.012 A 
ATOM     14  C   UNL     1       0.040  -2.768  -0.012  0.00  0.00    +0.006 A 
ATOM     15  C   UNL     1       1.227  -2.061  -0.020  0.00  0.00    +0.003 A 
ATOM     16  C   UNL     1       1.208  -0.679  -0.013  0.00  0.00    +0.033 A 
ATOM     17  C   UNL     1       0.002  -0.004   0.002  0.00  0.00    +0.127 A 
ATOM     18  C   UNL     1      -1.186  -0.712   0.015  0.00  0.00    +0.039 A 
BRANCH  17  19
ATOM     19  N   UNL     1      -0.018   1.476   0.010  0.00  0.00    +0.056 N 
ATOM     20  O   UNL     1       1.028   2.099   0.004  0.00  0.00    -0.126 OA
ATOM     21  O   UNL     1      -1.081   2.071   0.018  0.00  0.00    -0.126 OA
ENDBRANCH  17  19
ENDBRANCH  10  13
TORSDOF 2
