REMARK  Name = ZINC16238367
REMARK  6 active torsions:
REMARK  status: ('A' for Active; 'I' for Inactive)
REMARK    1  A    between atoms: C_4  and  O_22
REMARK    2  A    between atoms: C_5  and  C_7
REMARK    3  A    between atoms: N_9  and  N_10
REMARK    4  A    between atoms: N_10  and  C_11
REMARK    5  A    between atoms: C_11  and  N_13
REMARK    6  A    between atoms: N_13  and  C_14
REMARK                            x       y       z     vdW  Elec       q    Type
REMARK                         _______ _______ _______ _____ _____    ______ ____
ROOT
ATOM      1  N   UNL     1      -3.564   2.049  -0.173  0.00  0.00    -0.245 N 
ATOM      2  H   UNL     1      -4.397   1.556  -0.245  0.00  0.00    +0.172 HD
ENDROOT
BRANCH   1   5
ATOM      3  C   UNL     1      -4.747   4.113  -0.258  0.00  0.00    +0.264 C 
ATOM      4  O   UNL     1      -5.790   3.496  -0.348  0.00  0.00    -0.269 OA
ATOM      5  N   UNL     1      -3.577   3.450  -0.165  0.00  0.00    -0.231 N 
ATOM      6  H   UNL     1      -2.744   3.942  -0.093  0.00  0.00    +0.173 HD
BRANCH   3  11
ATOM      7  C   UNL     1      -3.583   7.679  -0.137  0.00  0.00    +0.001 A 
ATOM      8  C   UNL     1      -4.785   8.362  -0.232  0.00  0.00    +0.004 A 
ATOM      9  C   UNL     1      -5.974   7.670  -0.336  0.00  0.00    +0.046 A 
ATOM     10  C   UNL     1      -5.974   6.283  -0.345  0.00  0.00    +0.129 A 
ATOM     11  C   UNL     1      -4.760   5.589  -0.249  0.00  0.00    +0.079 A 
ATOM     12  C   UNL     1      -3.563   6.302  -0.140  0.00  0.00    +0.017 A 
BRANCH  10  13
ATOM     13  O   UNL     1      -7.142   5.601  -0.446  0.00  0.00    -0.506 OA
ATOM     14  H   UNL     1      -7.554   5.398   0.405  0.00  0.00    +0.292 HD
ENDBRANCH  10  13
ENDBRANCH   3  11
ENDBRANCH   1   5
BRANCH   1  15
ATOM     15  C   UNL     1      -2.395   1.385  -0.081  0.00  0.00    +0.151 C 
ATOM     16  S   UNL     1      -2.379  -0.327  -0.090  0.00  0.00    -0.017 S 
BRANCH  15  17
ATOM     17  N   UNL     1      -1.238   2.069   0.019  0.00  0.00    -0.295 N 
ATOM     18  H   UNL     1      -1.251   3.035   0.105  0.00  0.00    +0.154 HD
BRANCH  17  19
ATOM     19  C   UNL     1      -0.016   1.385  -0.001  0.00  0.00    +0.051 A 
ATOM     20  C   UNL     1       0.200   0.375  -0.928  0.00  0.00    +0.026 A 
ATOM     21  C   UNL     1       1.408  -0.294  -0.949  0.00  0.00    +0.022 A 
ATOM     22  C   UNL     1       2.403   0.041  -0.047  0.00  0.00    +0.042 A 
ATOM     23  C   UNL     1       2.190   1.047   0.879  0.00  0.00    +0.041 A 
ATOM     24  C   UNL     1       0.984   1.720   0.904  0.00  0.00    +0.063 A 
ATOM     25 CL   UNL     1       0.718   2.983   2.066  0.00  0.00    -0.082 Cl
ATOM     26 CL   UNL     1       3.919  -0.804  -0.077  0.00  0.00    -0.083 Cl
ENDBRANCH  17  19
ENDBRANCH  15  17
ENDBRANCH   1  15
TORSDOF 6
