REMARK  Name = ZINC32961665
REMARK  8 active torsions:
REMARK  status: ('A' for Active; 'I' for Inactive)
REMARK    1  A    between atoms: C_4  and  S_7
REMARK    2  A    between atoms: S_7  and  N_10
REMARK    3  A    between atoms: N_10  and  C_11
REMARK    4  A    between atoms: C_14  and  N_20
REMARK    5  A    between atoms: C_15  and  C_17
REMARK    6  A    between atoms: N_23  and  C_26
REMARK    7  A    between atoms: C_26  and  C_27
REMARK    8  A    between atoms: C_27  and  C_28
REMARK                            x       y       z     vdW  Elec       q    Type
REMARK                         _______ _______ _______ _____ _____    ______ ____
ROOT
ATOM      1  C   UNL     1       4.473  -0.091  -2.476  0.00  0.00    +0.049 A 
ATOM      2  C   UNL     1       3.728   1.082  -2.388  0.00  0.00    +0.026 A 
ATOM      3  C   UNL     1       3.950   2.116  -3.273  0.00  0.00    +0.026 A 
ATOM      4  C   UNL     1       4.913   1.991  -4.266  0.00  0.00    +0.044 A 
ATOM      5  C   UNL     1       5.663   0.809  -4.365  0.00  0.00    +0.086 A 
ATOM      6  C   UNL     1       5.435  -0.232  -3.460  0.00  0.00    +0.041 A 
ENDROOT
BRANCH   4   7
ATOM      7  N   UNL     1       5.132   3.033  -5.161  0.00  0.00    -0.327 N 
ATOM      8  C   UNL     1       5.630   4.228  -4.466  0.00  0.00    +0.120 C 
ATOM      9  C   UNL     1       5.934   5.322  -5.492  0.00  0.00    +0.103 C 
ATOM     10  N   UNL     1       4.714   5.629  -6.252  0.00  0.00    -0.298 NA
ATOM     11  C   UNL     1       4.216   4.434  -6.947  0.00  0.00    +0.103 C 
ATOM     12  C   UNL     1       3.912   3.340  -5.921  0.00  0.00    +0.120 C 
BRANCH  10  13
ATOM     13  C   UNL     1       4.946   6.730  -7.197  0.00  0.00    +0.099 C 
BRANCH  13  14
ATOM     14  C   UNL     1       5.692   7.862  -6.488  0.00  0.00    +0.134 C 
BRANCH  14  15
ATOM     15  C   UNL     1       5.924   8.965  -7.435  0.00  0.00    +0.064 C 
ATOM     16  N   UNL     1       6.103   9.816  -8.166  0.00  0.00    -0.197 NA
ENDBRANCH  14  15
ENDBRANCH  13  14
ENDBRANCH  10  13
ENDBRANCH   4   7
BRANCH   5  17
ATOM     17  C   UNL     1       6.685   0.666  -5.415  0.00  0.00    +0.388 C 
ATOM     18  O   UNL     1       6.881   1.573  -6.200  0.00  0.00    -0.241 OA
ATOM     19  O   UNL     1       7.404  -0.470  -5.506  0.00  0.00    -0.241 OA
ENDBRANCH   5  17
BRANCH   1  20
ATOM     20  N   UNL     1       4.243  -1.133  -1.569  0.00  0.00    -0.216 N 
ATOM     21  H   UNL     1       3.340  -1.753  -1.661  0.00  0.00    +0.174 HD
BRANCH  20  22
ATOM     22  S   UNL     1       5.332  -1.431  -0.358  0.00  0.00    +0.072 S 
ATOM     23  O   UNL     1       6.611  -1.511  -0.973  0.00  0.00    -0.150 OA
ATOM     24  O   UNL     1       4.794  -2.491   0.420  0.00  0.00    -0.150 OA
BRANCH  22  28
ATOM     25  C   UNL     1       5.404   2.226   2.308  0.00  0.00    +0.000 A 
ATOM     26  C   UNL     1       6.339   2.088   1.299  0.00  0.00    +0.002 A 
ATOM     27  C   UNL     1       6.317   0.971   0.485  0.00  0.00    +0.029 A 
ATOM     28  C   UNL     1       5.361  -0.008   0.680  0.00  0.00    +0.108 A 
ATOM     29  C   UNL     1       4.426   0.131   1.689  0.00  0.00    +0.029 A 
ATOM     30  C   UNL     1       4.448   1.248   2.503  0.00  0.00    +0.002 A 
ENDBRANCH  22  28
ENDBRANCH  20  22
ENDBRANCH   1  20
TORSDOF 8
