REMARK  Name = ZINC20916946
REMARK  13 active torsions:
REMARK  status: ('A' for Active; 'I' for Inactive)
REMARK    1  A    between atoms: C_1  and  C_2
REMARK    2  A    between atoms: C_2  and  C_3
REMARK    3  A    between atoms: C_3  and  C_5
REMARK    4  A    between atoms: C_3  and  C_6
REMARK    5  A    between atoms: C_9  and  N_12
REMARK    6  A    between atoms: C_13  and  C_15
REMARK    7  A    between atoms: C_15  and  C_16
REMARK    8  A    between atoms: C_16  and  S_17
REMARK    9  A    between atoms: S_17  and  C_18
REMARK   10  A    between atoms: N_22  and  N_23
REMARK   11  A    between atoms: N_24  and  N_25
REMARK   12  A    between atoms: C_26  and  C_27
REMARK   13  A    between atoms: C_36  and  O_37
REMARK                            x       y       z     vdW  Elec       q    Type
REMARK                         _______ _______ _______ _____ _____    ______ ____
ROOT
ATOM      1  C   UNL     1      -3.235  11.553   0.087  0.00  0.00    +0.210 A 
ATOM      2  N   UNL     1      -1.923  11.544   0.084  0.00  0.00    -0.119 NA
ATOM      3  N   UNL     1      -1.499  10.209   0.080  0.00  0.00    -0.109 NA
ATOM      4  C   UNL     1      -2.564   9.445   0.071  0.00  0.00    +0.254 A 
ATOM      5  N   UNL     1      -3.665  10.256   0.078  0.00  0.00    -0.211 N 
ATOM      6  N   UNL     1      -2.574   8.059   0.062  0.00  0.00    -0.204 N 
ATOM      7  H   UNL     1      -3.530   7.515   0.060  0.00  0.00    +0.177 HD
ENDROOT
BRANCH   5   8
ATOM      8  N   UNL     1      -4.967   9.843   0.077  0.00  0.00    -0.294 N 
ATOM      9  H   UNL     1      -5.203   8.769   0.070  0.00  0.00    +0.163 HD
ATOM     10  H   UNL     1      -5.780  10.585   0.084  0.00  0.00    +0.163 HD
ENDBRANCH   5   8
BRANCH   6  11
ATOM     11  N   UNL     1      -1.365   7.350   0.055  0.00  0.00    -0.187 NA
ATOM     12  C   UNL     1      -1.374   6.050   0.047  0.00  0.00    +0.142 C 
BRANCH  12  13
ATOM     13  C   UNL     1      -0.106   5.306   0.039  0.00  0.00    +0.044 A 
ATOM     14  C   UNL     1      -0.097   3.845   0.030  0.00  0.00    -0.006 A 
ATOM     15  C   UNL     1      -1.288   3.107   0.027  0.00  0.00    +0.009 A 
ATOM     16  C   UNL     1      -1.236   1.745   0.013  0.00  0.00    +0.001 A 
ATOM     17  C   UNL     1      -0.014   1.075   0.011  0.00  0.00    +0.001 A 
ATOM     18  C   UNL     1       1.162   1.762   0.013  0.00  0.00    +0.008 A 
ATOM     19  C   UNL     1       1.146   3.167   0.022  0.00  0.00    -0.017 A 
ATOM     20  C   UNL     1       2.340   3.910   0.024  0.00  0.00    +0.012 A 
ATOM     21  C   UNL     1       2.314   5.269   0.034  0.00  0.00    +0.046 A 
ATOM     22  C   UNL     1       1.115   5.980   0.041  0.00  0.00    +0.126 A 
BRANCH  22  23
ATOM     23  O   UNL     1       1.136   7.338   0.050  0.00  0.00    -0.506 OA
ATOM     24  H   UNL     1       2.097   7.873   0.051  0.00  0.00    +0.292 HD
ENDBRANCH  22  23
ENDBRANCH  12  13
ENDBRANCH   6  11
BRANCH   1  25
ATOM     25  S   UNL     1      -4.261  12.985   0.099  0.00  0.00    -0.084 S 
BRANCH  25  26
ATOM     26  C   UNL     1      -3.086  14.367   0.106  0.00  0.00    +0.086 C 
BRANCH  26  27
ATOM     27  C   UNL     1      -3.854  15.690   0.117  0.00  0.00    +0.107 C 
BRANCH  27  29
ATOM     28  N   UNL     1      -3.330  18.107   0.133  0.00  0.00    -0.285 N 
ATOM     29  C   UNL     1      -2.878  16.838   0.123  0.00  0.00    +0.218 C 
ATOM     30  O   UNL     1      -1.685  16.619   0.119  0.00  0.00    -0.275 OA
ATOM     31  H   UNL     1      -4.410  18.307   0.059  0.00  0.00    +0.155 HD
BRANCH  28  35
ATOM     32  C   UNL     1      -0.642  21.275   0.440  0.00  0.00    -0.044 A 
ATOM     33  C   UNL     1      -0.290  20.138  -0.264  0.00  0.00    +0.006 A 
ATOM     34  C   UNL     1      -1.179  19.086  -0.367  0.00  0.00    +0.023 A 
ATOM     35  C   UNL     1      -2.427  19.171   0.236  0.00  0.00    +0.033 A 
ATOM     36  C   UNL     1      -2.779  20.317   0.937  0.00  0.00    +0.023 A 
ATOM     37  C   UNL     1      -1.883  21.363   1.043  0.00  0.00    +0.006 A 
BRANCH  32  38
ATOM     38  C   UNL     1       0.331  22.421   0.552  0.00  0.00    +0.016 C 
ATOM     39  C   UNL     1      -0.290  23.678  -0.061  0.00  0.00    +0.012 C 
BRANCH  38  41
ATOM     40  C   UNL     1       1.731  23.755   2.133  0.00  0.00    +0.004 C 
ATOM     41  C   UNL     1       0.651  22.677   2.026  0.00  0.00    +0.004 C 
ENDBRANCH  38  41
ENDBRANCH  32  38
ENDBRANCH  28  35
ENDBRANCH  27  29
ENDBRANCH  26  27
ENDBRANCH  25  26
ENDBRANCH   1  25
TORSDOF 11
