REMARK  Name = ZINC11839582
REMARK  11 active torsions:
REMARK  status: ('A' for Active; 'I' for Inactive)
REMARK    1  A    between atoms: C_1  and  O_2
REMARK    2  A    between atoms: O_2  and  C_3
REMARK    3  A    between atoms: C_3  and  C_4
REMARK    4  A    between atoms: C_4  and  N_65
REMARK    5  A    between atoms: C_5  and  C_6
REMARK    6  A    between atoms: C_5  and  N_65
REMARK    7  A    between atoms: C_11  and  O_12
REMARK    8  A    between atoms: O_12  and  C_13
REMARK    9  A    between atoms: C_16  and  C_17
REMARK   10  A    between atoms: C_16  and  N_65
REMARK   11  A    between atoms: C_23  and  N_67
REMARK                            x       y       z     vdW  Elec       q    Type
REMARK                         _______ _______ _______ _____ _____    ______ ____
ROOT
ATOM      1  C   UNL     1       4.433   0.596   1.705  0.00  0.00    -0.077 C 
ENDROOT
BRANCH   1   2
ATOM      2  C   UNL     1       4.535   0.132   3.159  0.00  0.00    -0.044 C 
ATOM      3  C   UNL     1       3.398  -0.846   3.466  0.00  0.00    -0.002 C 
ATOM      4  C   UNL     1       3.543  -1.351   4.904  0.00  0.00    -0.018 C 
ATOM      5  C   UNL     1       4.915  -2.009   5.073  0.00  0.00    -0.078 C 
ATOM      6  C   UNL     1       5.878  -0.568   3.379  0.00  0.00    -0.077 C 
ATOM      7  N   UNL     1       5.965  -1.009   4.788  0.00  0.00    +0.382 N 
ATOM      8  H   UNL     1       5.826  -0.196   5.400  0.00  0.00    -0.081 HD
BRANCH   7   9
ATOM      9  C   UNL     1       7.299  -1.587   5.054  0.00  0.00    -0.060 C 
ATOM     10  C   UNL     1       7.399  -2.043   6.525  0.00  0.00    +0.020 C 
ATOM     11  C   UNL     1       8.823  -1.736   6.938  0.00  0.00    -0.046 A 
ATOM     12  C   UNL     1       9.567  -2.202   8.010  0.00  0.00    +0.004 A 
ATOM     13  C   UNL     1      10.868  -1.777   8.190  0.00  0.00    +0.000 A 
ATOM     14  C   UNL     1      11.432  -0.884   7.298  0.00  0.00    +0.000 A 
ATOM     15  C   UNL     1      10.692  -0.418   6.229  0.00  0.00    +0.004 A 
ATOM     16  C   UNL     1       9.386  -0.843   6.046  0.00  0.00    -0.046 A 
ATOM     17  C   UNL     1       8.380  -0.488   4.973  0.00  0.00    +0.020 C 
ENDBRANCH   7   9
ENDBRANCH   1   2
BRANCH   1  18
ATOM     18  N   UNL     1       3.176   1.354   1.534  0.00  0.00    +0.384 N 
ATOM     19  H   UNL     1       2.400   0.804   1.922  0.00  0.00    -0.081 HD
BRANCH  18  20
ATOM     20  C   UNL     1       3.260   2.641   2.257  0.00  0.00    -0.050 C 
BRANCH  20  21
ATOM     21  C   UNL     1       4.498   3.424   1.816  0.00  0.00    +0.141 C 
BRANCH  21  23
ATOM     22  C   UNL     1       5.490   4.488  -0.089  0.00  0.00    +0.193 C 
ATOM     23  O   UNL     1       4.339   3.842   0.459  0.00  0.00    -0.385 OA
ENDBRANCH  21  23
ENDBRANCH  20  21
ENDBRANCH  18  20
BRANCH  18  24
ATOM     24  C   UNL     1       2.923   1.597   0.099  0.00  0.00    -0.039 C 
BRANCH  24  25
ATOM     25  C   UNL     1       1.495   2.048  -0.072  0.00  0.00    -0.022 A 
ATOM     26  C   UNL     1       0.503   1.122  -0.328  0.00  0.00    +0.005 A 
ATOM     27  C   UNL     1      -0.806   1.536  -0.490  0.00  0.00    +0.000 A 
ATOM     28  C   UNL     1      -1.127   2.877  -0.385  0.00  0.00    +0.004 A 
ATOM     29  C   UNL     1      -0.139   3.807  -0.130  0.00  0.00    +0.046 A 
ATOM     30  C   UNL     1       1.177   3.394   0.028  0.00  0.00    +0.128 A 
BRANCH  30  31
ATOM     31  O   UNL     1       2.151   4.308   0.279  0.00  0.00    -0.434 OA
BRANCH  31  32
ATOM     32  C   UNL     1       1.750   5.676   0.369  0.00  0.00    +0.541 C 
ATOM     33  F   UNL     1       1.167   6.072  -0.840  0.00  0.00    -0.166 F 
ATOM     34  F   UNL     1       0.821   5.823   1.405  0.00  0.00    -0.166 F 
ENDBRANCH  31  32
ENDBRANCH  30  31
ENDBRANCH  24  25
ENDBRANCH  18  24
ENDBRANCH   1  18
TORSDOF 10
