REMARK  Name = ZINC39862252
REMARK  9 active torsions:
REMARK  status: ('A' for Active; 'I' for Inactive)
REMARK    1  A    between atoms: C_1  and  C_2
REMARK    2  A    between atoms: C_2  and  C_20
REMARK    3  A    between atoms: N_6  and  C_10
REMARK    4  A    between atoms: C_10  and  C_12
REMARK    5  A    between atoms: C_10  and  C_17
REMARK    6  A    between atoms: C_12  and  C_13
REMARK    7  A    between atoms: C_13  and  C_14
REMARK    8  A    between atoms: C_23  and  O_26
REMARK    9  A    between atoms: O_26  and  C_27
REMARK                            x       y       z     vdW  Elec       q    Type
REMARK                         _______ _______ _______ _____ _____    ______ ____
ROOT
ATOM      1  C   UNL     1      -0.018   1.503   0.010  0.00  0.00    +0.045 C 
ATOM      2  C   UNL     1       0.002  -0.004   0.002  0.00  0.00    -0.025 C 
ATOM      3  C   UNL     1       0.022  -0.689   1.174  0.00  0.00    +0.080 C 
ATOM      4  C   UNL     1       0.023  -0.182   2.561  0.00  0.00    +0.259 C 
ATOM      5  O   UNL     1       0.002   1.010   2.805  0.00  0.00    -0.269 OA
ATOM      6  N   UNL     1       0.046  -1.089   3.523  0.00  0.00    -0.241 N 
ATOM      7  C   UNL     1       0.068  -2.409   3.247  0.00  0.00    +0.121 C 
ATOM      8  S   UNL     1       0.099  -3.723   4.343  0.00  0.00    -0.027 S 
ATOM      9  S   UNL     1       0.049  -2.453   1.462  0.00  0.00    -0.061 S 
ENDROOT
BRANCH   2  10
ATOM     10  C   UNL     1      -0.000  -0.731  -1.274  0.00  0.00    -0.021 A 
ATOM     11  C   UNL     1       1.103  -1.514  -1.638  0.00  0.00    +0.012 A 
ATOM     12  C   UNL     1       1.095  -2.193  -2.836  0.00  0.00    +0.046 A 
ATOM     13  C   UNL     1      -0.004  -2.104  -3.682  0.00  0.00    +0.120 A 
ATOM     14  C   UNL     1      -1.101  -1.329  -3.325  0.00  0.00    +0.046 A 
ATOM     15  C   UNL     1      -1.107  -0.650  -2.127  0.00  0.00    +0.012 A 
BRANCH  13  16
ATOM     16  O   UNL     1      -0.006  -2.777  -4.861  0.00  0.00    -0.495 OA
ATOM     17  C   UNL     1      -1.167  -2.641  -5.683  0.00  0.00    +0.277 C 
ENDBRANCH  13  16
ENDBRANCH   2  10
BRANCH   6  18
ATOM     18  C   UNL     1       0.048  -0.649   4.921  0.00  0.00    +0.196 C 
BRANCH  18  19
ATOM     19  C   UNL     1      -1.168  -1.198   5.622  0.00  0.00    +0.376 C 
ATOM     20  O   UNL     1      -1.863  -2.035   5.071  0.00  0.00    -0.244 OA
ATOM     21  O   UNL     1      -1.457  -0.806   6.739  0.00  0.00    -0.244 OA
ENDBRANCH  18  19
BRANCH  18  22
ATOM     22  C   UNL     1       1.311  -1.162   5.614  0.00  0.00    +0.044 C 
BRANCH  22  23
ATOM     23  C   UNL     1       2.541  -0.507   4.983  0.00  0.00    +0.098 C 
BRANCH  23  24
ATOM     24  C   UNL     1       3.786  -1.012   5.666  0.00  0.00    +0.211 C 
ATOM     25  O   UNL     1       3.698  -1.816   6.570  0.00  0.00    -0.276 OA
ATOM     26  N   UNL     1       4.997  -0.570   5.273  0.00  0.00    -0.329 N 
ATOM     27  H   UNL     1       5.068   0.073   4.551  0.00  0.00    +0.145 HD
ATOM     28  H   UNL     1       5.798  -0.895   5.713  0.00  0.00    +0.145 HD
ENDBRANCH  23  24
ENDBRANCH  22  23
ENDBRANCH  18  22
ENDBRANCH   6  18
TORSDOF 7
