REMARK  Name = ZINC21010223
REMARK  9 active torsions:
REMARK  status: ('A' for Active; 'I' for Inactive)
REMARK    1  A    between atoms: C_1  and  C_2
REMARK    2  A    between atoms: C_3  and  S_16
REMARK    3  A    between atoms: C_4  and  C_15
REMARK    4  A    between atoms: N_5  and  C_7
REMARK    5  A    between atoms: S_16  and  N_19
REMARK    6  A    between atoms: N_19  and  C_20
REMARK    7  A    between atoms: C_23  and  C_26
REMARK    8  A    between atoms: C_26  and  C_27
REMARK    9  A    between atoms: C_26  and  C_28
REMARK                            x       y       z     vdW  Elec       q    Type
REMARK                         _______ _______ _______ _____ _____    ______ ____
ROOT
ATOM      1  C   UNL     1      -3.033   1.859   1.592  0.00  0.00    +0.069 C 
ATOM      2  C   UNL     1      -3.452   0.729   0.689  0.00  0.00    +0.087 A 
ATOM      3  C   UNL     1      -2.693  -0.406   0.388  0.00  0.00    +0.152 A 
ATOM      4  C   UNL     1      -3.418  -1.183  -0.450  0.00  0.00    +0.063 A 
ATOM      5  N   UNL     1      -4.593  -0.558  -0.676  0.00  0.00    -0.262 N 
ATOM      6  N   UNL     1      -4.589   0.642   0.046  0.00  0.00    -0.174 NA
ATOM      7  C   UNL     1      -2.991  -2.508  -1.026  0.00  0.00    +0.067 C 
ENDROOT
BRANCH   5   8
ATOM      8  C   UNL     1      -5.680  -1.049  -1.527  0.00  0.00    +0.130 C 
ATOM      9  C   UNL     1      -5.971  -0.027  -2.638  0.00  0.00    +0.051 C 
ATOM     10  C   UNL     1      -7.308  -0.374  -3.337  0.00  0.00    +0.168 C 
ATOM     11  S   UNL     1      -8.249  -1.229  -2.007  0.00  0.00    -0.029 S 
ATOM     12  O   UNL     1      -8.497  -2.570  -2.406  0.00  0.00    -0.174 OA
ATOM     13  O   UNL     1      -9.335  -0.406  -1.606  0.00  0.00    -0.174 OA
ATOM     14  C   UNL     1      -6.972  -1.225  -0.679  0.00  0.00    +0.192 C 
ENDBRANCH   5   8
BRANCH   3  15
ATOM     15  S   UNL     1      -1.079  -0.765   0.999  0.00  0.00    +0.076 S 
ATOM     16  O   UNL     1      -0.852  -2.147   0.758  0.00  0.00    -0.150 OA
ATOM     17  O   UNL     1      -1.000  -0.195   2.298  0.00  0.00    -0.150 OA
BRANCH  15  18
ATOM     18  N   UNL     1      -0.002   0.063   0.052  0.00  0.00    -0.216 N 
ATOM     19  H   UNL     1       0.634   0.843   0.496  0.00  0.00    +0.174 HD
BRANCH  18  20
ATOM     20  C   UNL     1       0.099  -0.229  -1.310  0.00  0.00    +0.048 A 
ATOM     21  C   UNL     1       0.181  -1.550  -1.735  0.00  0.00    +0.025 A 
ATOM     22  C   UNL     1       0.276  -1.835  -3.083  0.00  0.00    +0.006 A 
ATOM     23  C   UNL     1       0.300  -0.808  -4.008  0.00  0.00    -0.045 A 
ATOM     24  C   UNL     1       0.225   0.507  -3.589  0.00  0.00    +0.006 A 
ATOM     25  C   UNL     1       0.124   0.800  -2.243  0.00  0.00    +0.025 A 
BRANCH  23  26
ATOM     26  C   UNL     1       0.410  -1.123  -5.478  0.00  0.00    +0.013 C 
ATOM     27  C   UNL     1       1.708  -1.889  -5.740  0.00  0.00    +0.012 C 
ATOM     28  C   UNL     1      -0.783  -1.980  -5.906  0.00  0.00    +0.012 C 
ENDBRANCH  23  26
ENDBRANCH  18  20
ENDBRANCH  15  18
ENDBRANCH   3  15
TORSDOF 5
