REMARK  Name = ZINC00954661
REMARK  4 active torsions:
REMARK  status: ('A' for Active; 'I' for Inactive)
REMARK    1  A    between atoms: C_1  and  C_2
REMARK    2  A    between atoms: C_3  and  C_20
REMARK    3  A    between atoms: C_4  and  C_12
REMARK    4  A    between atoms: N_22  and  C_23
REMARK                            x       y       z     vdW  Elec       q    Type
REMARK                         _______ _______ _______ _____ _____    ______ ____
ROOT
ATOM      1  C   UNL     1      -0.060   1.509  -0.514  0.00  0.00    +0.061 C 
ATOM      2  C   UNL     1      -0.017   0.014  -0.332  0.00  0.00    +0.018 C 
ATOM      3  C   UNL     1      -1.168  -0.652  -0.159  0.00  0.00    +0.060 C 
ATOM      4  C   UNL     1      -1.234  -2.142   0.042  0.00  0.00    +0.177 C 
ATOM      5  N   UNL     1       0.065  -2.733  -0.271  0.00  0.00    -0.221 N 
ATOM      6  C   UNL     1       1.197  -2.006  -0.445  0.00  0.00    +0.218 A 
ATOM      7  N   UNL     1       2.172  -2.835  -0.702  0.00  0.00    -0.201 NA
ATOM      8  C   UNL     1       1.704  -4.088  -0.705  0.00  0.00    +0.247 A 
ATOM      9  N   UNL     1       0.420  -4.069  -0.447  0.00  0.00    -0.156 NA
ATOM     10  N   UNL     1       1.200  -0.622  -0.354  0.00  0.00    -0.287 N 
ATOM     11  H   UNL     1       2.031  -0.123  -0.305  0.00  0.00    +0.155 HD
ENDROOT
BRANCH   4  12
ATOM     12  C   UNL     1      -1.589  -2.441   1.476  0.00  0.00    -0.017 A 
ATOM     13  C   UNL     1      -0.770  -1.997   2.498  0.00  0.00    +0.007 A 
ATOM     14  C   UNL     1      -1.095  -2.270   3.813  0.00  0.00    +0.022 A 
ATOM     15  C   UNL     1      -2.240  -2.988   4.107  0.00  0.00    +0.059 A 
ATOM     16  C   UNL     1      -3.061  -3.433   3.084  0.00  0.00    +0.060 A 
ATOM     17  C   UNL     1      -2.737  -3.153   1.768  0.00  0.00    +0.027 A 
ATOM     18 CL   UNL     1      -4.498  -4.334   3.452  0.00  0.00    -0.082 Cl
ATOM     19 CL   UNL     1      -2.649  -3.333   5.759  0.00  0.00    -0.082 Cl
ENDBRANCH   4  12
BRANCH   3  20
ATOM     20  C   UNL     1      -2.378   0.081  -0.166  0.00  0.00    +0.248 C 
ATOM     21  O   UNL     1      -2.358   1.288  -0.327  0.00  0.00    -0.270 OA
ATOM     22  N   UNL     1      -3.553  -0.556   0.004  0.00  0.00    -0.282 N 
ATOM     23  H   UNL     1      -3.577  -1.525   0.055  0.00  0.00    +0.155 HD
BRANCH  22  24
ATOM     24  C   UNL     1      -4.739   0.179   0.108  0.00  0.00    +0.034 A 
ATOM     25  C   UNL     1      -5.927  -0.344  -0.386  0.00  0.00    +0.025 A 
ATOM     26  C   UNL     1      -7.096   0.383  -0.281  0.00  0.00    +0.022 A 
ATOM     27  C   UNL     1      -7.085   1.632   0.315  0.00  0.00    +0.041 A 
ATOM     28  C   UNL     1      -5.902   2.155   0.808  0.00  0.00    +0.022 A 
ATOM     29  C   UNL     1      -4.731   1.430   0.711  0.00  0.00    +0.025 A 
ATOM     30 CL   UNL     1      -8.556   2.544   0.444  0.00  0.00    -0.084 Cl
ENDBRANCH  22  24
ENDBRANCH   3  20
TORSDOF 3
