REMARK  Name = ZINC08404867
REMARK  8 active torsions:
REMARK  status: ('A' for Active; 'I' for Inactive)
REMARK    1  A    between atoms: C_1  and  C_2
REMARK    2  A    between atoms: N_9  and  N_10
REMARK    3  A    between atoms: C_11  and  C_13
REMARK    4  A    between atoms: C_13  and  O_14
REMARK    5  A    between atoms: O_14  and  C_15
REMARK    6  A    between atoms: C_17  and  C_22
REMARK    7  A    between atoms: C_19  and  C_21
REMARK    8  A    between atoms: C_23  and  O_25
REMARK                            x       y       z     vdW  Elec       q    Type
REMARK                         _______ _______ _______ _____ _____    ______ ____
ROOT
ATOM      1  N   UNL     1       0.076  -3.971   4.329  0.00  0.00    -0.203 N 
ATOM      2  C   UNL     1       0.080  -3.793   5.665  0.00  0.00    +0.270 C 
ATOM      3  O   UNL     1       0.067  -2.672   6.127  0.00  0.00    -0.270 OA
ATOM      4  H   UNL     1       0.087  -4.868   3.959  0.00  0.00    +0.177 HD
ENDROOT
BRANCH   1  13
ATOM      5  C   UNL     1      -0.018   1.503   0.010  0.00  0.00    +0.044 C 
ATOM      6  C   UNL     1       0.002  -0.004   0.002  0.00  0.00    -0.050 A 
ATOM      7  C   UNL     1       0.006  -0.688  -1.203  0.00  0.00    +0.005 A 
ATOM      8  C   UNL     1       0.024  -2.066  -1.232  0.00  0.00    +0.029 A 
ATOM      9  C   UNL     1       0.040  -2.791  -0.036  0.00  0.00    +0.077 A 
ATOM     10  C   UNL     1       0.036  -2.086   1.184  0.00  0.00    +0.033 A 
ATOM     11  C   UNL     1       0.023  -0.699   1.196  0.00  0.00    +0.015 A 
ATOM     12  C   UNL     1       0.055  -3.123   2.241  0.00  0.00    +0.152 C 
ATOM     13  N   UNL     1       0.059  -2.950   3.542  0.00  0.00    -0.174 NA
ATOM     14  C   UNL     1       0.069  -4.398   1.496  0.00  0.00    +0.241 C 
ATOM     15  N   UNL     1       0.059  -4.126   0.217  0.00  0.00    -0.211 NA
BRANCH  14  16
ATOM     16  O   UNL     1       0.088  -5.637   2.043  0.00  0.00    -0.491 OA
ATOM     17  H   UNL     1       0.094  -6.354   1.394  0.00  0.00    +0.294 HD
ENDBRANCH  14  16
ENDBRANCH   1  13
BRANCH   2  18
ATOM     18  C   UNL     1       0.100  -4.987   6.585  0.00  0.00    +0.326 C 
BRANCH  18  19
ATOM     19  O   UNL     1       0.101  -4.542   7.943  0.00  0.00    -0.483 OA
BRANCH  19  20
ATOM     20  C   UNL     1       0.118  -5.500   8.906  0.00  0.00    +0.122 A 
ATOM     21  C   UNL     1       0.140  -6.841   8.551  0.00  0.00    +0.049 A 
ATOM     22  C   UNL     1       0.159  -7.814   9.532  0.00  0.00    -0.047 A 
ATOM     23  C   UNL     1       0.154  -7.451  10.867  0.00  0.00    +0.007 A 
ATOM     24  C   UNL     1       0.131  -6.115  11.223  0.00  0.00    -0.047 A 
ATOM     25  C   UNL     1       0.119  -5.139  10.245  0.00  0.00    +0.049 A 
ATOM     26  C   UNL     1       0.126  -5.724  12.678  0.00  0.00    +0.044 C 
ATOM     27  C   UNL     1       0.183  -9.271   9.148  0.00  0.00    +0.044 C 
ENDBRANCH  19  20
ENDBRANCH  18  19
ENDBRANCH   2  18
TORSDOF 5
