REMARK  Name = ZINC62755672
REMARK  2 active torsions:
REMARK  status: ('A' for Active; 'I' for Inactive)
REMARK    1  A    between atoms: C_4  and  C_22
REMARK    2  A    between atoms: C_6  and  N_10
REMARK                            x       y       z     vdW  Elec       q    Type
REMARK                         _______ _______ _______ _____ _____    ______ ____
ROOT
ATOM      1  N   UNL     1       1.910  -2.773   0.847  0.00  0.00    +0.387 N 
ATOM      2  C   UNL     1       0.826  -3.308   0.009  0.00  0.00    -0.049 C 
ATOM      3  C   UNL     1       0.833  -4.837   0.078  0.00  0.00    +0.141 C 
ATOM      4  O   UNL     1       2.112  -5.326  -0.337  0.00  0.00    -0.380 OA
ATOM      5  C   UNL     1       3.196  -4.814   0.442  0.00  0.00    +0.105 C 
ATOM      6  C   UNL     1       3.196  -3.286   0.359  0.00  0.00    -0.039 C 
ATOM      7  C   UNL     1       4.337  -2.733   1.214  0.00  0.00    -0.013 C 
ATOM      8  C   UNL     1       5.670  -3.270   0.686  0.00  0.00    -0.001 C 
ATOM      9  C   UNL     1       5.672  -4.798   0.752  0.00  0.00    +0.002 C 
ATOM     10  C   UNL     1       4.523  -5.351  -0.095  0.00  0.00    +0.030 C 
ATOM     11  H   UNL     1       1.772  -3.064   1.803  0.00  0.00    -0.081 HD
ENDROOT
BRANCH   1  16
ATOM     12  C   UNL     1       1.463   1.527  -0.147  0.00  0.00    -0.000 C 
ATOM     13  C   UNL     1       1.782   1.532   1.323  0.00  0.00    +0.001 C 
ATOM     14  C   UNL     1       0.879   0.574   2.125  0.00  0.00    +0.013 C 
ATOM     15  C   UNL     1       0.652  -0.771   1.410  0.00  0.00    +0.089 C 
ATOM     16  C   UNL     1       1.907  -1.306   0.776  0.00  0.00    -0.054 C 
ATOM     17  C   UNL     1       1.941  -0.855  -0.699  0.00  0.00    -0.014 C 
ATOM     18  C   UNL     1       2.397   0.519  -0.849  0.00  0.00    -0.002 C 
BRANCH  15  19
ATOM     19  C   UNL     1       0.148  -1.777   2.413  0.00  0.00    +0.357 C 
ATOM     20  O   UNL     1      -0.921  -2.334   2.232  0.00  0.00    -0.246 OA
ATOM     21  O   UNL     1       0.809  -2.033   3.404  0.00  0.00    -0.246 OA
ENDBRANCH  15  19
ENDBRANCH   1  16
TORSDOF 2
