REMARK  Name = ZINC04144333
REMARK  7 active torsions:
REMARK  status: ('A' for Active; 'I' for Inactive)
REMARK    1  A    between atoms: C_4  and  O_7
REMARK    2  A    between atoms: O_7  and  C_8
REMARK    3  A    between atoms: C_12  and  C_14
REMARK    4  A    between atoms: C_16  and  C_28
REMARK    5  A    between atoms: C_18  and  C_23
REMARK    6  A    between atoms: C_18  and  O_27
REMARK    7  A    between atoms: C_28  and  C_30
REMARK                            x       y       z     vdW  Elec       q    Type
REMARK                         _______ _______ _______ _____ _____    ______ ____
ROOT
ATOM      1  C   UNL     1      -7.072   2.920  -0.045  0.00  0.00    +0.120 C 
ATOM      2  C   UNL     1      -7.664   3.070  -1.450  0.00  0.00    +0.144 C 
ATOM      3  C   UNL     1      -8.090   1.685  -1.951  0.00  0.00    +0.243 C 
ATOM      4  N   UNL     1      -9.011   1.088  -0.984  0.00  0.00    -0.264 N 
ATOM      5  C   UNL     1      -8.945   1.389   0.322  0.00  0.00    +0.302 C 
ATOM      6  O   UNL     1      -9.727   0.856   1.085  0.00  0.00    -0.253 OA
ATOM      7  N   UNL     1      -8.049   2.255   0.819  0.00  0.00    -0.292 N 
ATOM      8  H   UNL     1      -9.684   0.461  -1.293  0.00  0.00    +0.153 HD
ATOM      9  H   UNL     1      -8.049   2.445   1.770  0.00  0.00    +0.151 HD
ENDROOT
BRANCH   1  14
ATOM     10  C   UNL     1      -3.466   1.914  -0.558  0.00  0.00    +0.129 A 
ATOM     11  C   UNL     1      -3.510   0.563  -0.241  0.00  0.00    +0.046 A 
ATOM     12  C   UNL     1      -4.703  -0.015   0.146  0.00  0.00    +0.004 A 
ATOM     13  C   UNL     1      -5.855   0.747   0.207  0.00  0.00    +0.006 A 
ATOM     14  C   UNL     1      -5.815   2.092  -0.113  0.00  0.00    -0.023 A 
ATOM     15  C   UNL     1      -4.623   2.677  -0.495  0.00  0.00    +0.051 A 
BRANCH  10  16
ATOM     16  O   UNL     1      -2.292   2.487  -0.933  0.00  0.00    -0.456 OA
BRANCH  16  20
ATOM     17  C   UNL     1      -0.079   4.437   1.950  0.00  0.00    +0.000 A 
ATOM     18  C   UNL     1      -1.222   3.747   2.308  0.00  0.00    +0.004 A 
ATOM     19  C   UNL     1      -1.962   3.088   1.345  0.00  0.00    +0.046 A 
ATOM     20  C   UNL     1      -1.563   3.129   0.017  0.00  0.00    +0.128 A 
ATOM     21  C   UNL     1      -0.416   3.823  -0.339  0.00  0.00    +0.046 A 
ATOM     22  C   UNL     1       0.324   4.476   0.628  0.00  0.00    +0.004 A 
ENDBRANCH  16  20
ENDBRANCH  10  16
ENDBRANCH   1  14
BRANCH   3  23
ATOM     23  C   UNL     1      -8.788   1.824  -3.305  0.00  0.00    +0.436 C 
ATOM     24  F   UNL     1      -7.952   2.507  -4.194  0.00  0.00    -0.166 F 
ATOM     25  F   UNL     1      -9.072   0.553  -3.815  0.00  0.00    -0.166 F 
ATOM     26  F   UNL     1      -9.980   2.538  -3.144  0.00  0.00    -0.166 F 
ENDBRANCH   3  23
BRANCH   3  27
ATOM     27  O   UNL     1      -6.937   0.852  -2.090  0.00  0.00    -0.364 OA
ATOM     28  H   UNL     1      -7.133  -0.041  -2.404  0.00  0.00    +0.212 HD
ENDBRANCH   3  27
BRANCH   2  29
ATOM     29  C   UNL     1      -8.863   3.981  -1.400  0.00  0.00    +0.173 C 
ATOM     30  O   UNL     1      -9.938   3.549  -1.040  0.00  0.00    -0.292 OA
BRANCH  29  31
ATOM     31  C   UNL     1      -8.730   5.393  -1.788  0.00  0.00    +0.018 A 
ATOM     32  C   UNL     1      -7.495   5.891  -2.216  0.00  0.00    +0.014 A 
ATOM     33  C   UNL     1      -7.379   7.213  -2.583  0.00  0.00    +0.039 A 
ATOM     34  C   UNL     1      -8.481   8.054  -2.518  0.00  0.00    +0.123 A 
ATOM     35  C   UNL     1      -9.707   7.568  -2.089  0.00  0.00    +0.039 A 
ATOM     36  C   UNL     1      -9.838   6.246  -1.725  0.00  0.00    +0.014 A 
ATOM     37  F   UNL     1      -8.359   9.351  -2.875  0.00  0.00    -0.205 F 
ENDBRANCH  29  31
ENDBRANCH   2  29
TORSDOF 7
