REMARK  Name = ZINC33543571
REMARK  8 active torsions:
REMARK  status: ('A' for Active; 'I' for Inactive)
REMARK    1  A    between atoms: C_5  and  C_7
REMARK    2  A    between atoms: N_11  and  C_15
REMARK    3  A    between atoms: C_15  and  C_16
REMARK    4  A    between atoms: N_18  and  C_19
REMARK    5  A    between atoms: C_19  and  C_20
REMARK    6  A    between atoms: C_20  and  C_21
REMARK    7  A    between atoms: C_24  and  O_28
REMARK    8  A    between atoms: C_25  and  O_27
REMARK                            x       y       z     vdW  Elec       q    Type
REMARK                         _______ _______ _______ _____ _____    ______ ____
ROOT
ATOM      1  C   UNL     1      -3.644  -2.877   0.275  0.00  0.00    +0.210 C 
ENDROOT
BRANCH   1   6
ATOM      2  C   UNL     1       1.254  -2.153  -0.022  0.00  0.00    +0.031 C 
ATOM      3  C   UNL     1       0.099  -2.855   0.088  0.00  0.00    +0.077 C 
ATOM      4  C   UNL     1      -1.297  -2.372   0.121  0.00  0.00    +0.259 C 
ATOM      5  O   UNL     1      -1.566  -1.187   0.044  0.00  0.00    -0.269 OA
ATOM      6  N   UNL     1      -2.240  -3.292   0.237  0.00  0.00    -0.246 N 
ATOM      7  C   UNL     1      -1.937  -4.604   0.321  0.00  0.00    +0.121 C 
ATOM      8  S   UNL     1      -3.005  -5.933   0.475  0.00  0.00    -0.027 S 
ATOM      9  S   UNL     1      -0.154  -4.619   0.226  0.00  0.00    -0.061 S 
BRANCH   2  14
ATOM     10  C   UNL     1       0.400   1.341   1.033  0.00  0.00    +0.001 A 
ATOM     11  C   UNL     1       1.188   2.084   0.170  0.00  0.00    +0.003 A 
ATOM     12  C   UNL     1       1.998   1.452  -0.757  0.00  0.00    +0.039 A 
ATOM     13  C   UNL     1       2.027   0.072  -0.827  0.00  0.00    +0.131 A 
ATOM     14  C   UNL     1       1.232  -0.685   0.044  0.00  0.00    +0.011 A 
ATOM     15  C   UNL     1       0.416  -0.035   0.977  0.00  0.00    +0.011 A 
ATOM     16  F   UNL     1       2.818  -0.544  -1.732  0.00  0.00    -0.205 F 
ENDBRANCH   2  14
ENDBRANCH   1   6
BRANCH   1  17
ATOM     17  C   UNL     1      -4.196  -2.842  -1.127  0.00  0.00    +0.231 C 
ATOM     18  O   UNL     1      -3.486  -3.135  -2.066  0.00  0.00    -0.274 OA
ATOM     19  N   UNL     1      -5.479  -2.486  -1.338  0.00  0.00    -0.314 N 
ATOM     20  H   UNL     1      -6.046  -2.252  -0.587  0.00  0.00    +0.149 HD
BRANCH  19  21
ATOM     21  C   UNL     1      -6.015  -2.451  -2.701  0.00  0.00    +0.109 C 
BRANCH  21  22
ATOM     22  C   UNL     1      -7.482  -2.018  -2.661  0.00  0.00    +0.054 C 
BRANCH  22  23
ATOM     23  C   UNL     1      -8.033  -1.983  -4.063  0.00  0.00    -0.042 A 
ATOM     24  C   UNL     1      -7.945  -0.823  -4.810  0.00  0.00    +0.007 A 
ATOM     25  C   UNL     1      -8.450  -0.785  -6.096  0.00  0.00    +0.049 A 
ATOM     26  C   UNL     1      -9.045  -1.912  -6.640  0.00  0.00    +0.158 A 
ATOM     27  C   UNL     1      -9.133  -3.080  -5.889  0.00  0.00    +0.158 A 
ATOM     28  C   UNL     1      -8.621  -3.112  -4.601  0.00  0.00    +0.052 A 
BRANCH  27  29
ATOM     29  O   UNL     1      -9.716  -4.189  -6.418  0.00  0.00    -0.503 OA
ATOM     30  H   UNL     1      -9.102  -4.771  -6.886  0.00  0.00    +0.292 HD
ENDBRANCH  27  29
BRANCH  26  31
ATOM     31  O   UNL     1      -9.542  -1.877  -7.905  0.00  0.00    -0.503 OA
ATOM     32  H   UNL     1      -8.903  -2.128  -8.586  0.00  0.00    +0.292 HD
ENDBRANCH  26  31
ENDBRANCH  22  23
ENDBRANCH  21  22
ENDBRANCH  19  21
ENDBRANCH   1  17
TORSDOF 8
