REMARK  Name = ZINC04655545
REMARK  7 active torsions:
REMARK  status: ('A' for Active; 'I' for Inactive)
REMARK    1  A    between atoms: C_1  and  O_2
REMARK    2  A    between atoms: O_2  and  C_3
REMARK    3  A    between atoms: C_3  and  C_5
REMARK    4  A    between atoms: C_6  and  N_27
REMARK    5  A    between atoms: C_12  and  C_25
REMARK    6  A    between atoms: C_15  and  C_17
REMARK    7  A    between atoms: C_25  and  O_26
REMARK                            x       y       z     vdW  Elec       q    Type
REMARK                         _______ _______ _______ _____ _____    ______ ____
ROOT
ATOM      1  C   UNL     1       0.700  -2.014   1.075  0.00  0.00    +0.108 C 
ATOM      2  C   UNL     1       1.386  -2.618   2.082  0.00  0.00    +0.196 C 
ATOM      3  O   UNL     1       1.440  -3.956   2.182  0.00  0.00    -0.435 OA
ATOM      4  C   UNL     1       0.514  -4.719   1.550  0.00  0.00    +0.215 A 
ATOM      5  C   UNL     1       0.309  -6.061   1.982  0.00  0.00    +0.228 A 
ATOM      6  O   UNL     1       0.953  -6.529   2.909  0.00  0.00    -0.284 OA
ATOM      7  C   UNL     1      -0.665  -6.836   1.304  0.00  0.00    +0.098 A 
ATOM      8  C   UNL     1      -1.349  -6.271   0.289  0.00  0.00    +0.134 A 
ATOM      9  O   UNL     1      -1.133  -5.011  -0.088  0.00  0.00    -0.457 OA
ATOM     10  C   UNL     1      -0.218  -4.242   0.523  0.00  0.00    +0.163 A 
ATOM     11  C   UNL     1      -0.028  -2.827   0.042  0.00  0.00    +0.132 C 
ENDROOT
BRANCH  11  12
ATOM     12  C   UNL     1       0.773  -2.842  -1.235  0.00  0.00    -0.014 A 
ATOM     13  C   UNL     1       2.053  -3.367  -1.241  0.00  0.00    +0.007 A 
ATOM     14  C   UNL     1       2.788  -3.382  -2.411  0.00  0.00    +0.020 A 
ATOM     15  C   UNL     1       2.244  -2.872  -3.577  0.00  0.00    +0.042 A 
ATOM     16  C   UNL     1       0.964  -2.348  -3.571  0.00  0.00    +0.040 A 
ATOM     17  C   UNL     1       0.227  -2.337  -2.401  0.00  0.00    +0.047 A 
ATOM     18 CL   UNL     1      -1.382  -1.685  -2.394  0.00  0.00    -0.083 Cl
ATOM     19 CL   UNL     1       3.168  -2.890  -5.047  0.00  0.00    -0.083 Cl
ENDBRANCH  11  12
BRANCH   2  20
ATOM     20  N   UNL     1       2.035  -1.848   3.010  0.00  0.00    -0.329 N 
ATOM     21  H   UNL     1       1.928  -0.884   3.001  0.00  0.00    +0.145 HD
ATOM     22  H   UNL     1       2.601  -2.267   3.677  0.00  0.00    +0.145 HD
ENDBRANCH   2  20
BRANCH   1  23
ATOM     23  C   UNL     1       0.666  -0.615   1.005  0.00  0.00    +0.341 C 
ATOM     24  O   UNL     1      -0.322  -0.009   1.383  0.00  0.00    -0.245 OA
BRANCH  23  26
ATOM     25  C   UNL     1       1.624   1.488   0.474  0.00  0.00    +0.280 C 
ATOM     26  O   UNL     1       1.728   0.063   0.517  0.00  0.00    -0.465 OA
ENDBRANCH  23  26
ENDBRANCH   1  23
BRANCH   8  27
ATOM     27  C   UNL     1      -2.386  -7.087  -0.439  0.00  0.00    +0.230 C 
BRANCH  27  28
ATOM     28  O   UNL     1      -2.447  -8.396   0.129  0.00  0.00    -0.387 OA
ATOM     29  H   UNL     1      -3.095  -8.978  -0.291  0.00  0.00    +0.210 HD
ENDBRANCH  27  28
ENDBRANCH   8  27
TORSDOF 6
