REMARK  Name = ZINC05938297
REMARK  9 active torsions:
REMARK  status: ('A' for Active; 'I' for Inactive)
REMARK    1  A    between atoms: C_1  and  C_2
REMARK    2  A    between atoms: C_2  and  C_3
REMARK    3  A    between atoms: C_3  and  N_4
REMARK    4  A    between atoms: C_13  and  C_15
REMARK    5  A    between atoms: C_15  and  O_17
REMARK    6  A    between atoms: O_17  and  C_18
REMARK    7  A    between atoms: C_18  and  C_19
REMARK    8  A    between atoms: N_21  and  C_22
REMARK    9  A    between atoms: C_23  and  C_27
REMARK                            x       y       z     vdW  Elec       q    Type
REMARK                         _______ _______ _______ _____ _____    ______ ____
ROOT
ATOM      1  C   UNL     1       1.482   6.026   2.573  0.00  0.00    +0.360 C 
ATOM      2  O   UNL     1       1.569   7.236   2.638  0.00  0.00    -0.243 OA
ENDROOT
BRANCH   1  12
ATOM      3  N   UNL     1      -0.755   3.484   1.277  0.00  0.00    -0.228 N 
ATOM      4  C   UNL     1      -1.795   4.112   0.692  0.00  0.00    +0.275 A 
ATOM      5  O   UNL     1      -2.693   3.475   0.171  0.00  0.00    -0.266 OA
ATOM      6  C   UNL     1      -1.823   5.581   0.702  0.00  0.00    +0.050 A 
ATOM      7  C   UNL     1      -2.853   6.321   0.130  0.00  0.00    +0.014 A 
ATOM      8  C   UNL     1      -2.801   7.698   0.177  0.00  0.00    +0.001 A 
ATOM      9  C   UNL     1      -1.736   8.348   0.787  0.00  0.00    +0.001 A 
ATOM     10  C   UNL     1      -0.706   7.632   1.359  0.00  0.00    +0.011 A 
ATOM     11  C   UNL     1      -0.738   6.243   1.323  0.00  0.00    +0.021 A 
ATOM     12  C   UNL     1       0.320   5.405   1.909  0.00  0.00    +0.176 A 
ATOM     13  N   UNL     1       0.218   4.100   1.835  0.00  0.00    -0.161 NA
BRANCH   3  14
ATOM     14  C   UNL     1      -0.735   2.019   1.269  0.00  0.00    +0.147 C 
BRANCH  14  16
ATOM     15  C   UNL     1       0.002  -0.004   0.002  0.00  0.00    +0.005 C 
ATOM     16  C   UNL     1      -0.019   1.526   0.010  0.00  0.00    +0.020 C 
ENDBRANCH  14  16
ENDBRANCH   3  14
ENDBRANCH   1  12
BRANCH   1  17
ATOM     17  O   UNL     1       2.447   5.252   3.107  0.00  0.00    -0.451 OA
BRANCH  17  18
ATOM     18  C   UNL     1       3.560   5.931   3.744  0.00  0.00    +0.328 C 
BRANCH  18  19
ATOM     19  C   UNL     1       4.532   4.911   4.279  0.00  0.00    +0.255 C 
ATOM     20  O   UNL     1       4.308   3.728   4.137  0.00  0.00    -0.272 OA
ATOM     21  N   UNL     1       5.650   5.314   4.915  0.00  0.00    -0.277 N 
ATOM     22  H   UNL     1       5.829   6.260   5.029  0.00  0.00    +0.155 HD
BRANCH  21  23
ATOM     23  C   UNL     1       6.544   4.375   5.407  0.00  0.00    +0.084 A 
ATOM     24  C   UNL     1       7.741   4.592   6.079  0.00  0.00    +0.065 A 
ATOM     25  C   UNL     1       8.479   3.420   6.486  0.00  0.00    +0.022 A 
ATOM     26  C   UNL     1       7.952   2.223   6.172  0.00  0.00    +0.048 A 
ATOM     27  S   UNL     1       6.443   2.648   5.327  0.00  0.00    -0.081 S 
BRANCH  24  28
ATOM     28  C   UNL     1       8.229   5.945   6.364  0.00  0.00    +0.244 C 
ATOM     29  O   UNL     1       7.581   6.912   6.010  0.00  0.00    -0.270 OA
ATOM     30  N   UNL     1       9.395   6.117   7.018  0.00  0.00    -0.325 N 
ATOM     31  H   UNL     1       9.911   5.346   7.300  0.00  0.00    +0.145 HD
ATOM     32  H   UNL     1       9.717   7.012   7.206  0.00  0.00    +0.145 HD
ENDBRANCH  24  28
ENDBRANCH  21  23
ENDBRANCH  18  19
ENDBRANCH  17  18
ENDBRANCH   1  17
TORSDOF 8
