REMARK  Name = ZINC04829713
REMARK  9 active torsions:
REMARK  status: ('A' for Active; 'I' for Inactive)
REMARK    1  A    between atoms: C_1  and  C_2
REMARK    2  A    between atoms: C_4  and  C_27
REMARK    3  A    between atoms: C_5  and  O_9
REMARK    4  A    between atoms: C_6  and  C_8
REMARK    5  A    between atoms: O_9  and  C_10
REMARK    6  A    between atoms: C_18  and  O_20
REMARK    7  A    between atoms: O_20  and  C_21
REMARK    8  A    between atoms: C_23  and  C_25
REMARK    9  A    between atoms: C_23  and  C_26
REMARK                            x       y       z     vdW  Elec       q    Type
REMARK                         _______ _______ _______ _____ _____    ______ ____
ROOT
ATOM      1  C   UNL     1       0.945  -0.577  -1.158  0.00  0.00    +0.260 C 
ATOM      2  C   UNL     1      -0.088  -0.151  -0.145  0.00  0.00    +0.198 C 
ATOM      3  C   UNL     1       0.399   0.952   0.809  0.00  0.00    +0.180 C 
ATOM      4  C   UNL     1       1.827   0.693   1.256  0.00  0.00    +0.197 C 
ATOM      5  O   UNL     1       2.679   0.639   0.118  0.00  0.00    -0.345 OA
ATOM      6  C   UNL     1       2.391  -0.368  -0.824  0.00  0.00    +0.293 C 
ATOM      7  O   UNL     1       0.316   2.126  -0.025  0.00  0.00    -0.341 OA
ATOM      8  C   UNL     1      -0.893   1.927  -0.784  0.00  0.00    +0.166 C 
ATOM      9  O   UNL     1      -1.164   0.518  -0.853  0.00  0.00    -0.339 OA
ATOM     10  C   UNL     1      -0.712   2.486  -2.197  0.00  0.00    +0.074 C 
ATOM     11  C   UNL     1      -2.057   2.642  -0.095  0.00  0.00    +0.074 C 
ENDROOT
BRANCH   6  12
ATOM     12  O   UNL     1       3.083  -0.053  -2.034  0.00  0.00    -0.351 OA
ATOM     13  C   UNL     1       4.507  -0.072  -1.911  0.00  0.00    +0.197 C 
ENDBRANCH   6  12
BRANCH   1  14
ATOM     14  O   UNL     1       0.675   0.121  -2.375  0.00  0.00    -0.481 OA
BRANCH  14  19
ATOM     15  C   UNL     1      -0.217  -3.008  -6.973  0.00  0.00    +0.044 C 
ATOM     16  C   UNL     1       0.022  -2.171  -5.742  0.00  0.00    -0.050 A 
ATOM     17  C   UNL     1      -0.819  -2.292  -4.652  0.00  0.00    +0.010 A 
ATOM     18  C   UNL     1      -0.602  -1.526  -3.523  0.00  0.00    -0.008 A 
ATOM     19  C   UNL     1       0.460  -0.634  -3.484  0.00  0.00    +0.127 A 
ATOM     20  C   UNL     1       1.299  -0.511  -4.582  0.00  0.00    -0.008 A 
ATOM     21  C   UNL     1       1.081  -1.284  -5.706  0.00  0.00    +0.010 A 
ATOM     22  C   UNL     1       2.450   0.462  -4.546  0.00  0.00    +0.047 C 
ATOM     23  C   UNL     1      -1.519  -1.659  -2.334  0.00  0.00    +0.047 C 
ENDBRANCH  14  19
ENDBRANCH   1  14
TORSDOF 3
