REMARK  Name = ZINC44898524
REMARK  10 active torsions:
REMARK  status: ('A' for Active; 'I' for Inactive)
REMARK    1  A    between atoms: C_1  and  C_2
REMARK    2  A    between atoms: N_10  and  N_14
REMARK    3  A    between atoms: C_15  and  C_17
REMARK    4  A    between atoms: C_17  and  N_18
REMARK    5  A    between atoms: N_18  and  C_19
REMARK    6  A    between atoms: N_18  and  C_24
REMARK    7  A    between atoms: C_19  and  C_20
REMARK    8  A    between atoms: C_20  and  C_21
REMARK    9  A    between atoms: C_21  and  C_22
REMARK   10  A    between atoms: C_21  and  C_23
REMARK                            x       y       z     vdW  Elec       q    Type
REMARK                         _______ _______ _______ _____ _____    ______ ____
ROOT
ATOM      1  N   UNL     1       3.511  -5.491  -0.273  0.00  0.00    -0.225 N 
ATOM      2  C   UNL     1       3.904  -6.076  -1.422  0.00  0.00    +0.213 C 
ATOM      3  O   UNL     1       3.866  -5.454  -2.463  0.00  0.00    -0.276 OA
ATOM      4  H   UNL     1       3.541  -5.989   0.559  0.00  0.00    +0.173 HD
ENDROOT
BRANCH   1  14
ATOM      5  C   UNL     1       0.430   1.819  -0.255  0.00  0.00    +0.007 C 
ATOM      6  C   UNL     1       0.403   0.290  -0.194  0.00  0.00    -0.014 C 
ATOM      7  C   UNL     1       0.990  -0.282  -1.486  0.00  0.00    +0.006 C 
ATOM      8  C   UNL     1       0.953  -1.811  -1.429  0.00  0.00    +0.035 C 
ATOM      9  C   UNL     1       1.757  -2.296  -0.226  0.00  0.00    +0.114 C 
ATOM     10  C   UNL     1       1.195  -1.716   1.067  0.00  0.00    +0.035 C 
ATOM     11  C   UNL     1       1.231  -0.187   1.001  0.00  0.00    +0.006 C 
ATOM     12  C   UNL     1       1.763  -3.806  -0.169  0.00  0.00    +0.263 C 
ATOM     13  O   UNL     1       0.805  -4.539  -0.049  0.00  0.00    -0.271 OA
ATOM     14  N   UNL     1       3.058  -4.165  -0.281  0.00  0.00    -0.137 N 
ATOM     15  C   UNL     1       3.858  -3.098  -0.399  0.00  0.00    +0.326 C 
ATOM     16  O   UNL     1       5.066  -3.168  -0.513  0.00  0.00    -0.251 OA
ATOM     17  N   UNL     1       3.173  -1.939  -0.377  0.00  0.00    -0.284 N 
ATOM     18  H   UNL     1       3.543  -1.044  -0.447  0.00  0.00    +0.151 HD
ENDBRANCH   1  14
BRANCH   2  19
ATOM     19  C   UNL     1       4.391  -7.502  -1.414  0.00  0.00    +0.020 C 
BRANCH  19  20
ATOM     20  N   UNL     1       4.758  -7.902  -2.779  0.00  0.00    +0.387 N 
ATOM     21  H   UNL     1       3.974  -7.748  -3.397  0.00  0.00    -0.081 HD
BRANCH  20  22
ATOM     22  C   UNL     1       5.904  -7.103  -3.233  0.00  0.00    -0.068 C 
ATOM     23  C   UNL     1       5.688  -6.172  -4.428  0.00  0.00    -0.017 C 
ATOM     24  C   UNL     1       6.513  -7.450  -4.592  0.00  0.00    -0.017 C 
ENDBRANCH  20  22
BRANCH  20  25
ATOM     25  C   UNL     1       5.118  -9.326  -2.792  0.00  0.00    -0.078 C 
BRANCH  25  26
ATOM     26  C   UNL     1       3.887 -10.167  -2.446  0.00  0.00    -0.016 C 
BRANCH  26  27
ATOM     27  C   UNL     1       4.229 -11.652  -2.584  0.00  0.00    -0.019 C 
ATOM     28  C   UNL     1       3.039 -12.494  -2.119  0.00  0.00    +0.007 C 
ATOM     29  C   UNL     1       4.538 -11.970  -4.048  0.00  0.00    +0.007 C 
ENDBRANCH  26  27
ENDBRANCH  25  26
ENDBRANCH  20  25
ENDBRANCH  19  20
ENDBRANCH   2  19
TORSDOF 7
