REMARK  Name = ZINC12290742
REMARK  7 active torsions:
REMARK  status: ('A' for Active; 'I' for Inactive)
REMARK    1  A    between atoms: C_1  and  N_2
REMARK    2  A    between atoms: C_6  and  S_13
REMARK    3  A    between atoms: N_9  and  C_12
REMARK    4  A    between atoms: S_13  and  N_16
REMARK    5  A    between atoms: N_16  and  C_17
REMARK    6  A    between atoms: C_19  and  C_26
REMARK    7  A    between atoms: C_21  and  C_23
REMARK                            x       y       z     vdW  Elec       q    Type
REMARK                         _______ _______ _______ _____ _____    ______ ____
ROOT
ATOM      1  N   UNL     1       1.018   4.328   1.591  0.00  0.00    -0.216 N 
ATOM      2  H   UNL     1       1.416   5.202   1.726  0.00  0.00    +0.174 HD
ENDROOT
BRANCH   1   3
ATOM      3  C   UNL     1      -0.087   3.937   2.351  0.00  0.00    +0.049 A 
ATOM      4  C   UNL     1      -1.352   3.928   1.780  0.00  0.00    +0.037 A 
ATOM      5  C   UNL     1      -2.458   3.534   2.535  0.00  0.00    +0.039 A 
ATOM      6  C   UNL     1      -2.292   3.160   3.867  0.00  0.00    +0.026 A 
ATOM      7  C   UNL     1      -1.022   3.175   4.439  0.00  0.00    +0.039 A 
ATOM      8  C   UNL     1       0.081   3.565   3.677  0.00  0.00    +0.037 A 
BRANCH   7   9
ATOM      9  C   UNL     1      -0.842   2.778   5.852  0.00  0.00    +0.242 C 
ATOM     10  O   UNL     1       0.267   2.791   6.351  0.00  0.00    -0.270 OA
ATOM     11  N   UNL     1      -1.907   2.402   6.588  0.00  0.00    -0.325 N 
ATOM     12  H   UNL     1      -2.791   2.391   6.190  0.00  0.00    +0.145 HD
ATOM     13  H   UNL     1      -1.788   2.141   7.514  0.00  0.00    +0.145 HD
ENDBRANCH   7   9
BRANCH   5  14
ATOM     14  C   UNL     1      -3.804   3.520   1.924  0.00  0.00    +0.242 C 
ATOM     15  O   UNL     1      -3.948   3.847   0.762  0.00  0.00    -0.270 OA
ATOM     16  N   UNL     1      -4.872   3.145   2.656  0.00  0.00    -0.325 N 
ATOM     17  H   UNL     1      -4.758   2.884   3.583  0.00  0.00    +0.145 HD
ATOM     18  H   UNL     1      -5.755   3.136   2.255  0.00  0.00    +0.145 HD
ENDBRANCH   5  14
ENDBRANCH   1   3
BRANCH   1  19
ATOM     19  S   UNL     1       1.650   3.297   0.459  0.00  0.00    +0.072 S 
ATOM     20  O   UNL     1       2.797   3.940  -0.080  0.00  0.00    -0.150 OA
ATOM     21  O   UNL     1       0.564   2.870  -0.353  0.00  0.00    -0.150 OA
BRANCH  19  27
ATOM     22  C   UNL     1       4.518  -2.054   3.988  0.00  0.00    +0.154 C 
ATOM     23  N   UNL     1       3.323  -1.609   3.268  0.00  0.00    -0.295 N 
ATOM     24  C   UNL     1       3.149  -0.364   2.667  0.00  0.00    +0.070 A 
ATOM     25  C   UNL     1       3.955   0.759   2.555  0.00  0.00    +0.030 A 
ATOM     26  C   UNL     1       3.493   1.872   1.880  0.00  0.00    +0.031 A 
ATOM     27  C   UNL     1       2.228   1.871   1.317  0.00  0.00    +0.111 A 
ATOM     28  C   UNL     1       1.419   0.758   1.424  0.00  0.00    +0.056 A 
ATOM     29  C   UNL     1       1.874  -0.365   2.099  0.00  0.00    +0.071 A 
ATOM     30  N   UNL     1       1.312  -1.610   2.371  0.00  0.00    -0.295 N 
ATOM     31  C   UNL     1       2.205  -2.333   3.074  0.00  0.00    +0.330 A 
ATOM     32  O   UNL     1       2.028  -3.469   3.471  0.00  0.00    -0.246 OA
ATOM     33  C   UNL     1      -0.022  -2.056   1.963  0.00  0.00    +0.154 C 
ENDBRANCH  19  27
ENDBRANCH   1  19
TORSDOF 5
