REMARK  Name = ZINC52889076
REMARK  7 active torsions:
REMARK  status: ('A' for Active; 'I' for Inactive)
REMARK    1  A    between atoms: C_1  and  C_2
REMARK    2  A    between atoms: N_4  and  C_5
REMARK    3  A    between atoms: C_8  and  C_11
REMARK    4  A    between atoms: C_11  and  S_12
REMARK    5  A    between atoms: S_12  and  C_13
REMARK    6  A    between atoms: C_16  and  C_19
REMARK    7  A    between atoms: N_17  and  N_18
REMARK                            x       y       z     vdW  Elec       q    Type
REMARK                         _______ _______ _______ _____ _____    ______ ____
ROOT
ATOM      1  C   UNL     1      -4.958  -6.676  -1.548  0.00  0.00    +0.209 A 
ATOM      2  N   UNL     1      -5.477  -7.107  -0.420  0.00  0.00    -0.121 NA
ATOM      3  N   UNL     1      -6.451  -7.911  -0.661  0.00  0.00    -0.127 NA
ATOM      4  C   UNL     1      -6.613  -8.042  -1.957  0.00  0.00    +0.182 A 
ATOM      5  N   UNL     1      -5.665  -7.252  -2.565  0.00  0.00    -0.224 N 
ENDROOT
BRANCH   4   6
ATOM      6  C   UNL     1      -7.626  -8.878  -2.635  0.00  0.00    +0.021 A 
ATOM      7  C   UNL     1      -7.493  -9.178  -3.992  0.00  0.00    +0.014 A 
ATOM      8  C   UNL     1      -8.441  -9.958  -4.620  0.00  0.00    +0.039 A 
ATOM      9  C   UNL     1      -9.525 -10.444  -3.906  0.00  0.00    +0.123 A 
ATOM     10  C   UNL     1      -9.662 -10.150  -2.559  0.00  0.00    +0.039 A 
ATOM     11  C   UNL     1      -8.717  -9.375  -1.920  0.00  0.00    +0.014 A 
ATOM     12  F   UNL     1     -10.451 -11.208  -4.526  0.00  0.00    -0.205 F 
ENDBRANCH   4   6
BRANCH   5  13
ATOM     13  N   UNL     1      -5.471  -7.079  -3.906  0.00  0.00    -0.295 N 
ATOM     14  H   UNL     1      -4.820  -7.760  -4.267  0.00  0.00    +0.163 HD
ATOM     15  H   UNL     1      -6.347  -7.115  -4.406  0.00  0.00    +0.163 HD
ENDBRANCH   5  13
BRANCH   1  16
ATOM     16  S   UNL     1      -3.607  -5.558  -1.716  0.00  0.00    -0.078 S 
BRANCH  16  17
ATOM     17  C   UNL     1      -3.133  -5.182  -0.006  0.00  0.00    +0.133 C 
BRANCH  17  25
ATOM     18  C   UNL     1      -0.018   1.503   0.010  0.00  0.00    +0.110 C 
ATOM     19  C   UNL     1       0.002  -0.004   0.002  0.00  0.00    +0.218 C 
ATOM     20  O   UNL     1       1.060  -0.596  -0.011  0.00  0.00    -0.276 OA
ATOM     21  N   UNL     1      -1.156  -0.694   0.009  0.00  0.00    -0.254 N 
ATOM     22  C   UNL     1      -2.434   0.021   0.025  0.00  0.00    +0.140 C 
ATOM     23  C   UNL     1      -1.137  -2.084   0.002  0.00  0.00    +0.167 A 
ATOM     24  N   UNL     1      -2.156  -2.915   0.002  0.00  0.00    -0.229 NA
ATOM     25  C   UNL     1      -1.971  -4.222  -0.006  0.00  0.00    +0.061 A 
ATOM     26  C   UNL     1      -0.689  -4.662  -0.014  0.00  0.00    +0.072 A 
ATOM     27  S   UNL     1       0.196  -3.111  -0.017  0.00  0.00    -0.060 S 
ENDBRANCH  17  25
ENDBRANCH  16  17
ENDBRANCH   1  16
TORSDOF 5
