REMARK  Name = ZINC02263119
REMARK  8 active torsions:
REMARK  status: ('A' for Active; 'I' for Inactive)
REMARK    1  A    between atoms: C_1  and  O_2
REMARK    2  A    between atoms: O_2  and  C_3
REMARK    3  A    between atoms: C_3  and  C_5
REMARK    4  A    between atoms: C_5  and  C_6
REMARK    5  A    between atoms: C_5  and  N_10
REMARK    6  A    between atoms: C_5  and  N_17
REMARK    7  A    between atoms: N_10  and  C_11
REMARK    8  A    between atoms: C_18  and  C_20
REMARK                            x       y       z     vdW  Elec       q    Type
REMARK                         _______ _______ _______ _____ _____    ______ ____
ROOT
ATOM      1  C   UNL     1       1.332   2.156   0.052  0.00  0.00    +0.296 C 
ENDROOT
BRANCH   1   2
ATOM      2  C   UNL     1       2.119   1.950  -1.243  0.00  0.00    +0.438 C 
ATOM      3  F   UNL     1       1.488   2.636  -2.287  0.00  0.00    -0.166 F 
ATOM      4  F   UNL     1       3.419   2.441  -1.083  0.00  0.00    -0.166 F 
ATOM      5  F   UNL     1       2.170   0.585  -1.546  0.00  0.00    -0.166 F 
ENDBRANCH   1   2
BRANCH   1   6
ATOM      6  N   UNL     1       1.404   3.565   0.448  0.00  0.00    -0.274 N 
ATOM      7  C   UNL     1       0.884   4.517  -0.351  0.00  0.00    +0.246 C 
ATOM      8  O   UNL     1       0.289   4.203  -1.364  0.00  0.00    -0.270 OA
ATOM      9  H   UNL     1       1.826   3.812   1.286  0.00  0.00    +0.152 HD
BRANCH   7  10
ATOM     10  C   UNL     1       1.037   5.945   0.003  0.00  0.00    +0.039 A 
ATOM     11  C   UNL     1       0.500   6.933  -0.824  0.00  0.00    +0.013 A 
ATOM     12  C   UNL     1       0.646   8.263  -0.489  0.00  0.00    +0.004 A 
ATOM     13  C   UNL     1       1.323   8.620   0.663  0.00  0.00    +0.038 A 
ATOM     14  C   UNL     1       1.859   7.645   1.489  0.00  0.00    +0.124 A 
ATOM     15  C   UNL     1       1.714   6.309   1.167  0.00  0.00    +0.051 A 
ATOM     16  F   UNL     1       2.519   8.001   2.612  0.00  0.00    -0.205 F 
ENDBRANCH   7  10
ENDBRANCH   1   6
BRANCH   1  17
ATOM     17  C   UNL     1      -0.108   1.769  -0.167  0.00  0.00    +0.359 C 
ATOM     18  O   UNL     1      -0.983   2.589  -0.021  0.00  0.00    -0.246 OA
BRANCH  17  20
ATOM     19  C   UNL     1      -1.824   0.213  -0.725  0.00  0.00    +0.280 C 
ATOM     20  O   UNL     1      -0.417   0.515  -0.531  0.00  0.00    -0.465 OA
ENDBRANCH  17  20
ENDBRANCH   1  17
BRANCH   1  21
ATOM     21  N   UNL     1       1.906   1.322   1.111  0.00  0.00    -0.294 N 
ATOM     22  H   UNL     1       2.572   0.652   0.892  0.00  0.00    +0.150 HD
BRANCH  21  23
ATOM     23  C   UNL     1       1.496   1.490   2.429  0.00  0.00    +0.098 A 
ATOM     24  C   UNL     1       0.416   2.320   2.714  0.00  0.00    +0.042 A 
ATOM     25  C   UNL     1       0.015   2.475   4.028  0.00  0.00    +0.020 A 
ATOM     26  C   UNL     1       0.718   1.800   5.019  0.00  0.00    +0.034 A 
ATOM     27  C   UNL     1       1.784   0.997   4.665  0.00  0.00    +0.099 A 
ATOM     28 BR   UNL     1       0.219   1.979   6.834  0.00  0.00    -0.049 Br
ATOM     29  N   UNL     1       2.202   0.818   3.383  0.00  0.00    -0.349 N 
ATOM     30  H   UNL     1       2.999   0.214   3.148  0.00  0.00    +0.167 HD
ENDBRANCH  21  23
ENDBRANCH   1  21
TORSDOF 7
