REMARK  Name = ZINC63718016
REMARK  7 active torsions:
REMARK  status: ('A' for Active; 'I' for Inactive)
REMARK    1  A    between atoms: C_1  and  O_2
REMARK    2  A    between atoms: O_2  and  C_3
REMARK    3  A    between atoms: C_8  and  S_13
REMARK    4  A    between atoms: S_13  and  C_14
REMARK    5  A    between atoms: C_14  and  C_15
REMARK    6  A    between atoms: N_17  and  C_18
REMARK    7  A    between atoms: C_18  and  C_19
REMARK                            x       y       z     vdW  Elec       q    Type
REMARK                         _______ _______ _______ _____ _____    ______ ____
ROOT
ATOM      1  C   UNL     1       0.605  -0.606  -1.054  0.00  0.00    +0.122 A 
ATOM      2  C   UNL     1       1.193   0.221  -2.099  0.00  0.00    +0.048 A 
ATOM      3  C   UNL     1       1.804  -0.317  -3.171  0.00  0.00    +0.031 A 
ATOM      4  C   UNL     1       1.890  -1.778  -3.307  0.00  0.00    +0.061 A 
ATOM      5  N   UNL     1       2.412  -2.544  -4.221  0.00  0.00    -0.355 N 
ATOM      6  C   UNL     1       2.188  -3.936  -3.814  0.00  0.00    +0.236 C 
ATOM      7  N   UNL     1       1.464  -3.883  -2.538  0.00  0.00    -0.355 N 
ATOM      8  C   UNL     1       1.289  -2.624  -2.240  0.00  0.00    +0.064 A 
ATOM      9  C   UNL     1       0.647  -1.960  -1.104  0.00  0.00    +0.073 A 
ATOM     10  H   UNL     1       2.866  -2.248  -5.026  0.00  0.00    +0.162 HD
ATOM     11  H   UNL     1       1.170  -4.644  -2.012  0.00  0.00    +0.162 HD
ENDROOT
BRANCH   1  13
ATOM     12  C   UNL     1      -0.017   1.425   0.010  0.00  0.00    +0.277 C 
ATOM     13  O   UNL     1       0.002  -0.004   0.002  0.00  0.00    -0.495 OA
ENDBRANCH   1  13
BRANCH   6  14
ATOM     14  S   UNL     1       3.777  -4.784  -3.596  0.00  0.00    -0.106 S 
BRANCH  14  15
ATOM     15  C   UNL     1       4.629  -3.800  -2.332  0.00  0.00    +0.168 C 
BRANCH  15  16
ATOM     16  C   UNL     1       5.981  -4.404  -2.053  0.00  0.00    +0.223 C 
ATOM     17  O   UNL     1       6.335  -5.401  -2.648  0.00  0.00    -0.275 OA
ATOM     18  N   UNL     1       6.797  -3.838  -1.142  0.00  0.00    -0.312 N 
ATOM     19  H   UNL     1       6.514  -3.041  -0.667  0.00  0.00    +0.149 HD
BRANCH  18  20
ATOM     20  C   UNL     1       8.112  -4.425  -0.871  0.00  0.00    +0.135 C 
BRANCH  20  21
ATOM     21  C   UNL     1       8.831  -3.595   0.195  0.00  0.00    +0.135 C 
ATOM     22  C   UNL     1      10.263  -4.135   0.401  0.00  0.00    +0.035 C 
ATOM     23  C   UNL     1      10.441  -4.017   1.939  0.00  0.00    +0.031 C 
ATOM     24  C   UNL     1       9.001  -4.313   2.426  0.00  0.00    +0.160 C 
ATOM     25  O   UNL     1       8.141  -3.707   1.445  0.00  0.00    -0.375 OA
ENDBRANCH  20  21
ENDBRANCH  18  20
ENDBRANCH  15  16
ENDBRANCH  14  15
ENDBRANCH   6  14
TORSDOF 6
