REMARK  Name = ZINC67267325
REMARK  5 active torsions:
REMARK  status: ('A' for Active; 'I' for Inactive)
REMARK    1  A    between atoms: C_4  and  C_7
REMARK    2  A    between atoms: C_7  and  C_8
REMARK    3  A    between atoms: C_8  and  C_9
REMARK    4  A    between atoms: C_9  and  N_10
REMARK    5  A    between atoms: C_11  and  C_13
REMARK                            x       y       z     vdW  Elec       q    Type
REMARK                         _______ _______ _______ _____ _____    ______ ____
ROOT
ATOM      1  C   UNL     1       4.573  -6.097  -4.642  0.00  0.00    +0.075 C 
ATOM      2  C   UNL     1       5.380  -6.498  -3.406  0.00  0.00    +0.015 C 
ATOM      3  C   UNL     1       5.500  -8.023  -3.348  0.00  0.00    +0.036 C 
ATOM      4  C   UNL     1       6.189  -8.529  -4.611  0.00  0.00    +0.112 C 
ATOM      5  C   UNL     1       5.409  -8.116  -5.854  0.00  0.00    +0.036 C 
ATOM      6  C   UNL     1       5.290  -6.590  -5.901  0.00  0.00    +0.015 C 
ATOM      7  C   UNL     1       7.607  -8.014  -4.682  0.00  0.00    +0.244 C 
ATOM      8  O   UNL     1       7.966  -6.857  -4.738  0.00  0.00    -0.273 OA
ATOM      9  N   UNL     1       8.391  -9.112  -4.669  0.00  0.00    -0.238 N 
ATOM     10  C   UNL     1       7.665 -10.235  -4.601  0.00  0.00    +0.307 C 
ATOM     11  O   UNL     1       8.147 -11.350  -4.577  0.00  0.00    -0.252 OA
ATOM     12  N   UNL     1       6.342  -9.989  -4.562  0.00  0.00    -0.285 N 
ATOM     13  H   UNL     1       9.360  -9.091  -4.706  0.00  0.00    +0.159 HD
ATOM     14  H   UNL     1       5.630 -10.646  -4.511  0.00  0.00    +0.151 HD
ENDROOT
BRANCH   1  16
ATOM     15  N   UNL     1       3.842  -3.937  -3.684  0.00  0.00    -0.315 N 
ATOM     16  C   UNL     1       4.444  -4.596  -4.694  0.00  0.00    +0.216 C 
ATOM     17  O   UNL     1       4.882  -3.982  -5.643  0.00  0.00    -0.276 OA
ATOM     18  H   UNL     1       3.492  -4.428  -2.924  0.00  0.00    +0.149 HD
BRANCH  15  19
ATOM     19  C   UNL     1       3.717  -2.478  -3.733  0.00  0.00    +0.104 C 
BRANCH  19  20
ATOM     20  C   UNL     1       3.001  -1.985  -2.475  0.00  0.00    +0.019 C 
BRANCH  20  21
ATOM     21  C   UNL     1       2.870  -0.461  -2.526  0.00  0.00    +0.005 C 
BRANCH  21  25
ATOM     22  C   UNL     1      -0.019   1.526   0.010  0.00  0.00    +0.000 C 
ATOM     23  C   UNL     1       1.417   2.055  -0.000  0.00  0.00    +0.000 C 
ATOM     24  C   UNL     1       2.133   1.562  -1.259  0.00  0.00    +0.003 C 
ATOM     25  C   UNL     1       2.154   0.032  -1.268  0.00  0.00    -0.011 C 
ATOM     26  C   UNL     1       0.718  -0.497  -1.257  0.00  0.00    +0.003 C 
ATOM     27  C   UNL     1       0.002  -0.004   0.002  0.00  0.00    +0.000 C 
ENDBRANCH  21  25
ENDBRANCH  20  21
ENDBRANCH  19  20
ENDBRANCH  15  19
ENDBRANCH   1  16
TORSDOF 5
