REMARK  Name = ZINC09381537
REMARK  7 active torsions:
REMARK  status: ('A' for Active; 'I' for Inactive)
REMARK    1  A    between atoms: C_1  and  C_2
REMARK    2  A    between atoms: C_2  and  O_3
REMARK    3  A    between atoms: O_3  and  C_4
REMARK    4  A    between atoms: C_4  and  C_6
REMARK    5  A    between atoms: C_10  and  N_23
REMARK    6  A    between atoms: N_14  and  C_16
REMARK    7  A    between atoms: C_24  and  C_26
REMARK                            x       y       z     vdW  Elec       q    Type
REMARK                         _______ _______ _______ _____ _____    ______ ____
ROOT
ATOM      1  C   UNL     1       1.253   3.595  -0.349  0.00  0.00    +0.177 A 
ATOM      2  C   UNL     1       2.551   4.247  -0.009  0.00  0.00    +0.030 A 
ATOM      3  C   UNL     1       3.785   3.652   0.003  0.00  0.00    +0.058 A 
ATOM      4  S   UNL     1       4.884   4.961   0.486  0.00  0.00    -0.080 S 
ATOM      5  C   UNL     1       3.750   6.252   0.656  0.00  0.00    +0.085 A 
ATOM      6  C   UNL     1       2.519   5.668   0.347  0.00  0.00    +0.079 A 
ATOM      7  C   UNL     1       1.242   6.318   0.349  0.00  0.00    +0.282 A 
ATOM      8  O   UNL     1       1.165   7.498   0.642  0.00  0.00    -0.265 OA
ATOM      9  N   UNL     1       0.131   5.639   0.032  0.00  0.00    -0.195 N 
ATOM     10  N   UNL     1       0.149   4.290  -0.313  0.00  0.00    -0.156 NA
ENDROOT
BRANCH   9  11
ATOM     11  C   UNL     1      -1.095   6.313   0.047  0.00  0.00    +0.069 A 
ATOM     12  C   UNL     1      -1.453   7.082   1.147  0.00  0.00    +0.031 A 
ATOM     13  C   UNL     1      -2.662   7.750   1.158  0.00  0.00    +0.040 A 
ATOM     14  C   UNL     1      -3.522   7.644   0.077  0.00  0.00    +0.124 A 
ATOM     15  C   UNL     1      -3.170   6.874  -1.018  0.00  0.00    +0.040 A 
ATOM     16  C   UNL     1      -1.960   6.209  -1.036  0.00  0.00    +0.031 A 
ATOM     17  F   UNL     1      -4.706   8.294   0.092  0.00  0.00    -0.205 F 
ENDBRANCH   9  11
BRANCH   5  18
ATOM     18  N   UNL     1       4.001   7.564   1.026  0.00  0.00    -0.273 N 
ATOM     19  C   UNL     1       5.262   7.960   1.291  0.00  0.00    +0.284 C 
ATOM     20  O   UNL     1       6.180   7.165   1.206  0.00  0.00    -0.266 OA
ATOM     21  H   UNL     1       3.270   8.198   1.094  0.00  0.00    +0.156 HD
BRANCH  19  22
ATOM     22  C   UNL     1       5.528   9.347   1.682  0.00  0.00    +0.191 A 
ATOM     23  C   UNL     1       6.751   9.876   1.982  0.00  0.00    +0.056 A 
ATOM     24  C   UNL     1       6.541  11.227   2.296  0.00  0.00    +0.058 A 
ATOM     25  C   UNL     1       5.213  11.459   2.185  0.00  0.00    +0.171 A 
ATOM     26  O   UNL     1       4.606  10.324   1.815  0.00  0.00    -0.444 OA
ATOM     27 BR   UNL     1       4.354  13.115   2.499  0.00  0.00    -0.008 Br
ENDBRANCH  19  22
ENDBRANCH   5  18
BRANCH   1  28
ATOM     28  C   UNL     1       1.217   2.169  -0.719  0.00  0.00    +0.360 C 
ATOM     29  O   UNL     1       2.246   1.523  -0.753  0.00  0.00    -0.243 OA
BRANCH  28  30
ATOM     30  O   UNL     1       0.042   1.580  -1.021  0.00  0.00    -0.460 OA
BRANCH  30  32
ATOM     31  C   UNL     1      -1.335  -0.316  -1.684  0.00  0.00    +0.048 C 
ATOM     32  C   UNL     1       0.082   0.173  -1.377  0.00  0.00    +0.229 C 
ENDBRANCH  30  32
ENDBRANCH  28  30
ENDBRANCH   1  28
TORSDOF 6
