REMARK  Name = ZINC19437709
REMARK  2 active torsions:
REMARK  status: ('A' for Active; 'I' for Inactive)
REMARK    1  A    between atoms: N_8  and  C_11
REMARK    2  A    between atoms: C_11  and  C_12
REMARK                            x       y       z     vdW  Elec       q    Type
REMARK                         _______ _______ _______ _____ _____    ______ ____
ROOT
ATOM      1  C   UNL     1       2.800   6.032  -6.764  0.00  0.00    +0.005 A 
ATOM      2  C   UNL     1       3.016   4.790  -7.396  0.00  0.00    +0.018 A 
ATOM      3  C   UNL     1       2.385   3.684  -6.965  0.00  0.00    +0.098 A 
ATOM      4  N   UNL     1       1.517   3.741  -5.901  0.00  0.00    -0.251 N 
ATOM      5  C   UNL     1       1.286   4.945  -5.262  0.00  0.00    +0.162 A 
ATOM      6  C   UNL     1       1.949   6.115  -5.713  0.00  0.00    +0.049 A 
ATOM      7  N   UNL     1       0.425   4.742  -4.292  0.00  0.00    -0.148 NA
ATOM      8  N   UNL     1       0.093   3.380  -4.290  0.00  0.00    -0.203 N 
ATOM      9  C   UNL     1       0.777   2.792  -5.292  0.00  0.00    +0.351 A 
ATOM     10  O   UNL     1       0.735   1.612  -5.594  0.00  0.00    -0.244 OA
ENDROOT
BRANCH   8  11
ATOM     11  C   UNL     1      -0.835   2.717  -3.370  0.00  0.00    +0.244 C 
BRANCH  11  12
ATOM     12  C   UNL     1      -0.079   2.223  -2.164  0.00  0.00    +0.237 C 
ATOM     13  O   UNL     1       1.117   2.406  -2.081  0.00  0.00    -0.274 OA
ATOM     14  N   UNL     1      -0.732   1.577  -1.178  0.00  0.00    -0.298 N 
ATOM     15  C   UNL     1      -0.013   1.086   0.008  0.00  0.00    +0.123 C 
ATOM     16  C   UNL     1      -0.738   1.584   1.263  0.00  0.00    +0.100 C 
ATOM     17  N   UNL     1      -2.157   1.195   1.186  0.00  0.00    -0.313 NA
ATOM     18  C   UNL     1      -2.826   1.832   0.044  0.00  0.00    +0.100 C 
ATOM     19  C   UNL     1      -2.182   1.344  -1.258  0.00  0.00    +0.123 C 
ATOM     20  H   UNL     1      -2.232   0.104   1.071  0.00  0.00    +0.122 HD
ENDBRANCH  11  12
ENDBRANCH   8  11
TORSDOF 2
