REMARK  Name = ZINC03899805
REMARK  5 active torsions:
REMARK  status: ('A' for Active; 'I' for Inactive)
REMARK    1  A    between atoms: C_1  and  N_2
REMARK    2  A    between atoms: C_10  and  C_11
REMARK    3  A    between atoms: C_11  and  C_20
REMARK    4  A    between atoms: C_12  and  C_13
REMARK    5  A    between atoms: C_16  and  O_19
REMARK                            x       y       z     vdW  Elec       q    Type
REMARK                         _______ _______ _______ _____ _____    ______ ____
ROOT
ATOM      1  C   UNL     1       0.053  -0.365   2.500  0.00  0.00    +0.095 C 
ATOM      2  C   UNL     1       0.053  -1.275   3.518  0.00  0.00    +0.030 C 
ENDROOT
BRANCH   1  12
ATOM      3  C   UNL     1      -0.015   1.462   0.011  0.00  0.00    +0.151 C 
ATOM      4  N   UNL     1      -0.257   0.017   0.023  0.00  0.00    -0.326 N 
ATOM      5  C   UNL     1      -0.550  -0.775  -1.071  0.00  0.00    +0.069 A 
ATOM      6  C   UNL     1      -0.706  -0.524  -2.427  0.00  0.00    +0.028 A 
ATOM      7  C   UNL     1      -1.006  -1.562  -3.284  0.00  0.00    +0.002 A 
ATOM      8  C   UNL     1      -1.153  -2.855  -2.800  0.00  0.00    +0.002 A 
ATOM      9  C   UNL     1      -1.003  -3.121  -1.469  0.00  0.00    +0.030 A 
ATOM     10  C   UNL     1      -0.698  -2.085  -0.580  0.00  0.00    +0.090 A 
ATOM     11  N   UNL     1      -0.495  -2.037   0.759  0.00  0.00    -0.227 NA
ATOM     12  C   UNL     1      -0.229  -0.803   1.121  0.00  0.00    +0.152 A 
ENDBRANCH   1  12
BRANCH   2  13
ATOM     13  C   UNL     1       0.171  -0.821   4.907  0.00  0.00    -0.023 A 
ATOM     14  C   UNL     1       0.898  -1.577   5.835  0.00  0.00    +0.011 A 
ATOM     15  C   UNL     1       1.005  -1.146   7.138  0.00  0.00    +0.046 A 
ATOM     16  C   UNL     1       0.394   0.039   7.533  0.00  0.00    +0.117 A 
ATOM     17  C   UNL     1      -0.329   0.795   6.616  0.00  0.00    +0.046 A 
ATOM     18  C   UNL     1      -0.438   0.376   5.309  0.00  0.00    +0.011 A 
BRANCH  16  19
ATOM     19  O   UNL     1       0.503   0.460   8.819  0.00  0.00    -0.507 OA
ATOM     20  H   UNL     1       1.267   1.030   8.983  0.00  0.00    +0.292 HD
ENDBRANCH  16  19
ENDBRANCH   2  13
BRANCH   1  21
ATOM     21  C   UNL     1       0.326   1.014   2.772  0.00  0.00    +0.103 C 
ATOM     22  N   UNL     1       0.542   2.108   2.987  0.00  0.00    -0.191 NA
ENDBRANCH   1  21
TORSDOF 4
