REMARK  Name = ZINC05936354
REMARK  4 active torsions:
REMARK  status: ('A' for Active; 'I' for Inactive)
REMARK    1  A    between atoms: C_2  and  C_18
REMARK    2  A    between atoms: C_4  and  N_17
REMARK    3  A    between atoms: C_5  and  C_14
REMARK    4  A    between atoms: C_9  and  C_10
REMARK                            x       y       z     vdW  Elec       q    Type
REMARK                         _______ _______ _______ _____ _____    ______ ____
ROOT
ATOM      1  C   UNL     1      -2.459   0.299   0.442  0.00  0.00    +0.037 A 
ATOM      2  C   UNL     1      -1.401  -0.555   0.234  0.00  0.00    -0.028 A 
ATOM      3  C   UNL     1      -1.662  -1.928   0.003  0.00  0.00    +0.033 A 
ATOM      4  C   UNL     1      -0.713  -3.006  -0.232  0.00  0.00    +0.054 A 
ATOM      5  C   UNL     1      -1.204  -4.278  -0.427  0.00  0.00    +0.097 A 
ATOM      6  S   UNL     1      -2.968  -4.064  -0.292  0.00  0.00    -0.062 S 
ATOM      7  C   UNL     1      -3.021  -2.317   0.016  0.00  0.00    +0.112 A 
ATOM      8  N   UNL     1      -3.999  -1.461   0.220  0.00  0.00    -0.235 NA
ATOM      9  C   UNL     1      -3.760  -0.181   0.430  0.00  0.00    +0.145 A 
ENDROOT
BRANCH   2  10
ATOM     10  C   UNL     1       0.014  -0.036   0.246  0.00  0.00    -0.003 C 
ATOM     11  C   UNL     1       0.002   1.471   0.509  0.00  0.00    +0.015 C 
ATOM     12  C   UNL     1       1.439   1.998   0.521  0.00  0.00    -0.010 C 
ATOM     13  C   UNL     1       2.231   1.293   1.624  0.00  0.00    +0.007 C 
ATOM     14  C   UNL     1       2.242  -0.214   1.361  0.00  0.00    -0.010 C 
ATOM     15  C   UNL     1       0.806  -0.740   1.349  0.00  0.00    +0.015 C 
ATOM     16  C   UNL     1       2.898  -0.490   0.006  0.00  0.00    +0.007 C 
ATOM     17  C   UNL     1       2.106   0.215  -1.097  0.00  0.00    -0.010 C 
ATOM     18  C   UNL     1       2.094   1.722  -0.833  0.00  0.00    +0.007 C 
ATOM     19  C   UNL     1       0.669  -0.312  -1.109  0.00  0.00    +0.015 C 
ENDBRANCH   2  10
BRANCH   5  20
ATOM     20  C   UNL     1      -0.480  -5.470  -0.676  0.00  0.00    +0.250 C 
ATOM     21  O   UNL     1       0.736  -5.443  -0.739  0.00  0.00    -0.270 OA
ATOM     22  N   UNL     1      -1.137  -6.635  -0.843  0.00  0.00    -0.325 N 
ATOM     23  H   UNL     1      -2.105  -6.657  -0.793  0.00  0.00    +0.145 HD
ATOM     24  H   UNL     1      -0.641  -7.452  -1.013  0.00  0.00    +0.145 HD
ENDBRANCH   5  20
BRANCH   9  25
ATOM     25  C   UNL     1      -4.910   0.767   0.659  0.00  0.00    +0.434 C 
ATOM     26  F   UNL     1      -5.337   1.286  -0.568  0.00  0.00    -0.164 F 
ATOM     27  F   UNL     1      -5.966   0.081   1.268  0.00  0.00    -0.164 F 
ATOM     28  F   UNL     1      -4.493   1.813   1.489  0.00  0.00    -0.164 F 
ENDBRANCH   9  25
BRANCH   4  29
ATOM     29  N   UNL     1       0.652  -2.757  -0.265  0.00  0.00    -0.356 N 
ATOM     30  H   UNL     1       1.273  -3.485  -0.426  0.00  0.00    +0.142 HD
ATOM     31  H   UNL     1       0.985  -1.857  -0.126  0.00  0.00    +0.142 HD
ENDBRANCH   4  29
TORSDOF 4
