REMARK  Name = ZINC17245853
REMARK  11 active torsions:
REMARK  status: ('A' for Active; 'I' for Inactive)
REMARK    1  A    between atoms: C_1  and  C_2
REMARK    2  A    between atoms: C_2  and  C_3
REMARK    3  A    between atoms: C_2  and  C_4
REMARK    4  A    between atoms: C_4  and  O_5
REMARK    5  A    between atoms: O_5  and  C_6
REMARK    6  A    between atoms: C_10  and  C_12
REMARK    7  A    between atoms: N_14  and  C_15
REMARK    8  A    between atoms: C_15  and  N_17
REMARK    9  A    between atoms: C_20  and  C_23
REMARK   10  A    between atoms: C_26  and  O_30
REMARK   11  A    between atoms: O_30  and  C_31
REMARK                            x       y       z     vdW  Elec       q    Type
REMARK                         _______ _______ _______ _____ _____    ______ ____
ROOT
ATOM      1  C   UNL     1      -5.239  -8.048  -0.480  0.00  0.00    +0.163 C 
ATOM      2  S   UNL     1      -3.799  -8.963  -0.608  0.00  0.00    -0.016 S 
ENDROOT
BRANCH   1   3
ATOM      3  N   UNL     1      -6.424  -8.664  -0.482  0.00  0.00    -0.169 NA
ATOM      4  C   UNL     1      -6.491  -9.976  -0.690  0.00  0.00    +0.162 A 
ATOM      5  N   UNL     1      -7.602 -10.752  -0.829  0.00  0.00    -0.335 N 
ATOM      6  C   UNL     1      -7.444 -12.094  -1.038  0.00  0.00    +0.055 A 
ATOM      7  C   UNL     1      -6.177 -12.558  -1.093  0.00  0.00    +0.074 A 
ATOM      8  S   UNL     1      -5.226 -11.070  -0.851  0.00  0.00    -0.060 S 
ATOM      9  H   UNL     1      -8.488 -10.360  -0.780  0.00  0.00    +0.168 HD
BRANCH   6  10
ATOM     10  C   UNL     1      -8.607 -12.995  -1.197  0.00  0.00    +0.000 A 
ATOM     11  C   UNL     1      -9.903 -12.481  -1.141  0.00  0.00    +0.013 A 
ATOM     12  C   UNL     1     -10.985 -13.324  -1.289  0.00  0.00    +0.047 A 
ATOM     13  C   UNL     1     -10.786 -14.682  -1.494  0.00  0.00    +0.134 A 
ATOM     14  C   UNL     1      -9.497 -15.198  -1.551  0.00  0.00    +0.060 A 
ATOM     15  C   UNL     1      -8.410 -14.360  -1.410  0.00  0.00    +0.029 A 
ATOM     16 BR   UNL     1      -9.233 -17.050  -1.830  0.00  0.00    -0.046 Br
BRANCH  13  17
ATOM     17  O   UNL     1     -11.854 -15.510  -1.639  0.00  0.00    -0.494 OA
ATOM     18  C   UNL     1     -13.151 -14.913  -1.570  0.00  0.00    +0.277 C 
ENDBRANCH  13  17
ENDBRANCH   6  10
ENDBRANCH   1   3
BRANCH   1  21
ATOM     19  C   UNL     1      -3.982  -6.083  -0.376  0.00  0.00    +0.250 C 
ATOM     20  O   UNL     1      -2.959  -6.733  -0.467  0.00  0.00    -0.270 OA
ATOM     21  N   UNL     1      -5.178  -6.705  -0.378  0.00  0.00    -0.262 N 
ATOM     22  H   UNL     1      -5.995  -6.186  -0.305  0.00  0.00    +0.157 HD
BRANCH  19  27
ATOM     23  C   UNL     1      -2.623  -2.586  -0.155  0.00  0.00    +0.121 A 
ATOM     24  C   UNL     1      -3.796  -1.849  -0.052  0.00  0.00    +0.046 A 
ATOM     25  C   UNL     1      -5.022  -2.488  -0.054  0.00  0.00    +0.004 A 
ATOM     26  C   UNL     1      -5.088  -3.862  -0.159  0.00  0.00    +0.013 A 
ATOM     27  C   UNL     1      -3.915  -4.611  -0.263  0.00  0.00    +0.041 A 
ATOM     28  C   UNL     1      -2.678  -3.965  -0.267  0.00  0.00    +0.058 A 
BRANCH  23  29
ATOM     29  O   UNL     1      -1.421  -1.952  -0.153  0.00  0.00    -0.492 OA
BRANCH  29  30
ATOM     30  C   UNL     1      -1.438  -0.528  -0.035  0.00  0.00    +0.232 C 
BRANCH  30  32
ATOM     31  C   UNL     1      -0.024   1.532  -0.049  0.00  0.00    +0.010 C 
ATOM     32  C   UNL     1      -0.003   0.002  -0.050  0.00  0.00    +0.020 C 
ATOM     33  C   UNL     1       0.739  -0.498   1.191  0.00  0.00    +0.010 C 
ENDBRANCH  30  32
ENDBRANCH  29  30
ENDBRANCH  23  29
ENDBRANCH  19  27
ENDBRANCH   1  21
TORSDOF 8
