REMARK  Name = ZINC59170484
REMARK  9 active torsions:
REMARK  status: ('A' for Active; 'I' for Inactive)
REMARK    1  A    between atoms: C_1  and  C_2
REMARK    2  A    between atoms: C_5  and  S_8
REMARK    3  A    between atoms: S_8  and  N_11
REMARK    4  A    between atoms: N_11  and  N_12
REMARK    5  A    between atoms: C_14  and  C_26
REMARK    6  A    between atoms: C_18  and  N_23
REMARK    7  A    between atoms: N_28  and  C_29
REMARK    8  A    between atoms: C_32  and  C_36
REMARK    9  A    between atoms: C_33  and  C_35
REMARK                            x       y       z     vdW  Elec       q    Type
REMARK                         _______ _______ _______ _____ _____    ______ ____
ROOT
ATOM      1  N   UNL     1       2.333  -3.843   0.158  0.00  0.00    -0.260 N 
ATOM      2  C   UNL     1       3.489  -4.565   0.217  0.00  0.00    +0.225 A 
ATOM      3  C   UNL     1       4.227  -4.565   1.400  0.00  0.00    +0.099 A 
ATOM      4  C   UNL     1       5.426  -5.302   1.484  0.00  0.00    +0.030 A 
ATOM      5  C   UNL     1       5.838  -6.021   0.354  0.00  0.00    +0.020 A 
ATOM      6  C   UNL     1       7.020  -6.785   0.350  0.00  0.00    +0.044 A 
ATOM      7  C   UNL     1       7.373  -7.465  -0.775  0.00  0.00    +0.127 A 
ATOM      8  C   UNL     1       6.588  -7.421  -1.925  0.00  0.00    +0.036 A 
ATOM      9  C   UNL     1       5.424  -6.691  -1.976  0.00  0.00    +0.049 A 
ATOM     10  C   UNL     1       5.011  -5.975  -0.855  0.00  0.00    +0.138 A 
ATOM     11  O   UNL     1       3.879  -5.255  -0.860  0.00  0.00    -0.437 OA
ATOM     12  H   UNL     1       1.997  -3.399   0.952  0.00  0.00    +0.189 HD
ENDROOT
BRANCH   3  13
ATOM     13  C   UNL     1       3.751  -3.789   2.569  0.00  0.00    +0.253 C 
ATOM     14  O   UNL     1       2.887  -4.246   3.291  0.00  0.00    -0.270 OA
ATOM     15  N   UNL     1       4.276  -2.576   2.831  0.00  0.00    -0.281 N 
ATOM     16  H   UNL     1       4.898  -2.171   2.206  0.00  0.00    +0.155 HD
BRANCH  15  17
ATOM     17  C   UNL     1       3.926  -1.902   4.005  0.00  0.00    +0.034 A 
ATOM     18  C   UNL     1       3.646  -2.618   5.162  0.00  0.00    +0.023 A 
ATOM     19  C   UNL     1       3.300  -1.948   6.319  0.00  0.00    +0.005 A 
ATOM     20  C   UNL     1       3.232  -0.567   6.327  0.00  0.00    -0.047 A 
ATOM     21  C   UNL     1       3.510   0.149   5.177  0.00  0.00    -0.046 A 
ATOM     22  C   UNL     1       3.862  -0.514   4.017  0.00  0.00    +0.027 A 
ATOM     23  C   UNL     1       3.434   1.654   5.190  0.00  0.00    +0.044 C 
ATOM     24  C   UNL     1       2.853   0.160   7.592  0.00  0.00    +0.044 C 
ENDBRANCH  15  17
ENDBRANCH   3  13
BRANCH   7  25
ATOM     25  N   UNL     1       8.617  -8.267  -0.777  0.00  0.00    +0.056 N 
ATOM     26  O   UNL     1       9.370  -8.317   0.303  0.00  0.00    -0.126 OA
ATOM     27  O   UNL     1       8.972  -8.930  -1.858  0.00  0.00    -0.126 OA
ENDBRANCH   7  25
BRANCH   1  28
ATOM     28  N   UNL     1       1.685  -3.752  -0.954  0.00  0.00    -0.157 N 
ATOM     29  H   UNL     1       1.979  -4.256  -1.729  0.00  0.00    +0.194 HD
BRANCH  28  30
ATOM     30  S   UNL     1       0.352  -2.776  -1.058  0.00  0.00    +0.085 S 
ATOM     31  O   UNL     1      -0.572  -3.245  -0.086  0.00  0.00    -0.149 OA
ATOM     32  O   UNL     1       0.024  -2.682  -2.438  0.00  0.00    -0.149 OA
BRANCH  30  37
ATOM     33  C   UNL     1       2.040   2.746   0.692  0.00  0.00    +0.044 C 
ATOM     34  C   UNL     1       1.619   1.367   0.255  0.00  0.00    -0.050 A 
ATOM     35  C   UNL     1       1.812   0.968  -1.054  0.00  0.00    +0.005 A 
ATOM     36  C   UNL     1       1.425  -0.297  -1.456  0.00  0.00    +0.029 A 
ATOM     37  C   UNL     1       0.846  -1.163  -0.547  0.00  0.00    +0.110 A 
ATOM     38  C   UNL     1       0.654  -0.764   0.762  0.00  0.00    +0.029 A 
ATOM     39  C   UNL     1       1.044   0.499   1.165  0.00  0.00    +0.005 A 
ENDBRANCH  30  37
ENDBRANCH  28  30
ENDBRANCH   1  28
TORSDOF 6
