REMARK  Name = ZINC62004759
REMARK  9 active torsions:
REMARK  status: ('A' for Active; 'I' for Inactive)
REMARK    1  A    between atoms: C_1  and  C_2
REMARK    2  A    between atoms: C_4  and  N_11
REMARK    3  A    between atoms: C_7  and  N_8
REMARK    4  A    between atoms: N_8  and  C_9
REMARK    5  A    between atoms: N_8  and  C_10
REMARK    6  A    between atoms: C_12  and  C_14
REMARK    7  A    between atoms: N_16  and  C_17
REMARK    8  A    between atoms: C_17  and  C_18
REMARK    9  A    between atoms: C_17  and  C_19
REMARK                            x       y       z     vdW  Elec       q    Type
REMARK                         _______ _______ _______ _____ _____    ______ ____
ROOT
ATOM      1  C   UNL     1       0.264  -4.841  -3.728  0.00  0.00    +0.300 C 
ATOM      2  O   UNL     1       0.250  -4.226  -4.774  0.00  0.00    -0.265 OA
ATOM      3  N   UNL     1       0.384  -6.184  -3.738  0.00  0.00    -0.301 N 
ATOM      4  H   UNL     1       0.395  -6.676  -2.902  0.00  0.00    +0.150 HD
ENDROOT
BRANCH   1   6
ATOM      5  N   UNL     1       0.028  -2.769  -2.420  0.00  0.00    -0.278 N 
ATOM      6  C   UNL     1       0.148  -4.112  -2.430  0.00  0.00    +0.303 C 
ATOM      7  O   UNL     1       0.162  -4.728  -1.384  0.00  0.00    -0.265 OA
ATOM      8  H   UNL     1      -0.060  -2.284  -3.255  0.00  0.00    +0.155 HD
BRANCH   5  12
ATOM      9  C   UNL     1       1.625  -2.360   2.210  0.00  0.00    +0.046 C 
ATOM     10  C   UNL     1       0.797  -1.856   1.057  0.00  0.00    -0.028 A 
ATOM     11  C   UNL     1       0.794  -2.541  -0.142  0.00  0.00    +0.028 A 
ATOM     12  C   UNL     1       0.030  -2.076  -1.205  0.00  0.00    +0.034 A 
ATOM     13  C   UNL     1      -0.731  -0.922  -1.062  0.00  0.00    +0.025 A 
ATOM     14  C   UNL     1      -0.728  -0.238   0.136  0.00  0.00    +0.025 A 
ATOM     15  C   UNL     1       0.032  -0.706   1.202  0.00  0.00    +0.032 A 
BRANCH  15  16
ATOM     16  N   UNL     1       0.030  -0.016   2.418  0.00  0.00    -0.336 N 
ATOM     17  C   UNL     1      -0.950  -0.356   3.452  0.00  0.00    +0.129 C 
ATOM     18  C   UNL     1       1.009   1.047   2.658  0.00  0.00    +0.129 C 
ENDBRANCH  15  16
ENDBRANCH   5  12
ENDBRANCH   1   6
BRANCH   3  19
ATOM     19  C   UNL     1       0.497  -6.899  -5.011  0.00  0.00    +0.101 C 
ATOM     20  C   UNL     1      -0.901  -7.167  -5.573  0.00  0.00    +0.033 C 
BRANCH  19  21
ATOM     21  C   UNL     1       1.208  -8.209  -4.790  0.00  0.00    -0.024 A 
ATOM     22  C   UNL     1       0.931  -8.963  -3.664  0.00  0.00    +0.009 A 
ATOM     23  C   UNL     1       1.581 -10.165  -3.456  0.00  0.00    +0.050 A 
ATOM     24  C   UNL     1       2.512 -10.618  -4.376  0.00  0.00    +0.166 A 
ATOM     25  C   UNL     1       2.791  -9.860  -5.511  0.00  0.00    +0.167 A 
ATOM     26  C   UNL     1       2.132  -8.658  -5.715  0.00  0.00    +0.055 A 
ATOM     27  O   UNL     1       3.732 -10.514  -6.252  0.00  0.00    -0.453 OA
ATOM     28  C   UNL     1       4.323 -11.477  -5.360  0.00  0.00    +0.466 C 
ATOM     29  O   UNL     1       3.278 -11.748  -4.408  0.00  0.00    -0.453 OA
ENDBRANCH  19  21
ENDBRANCH   3  19
TORSDOF 5
