REMARK  Name = ZINC39945703
REMARK  11 active torsions:
REMARK  status: ('A' for Active; 'I' for Inactive)
REMARK    1  A    between atoms: C_1  and  C_2
REMARK    2  A    between atoms: C_2  and  C_3
REMARK    3  A    between atoms: C_3  and  C_4
REMARK    4  A    between atoms: C_4  and  C_5
REMARK    5  A    between atoms: C_5  and  C_6
REMARK    6  A    between atoms: C_6  and  N_7
REMARK    7  A    between atoms: C_8  and  S_22
REMARK    8  A    between atoms: C_12  and  C_13
REMARK    9  A    between atoms: S_22  and  C_23
REMARK   10  A    between atoms: C_23  and  C_24
REMARK   11  A    between atoms: C_24  and  C_26
REMARK                            x       y       z     vdW  Elec       q    Type
REMARK                         _______ _______ _______ _____ _____    ______ ____
ROOT
ATOM      1  N   UNL     1       2.232  -4.563   3.651  0.00  0.00    -0.286 N 
ATOM      2  C   UNL     1       3.675  -4.832   3.766  0.00  0.00    +0.237 C 
ATOM      3  N   UNL     1       3.849  -5.292   5.154  0.00  0.00    -0.237 N 
ATOM      4  N   UNL     1       2.578  -5.271   5.742  0.00  0.00    -0.169 NA
ATOM      5  C   UNL     1       1.671  -4.855   4.897  0.00  0.00    +0.147 C 
ATOM      6  H   UNL     1       4.679  -5.559   5.577  0.00  0.00    +0.171 HD
ENDROOT
BRANCH   5   7
ATOM      7  C   UNL     1       0.308  -4.723   5.202  0.00  0.00    +0.022 C 
ATOM      8  C   UNL     1      -0.313  -4.991   6.422  0.00  0.00    +0.006 A 
ATOM      9  C   UNL     1       0.180  -5.449   7.663  0.00  0.00    +0.010 A 
ATOM     10  C   UNL     1      -0.674  -5.625   8.704  0.00  0.00    +0.001 A 
ATOM     11  C   UNL     1      -2.040  -5.362   8.581  0.00  0.00    +0.002 A 
ATOM     12  C   UNL     1      -2.582  -4.920   7.420  0.00  0.00    +0.026 A 
ATOM     13  C   UNL     1      -1.752  -4.712   6.288  0.00  0.00    +0.043 A 
ATOM     14  N   UNL     1      -2.029  -4.296   5.068  0.00  0.00    -0.380 N 
ATOM     15  C   UNL     1      -0.794  -4.253   4.279  0.00  0.00    +0.152 C 
ATOM     16  H   UNL     1      -2.911  -4.052   4.744  0.00  0.00    +0.160 HD
ENDBRANCH   5   7
BRANCH   1  17
ATOM     17  C   UNL     1       1.524  -4.077   2.464  0.00  0.00    +0.109 C 
BRANCH  17  18
ATOM     18  C   UNL     1       1.503  -2.548   2.473  0.00  0.00    +0.019 C 
BRANCH  18  19
ATOM     19  C   UNL     1       0.763  -2.041   1.233  0.00  0.00    +0.002 C 
BRANCH  19  20
ATOM     20  C   UNL     1       0.742  -0.511   1.242  0.00  0.00    -0.000 C 
BRANCH  20  22
ATOM     21  C   UNL     1      -0.019   1.526   0.010  0.00  0.00    +0.004 C 
ATOM     22  C   UNL     1       0.002  -0.004   0.002  0.00  0.00    -0.003 C 
ENDBRANCH  20  22
ENDBRANCH  19  20
ENDBRANCH  18  19
ENDBRANCH  17  18
ENDBRANCH   1  17
BRANCH   2  23
ATOM     23  S   UNL     1       4.174  -6.126   2.597  0.00  0.00    -0.110 S 
BRANCH  23  24
ATOM     24  C   UNL     1       3.183  -7.564   3.085  0.00  0.00    +0.147 C 
BRANCH  24  25
ATOM     25  C   UNL     1       3.505  -8.726   2.181  0.00  0.00    +0.149 C 
ATOM     26  O   UNL     1       4.320  -8.597   1.299  0.00  0.00    -0.296 OA
BRANCH  25  27
ATOM     27  C   UNL     1       2.811 -10.049   2.378  0.00  0.00    +0.031 C 
ATOM     28  C   UNL     1       1.301  -9.862   2.216  0.00  0.00    +0.018 C 
ATOM     29  C   UNL     1       0.596 -11.205   2.416  0.00  0.00    -0.010 C 
ATOM     30  C   UNL     1       1.101 -12.206   1.375  0.00  0.00    +0.007 C 
ATOM     31  C   UNL     1       2.611 -12.393   1.538  0.00  0.00    -0.010 C 
ATOM     32  C   UNL     1       3.316 -11.050   1.337  0.00  0.00    +0.018 C 
ATOM     33  C   UNL     1       2.911 -12.923   2.941  0.00  0.00    +0.007 C 
ATOM     34  C   UNL     1       2.406 -11.922   3.982  0.00  0.00    -0.010 C 
ATOM     35  C   UNL     1       0.897 -11.735   3.820  0.00  0.00    +0.007 C 
ATOM     36  C   UNL     1       3.111 -10.579   3.782  0.00  0.00    +0.018 C 
ENDBRANCH  25  27
ENDBRANCH  24  25
ENDBRANCH  23  24
ENDBRANCH   2  23
TORSDOF 10
