REMARK  Name = ZINC66956528
REMARK  6 active torsions:
REMARK  status: ('A' for Active; 'I' for Inactive)
REMARK    1  A    between atoms: C_1  and  N_2
REMARK    2  A    between atoms: C_5  and  C_8
REMARK    3  A    between atoms: C_8  and  C_9
REMARK    4  A    between atoms: C_9  and  N_10
REMARK    5  A    between atoms: N_13  and  C_14
REMARK    6  A    between atoms: C_17  and  C_20
REMARK                            x       y       z     vdW  Elec       q    Type
REMARK                         _______ _______ _______ _____ _____    ______ ____
ROOT
ATOM      1  N   UNL     1       1.875  -6.133   1.165  0.00  0.00    -0.299 N 
ATOM      2  C   UNL     1       2.514  -6.863   2.100  0.00  0.00    +0.304 C 
ATOM      3  O   UNL     1       3.143  -6.309   2.980  0.00  0.00    -0.253 OA
ATOM      4  N   UNL     1       2.455  -8.209   2.060  0.00  0.00    -0.269 N 
ATOM      5  H   UNL     1       1.373  -6.575   0.463  0.00  0.00    +0.150 HD
ATOM      6  H   UNL     1       1.899  -8.651   1.398  0.00  0.00    +0.156 HD
ENDROOT
BRANCH   4   7
ATOM      7  C   UNL     1       3.194  -8.969   2.971  0.00  0.00    +0.035 A 
ATOM      8  C   UNL     1       3.369  -8.514   4.273  0.00  0.00    +0.024 A 
ATOM      9  C   UNL     1       4.098  -9.260   5.173  0.00  0.00    +0.013 A 
ATOM     10  C   UNL     1       4.660 -10.475   4.777  0.00  0.00    +0.019 A 
ATOM     11  C   UNL     1       4.483 -10.929   3.469  0.00  0.00    +0.013 A 
ATOM     12  C   UNL     1       3.749 -10.181   2.575  0.00  0.00    +0.024 A 
BRANCH  10  13
ATOM     13  C   UNL     1       5.443 -11.277   5.741  0.00  0.00    +0.164 A 
ATOM     14  N   UNL     1       6.283 -12.252   5.453  0.00  0.00    -0.129 NA
ATOM     15  N   UNL     1       6.788 -12.728   6.540  0.00  0.00    -0.134 NA
ATOM     16  C   UNL     1       6.306 -12.093   7.566  0.00  0.00    +0.134 A 
ATOM     17  N   UNL     1       5.441 -11.150   7.095  0.00  0.00    -0.311 N 
ATOM     18  C   UNL     1       4.685 -10.218   7.931  0.00  0.00    +0.125 C 
ATOM     19  C   UNL     1       4.691 -10.737   9.374  0.00  0.00    +0.022 C 
ATOM     20  C   UNL     1       6.126 -11.063   9.797  0.00  0.00    +0.009 C 
ATOM     21  C   UNL     1       6.608 -12.303   9.028  0.00  0.00    +0.076 C 
ENDBRANCH  10  13
ENDBRANCH   4   7
BRANCH   1  22
ATOM     22  C   UNL     1       1.939  -4.670   1.209  0.00  0.00    +0.106 C 
BRANCH  22  23
ATOM     23  C   UNL     1       1.135  -4.089   0.044  0.00  0.00    +0.022 C 
BRANCH  23  28
ATOM     24  C   UNL     1      -0.273   1.435   0.203  0.00  0.00    -0.096 C 
ATOM     25  N   UNL     1      -0.209  -0.032   0.160  0.00  0.00    +0.378 N 
ATOM     26  C   UNL     1       0.505  -0.453  -1.052  0.00  0.00    -0.079 C 
ATOM     27  C   UNL     1       0.504  -1.980  -1.143  0.00  0.00    -0.015 C 
ATOM     28  C   UNL     1       1.202  -2.561   0.090  0.00  0.00    -0.013 C 
ATOM     29  C   UNL     1       0.494  -2.055   1.350  0.00  0.00    -0.015 C 
ATOM     30  C   UNL     1       0.495  -0.525   1.350  0.00  0.00    -0.079 C 
ATOM     31  H   UNL     1      -1.145  -0.408   0.144  0.00  0.00    -0.082 HD
ENDBRANCH  23  28
ENDBRANCH  22  23
ENDBRANCH   1  22
TORSDOF 5
