REMARK  Name = ZINC38984500
REMARK  8 active torsions:
REMARK  status: ('A' for Active; 'I' for Inactive)
REMARK    1  A    between atoms: C_1  and  O_2
REMARK    2  A    between atoms: O_2  and  C_3
REMARK    3  A    between atoms: C_6  and  N_11
REMARK    4  A    between atoms: C_7  and  O_9
REMARK    5  A    between atoms: O_9  and  C_10
REMARK    6  A    between atoms: N_11  and  C_12
REMARK    7  A    between atoms: N_15  and  S_16
REMARK    8  A    between atoms: S_16  and  C_19
REMARK                            x       y       z     vdW  Elec       q    Type
REMARK                         _______ _______ _______ _____ _____    ______ ____
ROOT
ATOM      1  C   UNL     1      -6.133  -1.796   0.157  0.00  0.00    +0.235 C 
ATOM      2  C   UNL     1      -6.919  -2.354   1.322  0.00  0.00    +0.170 C 
ATOM      3  N   UNL     1      -6.395  -2.397   2.512  0.00  0.00    -0.111 NA
ATOM      4  N   UNL     1      -8.165  -2.805   1.111  0.00  0.00    -0.338 N 
ATOM      5  C   UNL     1      -8.718  -2.772  -0.084  0.00  0.00    +0.064 A 
ATOM      6  C   UNL     1     -10.037  -3.257  -0.271  0.00  0.00    +0.028 A 
ATOM      7  C   UNL     1     -10.609  -3.227  -1.494  0.00  0.00    +0.002 A 
ATOM      8  C   UNL     1      -9.949  -2.726  -2.629  0.00  0.00    +0.002 A 
ATOM      9  C   UNL     1      -8.691  -2.240  -2.562  0.00  0.00    +0.027 A 
ATOM     10  C   UNL     1      -7.997  -2.237  -1.265  0.00  0.00    +0.061 A 
ATOM     11  N   UNL     1      -6.783  -1.776  -1.162  0.00  0.00    -0.359 N 
ATOM     12  H   UNL     1      -6.318  -1.427  -1.939  0.00  0.00    +0.162 HD
ATOM     13  H   UNL     1      -8.672  -3.163   1.856  0.00  0.00    +0.167 HD
ENDROOT
BRANCH   3  14
ATOM     14  S   UNL     1      -7.266  -3.010   3.779  0.00  0.00    +0.107 S 
ATOM     15  O   UNL     1      -8.355  -2.123   3.991  0.00  0.00    -0.146 OA
ATOM     16  O   UNL     1      -7.452  -4.394   3.512  0.00  0.00    -0.146 OA
BRANCH  14  17
ATOM     17  C   UNL     1      -6.246  -2.907   5.212  0.00  0.00    +0.150 A 
ATOM     18  C   UNL     1      -6.137  -1.899   6.111  0.00  0.00    +0.037 A 
ATOM     19  C   UNL     1      -5.261  -2.038   7.171  0.00  0.00    +0.010 A 
ATOM     20  C   UNL     1      -4.537  -3.179   7.280  0.00  0.00    +0.047 A 
ATOM     21  S   UNL     1      -5.092  -4.106   5.859  0.00  0.00    -0.076 S 
ENDBRANCH  14  17
ENDBRANCH   3  14
BRANCH   1  22
ATOM     22  N   UNL     1      -4.899  -2.575   0.036  0.00  0.00    -0.315 N 
ATOM     23  H   UNL     1      -4.938  -3.544  -0.002  0.00  0.00    +0.149 HD
BRANCH  22  27
ATOM     24  C   UNL     1      -1.211  -0.628  -0.147  0.00  0.00    +0.124 A 
ATOM     25  C   UNL     1      -2.386   0.107  -0.165  0.00  0.00    +0.047 A 
ATOM     26  C   UNL     1      -3.608  -0.538  -0.105  0.00  0.00    +0.030 A 
ATOM     27  C   UNL     1      -3.659  -1.921  -0.026  0.00  0.00    +0.071 A 
ATOM     28  C   UNL     1      -2.479  -2.661  -0.008  0.00  0.00    +0.144 A 
ATOM     29  C   UNL     1      -1.257  -2.013  -0.074  0.00  0.00    +0.093 A 
BRANCH  24  31
ATOM     30  C   UNL     1      -0.036   1.435  -0.280  0.00  0.00    +0.277 C 
ATOM     31  O   UNL     1      -0.010   0.009  -0.206  0.00  0.00    -0.495 OA
ENDBRANCH  24  31
BRANCH  28  32
ATOM     32  O   UNL     1      -2.527  -4.018   0.070  0.00  0.00    -0.493 OA
ATOM     33  C   UNL     1      -1.278  -4.711   0.084  0.00  0.00    +0.277 C 
ENDBRANCH  28  32
ENDBRANCH  22  27
ENDBRANCH   1  22
TORSDOF 6
