REMARK  Name = ZINC40321719
REMARK  10 active torsions:
REMARK  status: ('A' for Active; 'I' for Inactive)
REMARK    1  A    between atoms: C_1  and  C_2
REMARK    2  A    between atoms: C_2  and  C_3
REMARK    3  A    between atoms: C_2  and  C_4
REMARK    4  A    between atoms: C_7  and  C_10
REMARK    5  A    between atoms: C_10  and  C_12
REMARK    6  A    between atoms: C_10  and  N_30
REMARK    7  A    between atoms: C_12  and  N_13
REMARK    8  A    between atoms: C_14  and  C_16
REMARK    9  A    between atoms: C_19  and  S_21
REMARK   10  A    between atoms: S_21  and  C_24
REMARK                            x       y       z     vdW  Elec       q    Type
REMARK                         _______ _______ _______ _____ _____    ______ ____
ROOT
ATOM      1  C   UNL     1      -6.100  -1.093  -0.971  0.00  0.00    +0.094 C 
ENDROOT
BRANCH   1   2
ATOM      2  N   UNL     1      -5.386  -1.168  -2.248  0.00  0.00    -0.310 N 
ATOM      3  C   UNL     1      -5.749  -0.368  -3.270  0.00  0.00    +0.279 C 
ATOM      4  O   UNL     1      -6.669   0.416  -3.132  0.00  0.00    -0.267 OA
ATOM      5  H   UNL     1      -4.653  -1.793  -2.358  0.00  0.00    +0.149 HD
BRANCH   3   6
ATOM      6  C   UNL     1      -5.034  -0.442  -4.549  0.00  0.00    +0.192 A 
ATOM      7  C   UNL     1      -5.293   0.310  -5.658  0.00  0.00    +0.056 A 
ATOM      8  C   UNL     1      -4.375  -0.089  -6.641  0.00  0.00    +0.070 A 
ATOM      9  C   UNL     1      -3.604  -1.056  -6.096  0.00  0.00    +0.246 A 
ATOM     10  O   UNL     1      -4.002  -1.263  -4.833  0.00  0.00    -0.433 OA
BRANCH   9  11
ATOM     11  S   UNL     1      -2.290  -1.902  -6.909  0.00  0.00    +0.058 S 
ATOM     12  O   UNL     1      -2.135  -3.148  -6.242  0.00  0.00    -0.161 OA
ATOM     13  O   UNL     1      -2.550  -1.812  -8.303  0.00  0.00    -0.161 OA
BRANCH  11  14
ATOM     14  C   UNL     1      -0.816  -0.984  -6.611  0.00  0.00    +0.097 A 
ATOM     15  C   UNL     1      -0.441   0.022  -7.482  0.00  0.00    +0.027 A 
ATOM     16  C   UNL     1       0.716   0.742  -7.248  0.00  0.00    +0.002 A 
ATOM     17  C   UNL     1       1.497   0.457  -6.144  0.00  0.00    +0.000 A 
ATOM     18  C   UNL     1       1.121  -0.549  -5.273  0.00  0.00    +0.002 A 
ATOM     19  C   UNL     1      -0.038  -1.266  -5.504  0.00  0.00    +0.027 A 
ENDBRANCH  11  14
ENDBRANCH   9  11
ENDBRANCH   3   6
ENDBRANCH   1   2
BRANCH   1  20
ATOM     20  C   UNL     1      -5.413  -2.002   0.051  0.00  0.00    -0.020 C 
BRANCH  20  21
ATOM     21  N   UNL     1      -5.304  -3.360  -0.497  0.00  0.00    +0.385 N 
ATOM     22  C   UNL     1      -6.661  -3.867  -0.780  0.00  0.00    -0.078 C 
ATOM     23  C   UNL     1      -6.557  -4.926  -1.849  0.00  0.00    -0.019 C 
ATOM     24  C   UNL     1      -6.502  -6.340  -1.238  0.00  0.00    -0.002 C 
ATOM     25  C   UNL     1      -5.614  -6.384   0.021  0.00  0.00    -0.002 C 
ATOM     26  C   UNL     1      -4.352  -5.575  -0.136  0.00  0.00    -0.019 C 
ATOM     27  C   UNL     1      -4.594  -4.152   0.407  0.00  0.00    -0.078 C 
ATOM     28  H   UNL     1      -4.788  -3.318  -1.364  0.00  0.00    -0.081 HD
ENDBRANCH  20  21
BRANCH  20  32
ATOM     29  C   UNL     1      -1.509  -0.492   0.904  0.00  0.00    -0.045 A 
ATOM     30  C   UNL     1      -2.553  -0.241   1.775  0.00  0.00    +0.004 A 
ATOM     31  C   UNL     1      -3.816  -0.730   1.499  0.00  0.00    +0.002 A 
ATOM     32  C   UNL     1      -4.036  -1.469   0.351  0.00  0.00    -0.059 A 
ATOM     33  C   UNL     1      -2.993  -1.719  -0.520  0.00  0.00    +0.002 A 
ATOM     34  C   UNL     1      -1.730  -1.227  -0.246  0.00  0.00    +0.004 A 
BRANCH  29  36
ATOM     35  C   UNL     1      -0.184   1.566   1.297  0.00  0.00    +0.012 C 
ATOM     36  C   UNL     1      -0.132   0.040   1.205  0.00  0.00    +0.013 C 
ATOM     37  C   UNL     1       0.358  -0.535   2.535  0.00  0.00    +0.012 C 
ENDBRANCH  29  36
ENDBRANCH  20  32
ENDBRANCH   1  20
TORSDOF 8
