REMARK  Name = ZINC41062472
REMARK  3 active torsions:
REMARK  status: ('A' for Active; 'I' for Inactive)
REMARK    1  A    between atoms: C_1  and  C_2
REMARK    2  A    between atoms: C_5  and  S_8
REMARK    3  A    between atoms: S_8  and  C_9
REMARK                            x       y       z     vdW  Elec       q    Type
REMARK                         _______ _______ _______ _____ _____    ______ ____
ROOT
ATOM      1  C   UNL     1      -4.878   2.385  -1.589  0.00  0.00    +0.034 A 
ATOM      2  C   UNL     1      -6.266   2.520  -1.577  0.00  0.00    +0.020 A 
ATOM      3  C   UNL     1      -6.941   2.269  -0.397  0.00  0.00    +0.044 A 
ATOM      4  C   UNL     1      -6.220   1.892   0.731  0.00  0.00    +0.116 A 
ATOM      5  N   UNL     1      -4.903   1.774   0.683  0.00  0.00    -0.240 NA
ATOM      6  C   UNL     1      -4.226   2.001  -0.426  0.00  0.00    +0.128 A 
ATOM      7  N   UNL     1      -6.891   1.637   1.924  0.00  0.00    -0.343 N 
ATOM      8  H   UNL     1      -7.856   1.722   1.966  0.00  0.00    +0.144 HD
ATOM      9  H   UNL     1      -6.393   1.374   2.714  0.00  0.00    +0.144 HD
ENDROOT
BRANCH   1  10
ATOM     10  S   UNL     1      -3.964   2.692  -3.064  0.00  0.00    -0.049 S 
BRANCH  10  15
ATOM     11  C   UNL     1      -3.377   7.593  -1.256  0.00  0.00    +0.090 C 
ATOM     12  C   UNL     1      -3.223   6.386  -2.145  0.00  0.00    +0.149 A 
ATOM     13  N   UNL     1      -3.796   5.200  -1.943  0.00  0.00    -0.206 NA
ATOM     14  H   UNL     1      -2.223   4.687  -4.558  0.00  0.00    +0.191 HD
ATOM     15  C   UNL     1      -3.453   4.371  -2.906  0.00  0.00    +0.189 A 
ATOM     16  N   UNL     1      -2.637   5.037  -3.753  0.00  0.00    -0.253 N 
ATOM     17  N   UNL     1      -2.511   6.338  -3.239  0.00  0.00    -0.157 NA
ENDBRANCH  10  15
ENDBRANCH   1  10
TORSDOF 2
