REMARK  Name = ZINC02731724
REMARK  14 active torsions:
REMARK  status: ('A' for Active; 'I' for Inactive)
REMARK    1  A    between atoms: C_1  and  C_2
REMARK    2  A    between atoms: C_2  and  C_3
REMARK    3  A    between atoms: C_3  and  O_4
REMARK    4  A    between atoms: O_4  and  C_5
REMARK    5  A    between atoms: C_5  and  C_7
REMARK    6  A    between atoms: C_8  and  C_38
REMARK    7  A    between atoms: C_12  and  C_14
REMARK    8  A    between atoms: C_17  and  O_22
REMARK    9  A    between atoms: C_18  and  O_20
REMARK   10  A    between atoms: O_20  and  C_21
REMARK   11  A    between atoms: O_22  and  C_23
REMARK   12  A    between atoms: C_27  and  C_30
REMARK   13  A    between atoms: C_35  and  O_36
REMARK   14  A    between atoms: O_36  and  C_37
REMARK                            x       y       z     vdW  Elec       q    Type
REMARK                         _______ _______ _______ _____ _____    ______ ____
ROOT
ATOM      1  C   UNL     1       1.321  -3.972   2.410  0.00  0.00    +0.065 C 
ATOM      2  C   UNL     1       2.139  -4.555   3.303  0.00  0.00    +0.016 C 
ATOM      3  N   UNL     1       2.333  -5.908   3.284  0.00  0.00    -0.321 N 
ATOM      4  C   UNL     1       2.046  -6.638   2.162  0.00  0.00    +0.016 C 
ATOM      5  C   UNL     1       1.218  -6.144   1.217  0.00  0.00    +0.024 C 
ATOM      6  C   UNL     1       0.589  -4.781   1.380  0.00  0.00    +0.092 C 
ATOM      7  C   UNL     1       0.911  -6.884   0.062  0.00  0.00    +0.162 C 
ATOM      8  O   UNL     1       0.176  -6.403  -0.777  0.00  0.00    -0.292 OA
ATOM      9  C   UNL     1       1.478  -8.261  -0.154  0.00  0.00    +0.088 C 
ATOM     10  C   UNL     1       1.742  -8.911   1.208  0.00  0.00    +0.035 C 
ATOM     11  C   UNL     1       2.676  -8.000   2.007  0.00  0.00    +0.060 C 
ATOM     12  C   UNL     1       2.846  -3.712   4.333  0.00  0.00    +0.061 C 
ATOM     13  H   UNL     1       2.679  -6.355   4.072  0.00  0.00    +0.152 HD
ENDROOT
BRANCH   6  14
ATOM     14  C   UNL     1      -0.847  -4.941   1.806  0.00  0.00    -0.032 A 
ATOM     15  C   UNL     1      -1.146  -5.560   3.006  0.00  0.00    +0.008 A 
ATOM     16  C   UNL     1      -2.462  -5.710   3.401  0.00  0.00    +0.050 A 
ATOM     17  C   UNL     1      -3.485  -5.239   2.595  0.00  0.00    +0.162 A 
ATOM     18  C   UNL     1      -3.185  -4.615   1.388  0.00  0.00    +0.162 A 
ATOM     19  C   UNL     1      -1.863  -4.464   0.999  0.00  0.00    +0.054 A 
BRANCH  18  20
ATOM     20  O   UNL     1      -4.186  -4.151   0.593  0.00  0.00    -0.491 OA
ATOM     21  C   UNL     1      -3.803  -3.522  -0.632  0.00  0.00    +0.277 C 
ENDBRANCH  18  20
BRANCH  17  22
ATOM     22  O   UNL     1      -4.781  -5.386   2.982  0.00  0.00    -0.491 OA
ATOM     23  C   UNL     1      -5.014  -6.035   4.233  0.00  0.00    +0.277 C 
ENDBRANCH  17  22
ENDBRANCH   6  14
BRANCH  10  24
ATOM     24  C   UNL     1       2.389 -10.258   1.010  0.00  0.00    -0.002 A 
ATOM     25  C   UNL     1       3.606 -10.351   0.362  0.00  0.00    +0.007 A 
ATOM     26  C   UNL     1       4.199 -11.587   0.180  0.00  0.00    +0.001 A 
ATOM     27  C   UNL     1       3.577 -12.731   0.645  0.00  0.00    +0.004 A 
ATOM     28  C   UNL     1       2.361 -12.642   1.294  0.00  0.00    +0.046 A 
ATOM     29  C   UNL     1       1.766 -11.403   1.483  0.00  0.00    +0.124 A 
BRANCH  29  30
ATOM     30  O   UNL     1       0.572 -11.313   2.125  0.00  0.00    -0.495 OA
ATOM     31  C   UNL     1      -0.012 -12.533   2.585  0.00  0.00    +0.277 C 
ENDBRANCH  29  30
ENDBRANCH  10  24
BRANCH   1  32
ATOM     32  C   UNL     1       1.143  -2.569   2.445  0.00  0.00    +0.338 C 
ATOM     33  O   UNL     1       1.667  -1.868   1.600  0.00  0.00    -0.245 OA
BRANCH  32  34
ATOM     34  O   UNL     1       0.391  -2.009   3.416  0.00  0.00    -0.461 OA
BRANCH  34  35
ATOM     35  C   UNL     1       0.254  -0.586   3.390  0.00  0.00    +0.232 C 
BRANCH  35  37
ATOM     36  C   UNL     1      -0.773   1.385   4.531  0.00  0.00    +0.007 C 
ATOM     37  C   UNL     1      -0.626  -0.138   4.559  0.00  0.00    +0.038 C 
ENDBRANCH  35  37
ENDBRANCH  34  35
ENDBRANCH  32  34
ENDBRANCH   1  32
TORSDOF 9
