REMARK  Name = ZINC05743730
REMARK  5 active torsions:
REMARK  status: ('A' for Active; 'I' for Inactive)
REMARK    1  A    between atoms: C_1  and  C_2
REMARK    2  A    between atoms: C_2  and  C_4
REMARK    3  A    between atoms: C_2  and  O_10
REMARK    4  A    between atoms: O_10  and  C_11
REMARK    5  A    between atoms: C_11  and  C_13
REMARK                            x       y       z     vdW  Elec       q    Type
REMARK                         _______ _______ _______ _____ _____    ______ ____
ROOT
ATOM      1  C   UNL     1       2.015  -0.659  -1.105  0.00  0.00    +0.341 C 
ATOM      2  O   UNL     1       2.593  -0.436  -0.059  0.00  0.00    -0.245 OA
ENDROOT
BRANCH   1   3
ATOM      3  C   UNL     1       2.767  -1.131  -2.273  0.00  0.00    +0.074 A 
ATOM      4  C   UNL     1       3.312  -0.208  -3.191  0.00  0.00    -0.003 A 
ATOM      5  C   UNL     1       3.158   1.176  -3.005  0.00  0.00    +0.009 A 
ATOM      6  C   UNL     1       3.701   2.039  -3.906  0.00  0.00    +0.001 A 
ATOM      7  C   UNL     1       4.415   1.586  -5.013  0.00  0.00    +0.001 A 
ATOM      8  C   UNL     1       4.604   0.262  -5.247  0.00  0.00    +0.008 A 
ATOM      9  C   UNL     1       4.066  -0.687  -4.351  0.00  0.00    -0.017 A 
ATOM     10  C   UNL     1       4.242  -2.055  -4.562  0.00  0.00    +0.017 A 
ATOM     11  C   UNL     1       3.701  -2.975  -3.662  0.00  0.00    -0.017 A 
ATOM     12  C   UNL     1       2.949  -2.512  -2.494  0.00  0.00    -0.003 A 
ATOM     13  C   UNL     1       2.419  -3.464  -1.607  0.00  0.00    +0.009 A 
ATOM     14  C   UNL     1       2.612  -4.788  -1.848  0.00  0.00    +0.001 A 
ATOM     15  C   UNL     1       3.328  -5.232  -2.959  0.00  0.00    +0.001 A 
ATOM     16  C   UNL     1       3.866  -4.363  -3.854  0.00  0.00    +0.008 A 
ENDBRANCH   1   3
BRANCH   1  17
ATOM     17  O   UNL     1       0.682  -0.472  -1.193  0.00  0.00    -0.449 OA
BRANCH  17  19
ATOM     18  C   UNL     1      -0.019   1.526   0.010  0.00  0.00    +0.062 C 
ATOM     19  C   UNL     1       0.002  -0.004   0.002  0.00  0.00    +0.259 C 
BRANCH  19  20
ATOM     20  C   UNL     1      -1.412  -0.526   0.013  0.00  0.00    +0.261 C 
ATOM     21  O   UNL     1      -1.836  -1.147  -0.938  0.00  0.00    -0.271 OA
ATOM     22  N   UNL     1      -2.204  -0.302   1.079  0.00  0.00    -0.237 N 
ATOM     23  C   UNL     1      -3.469  -0.768   1.089  0.00  0.00    +0.303 C 
ATOM     24  O   UNL     1      -3.894  -1.391   0.136  0.00  0.00    -0.253 OA
ATOM     25  N   UNL     1      -4.262  -0.544   2.156  0.00  0.00    -0.313 N 
ATOM     26  H   UNL     1      -1.865   0.195   1.840  0.00  0.00    +0.159 HD
ATOM     27  H   UNL     1      -3.922  -0.048   2.916  0.00  0.00    +0.146 HD
ATOM     28  H   UNL     1      -5.172  -0.880   2.163  0.00  0.00    +0.146 HD
ENDBRANCH  19  20
ENDBRANCH  17  19
ENDBRANCH   1  17
TORSDOF 4
