REMARK  Name = ZINC36329850
REMARK  7 active torsions:
REMARK  status: ('A' for Active; 'I' for Inactive)
REMARK    1  A    between atoms: C_1  and  N_2
REMARK    2  A    between atoms: N_2  and  O_27
REMARK    3  A    between atoms: C_3  and  C_5
REMARK    4  A    between atoms: C_12  and  S_15
REMARK    5  A    between atoms: S_15  and  N_18
REMARK    6  A    between atoms: N_18  and  C_19
REMARK    7  A    between atoms: O_27  and  C_28
REMARK                            x       y       z     vdW  Elec       q    Type
REMARK                         _______ _______ _______ _____ _____    ______ ____
ROOT
ATOM      1  C   UNL     1       0.384  -2.128   1.274  0.00  0.00    +0.053 A 
ATOM      2  C   UNL     1       0.415  -2.741   2.494  0.00  0.00    +0.083 A 
ATOM      3  C   UNL     1       0.629  -4.184   2.568  0.00  0.00    +0.250 A 
ATOM      4  N   UNL     1       0.796  -4.917   1.453  0.00  0.00    -0.322 N 
ATOM      5  C   UNL     1       0.772  -4.337   0.203  0.00  0.00    +0.050 A 
ATOM      6  C   UNL     1       0.564  -2.952   0.069  0.00  0.00    +0.013 A 
ATOM      7  C   UNL     1       0.536  -2.373  -1.203  0.00  0.00    +0.039 A 
ATOM      8  C   UNL     1       0.705  -3.155  -2.310  0.00  0.00    +0.111 A 
ATOM      9  C   UNL     1       0.905  -4.523  -2.183  0.00  0.00    +0.031 A 
ATOM     10  C   UNL     1       0.947  -5.114  -0.939  0.00  0.00    +0.028 A 
ATOM     11  O   UNL     1       0.656  -4.731   3.655  0.00  0.00    -0.268 OA
ATOM     12  H   UNL     1       0.937  -5.874   1.530  0.00  0.00    +0.169 HD
ENDROOT
BRANCH   1  15
ATOM     13  C   UNL     1      -1.257   1.303   1.353  0.00  0.00    +0.167 C 
ATOM     14  N   UNL     1      -1.063  -0.149   1.351  0.00  0.00    -0.180 N 
ATOM     15  C   UNL     1       0.169  -0.664   1.166  0.00  0.00    +0.270 C 
ATOM     16  O   UNL     1       1.102   0.070   0.910  0.00  0.00    -0.268 OA
BRANCH  14  17
ATOM     17  O   UNL     1      -2.169  -1.011   1.545  0.00  0.00    -0.280 OA
ATOM     18  C   UNL     1      -2.784  -1.449   0.331  0.00  0.00    +0.227 C 
ENDBRANCH  14  17
ENDBRANCH   1  15
BRANCH   8  19
ATOM     19  S   UNL     1       0.669  -2.422  -3.912  0.00  0.00    +0.092 S 
ATOM     20  O   UNL     1       0.426  -3.475  -4.835  0.00  0.00    -0.148 OA
ATOM     21  O   UNL     1      -0.174  -1.282  -3.818  0.00  0.00    -0.148 OA
BRANCH  19  22
ATOM     22  N   UNL     1       2.194  -1.859  -4.227  0.00  0.00    -0.098 NA
BRANCH  22  23
ATOM     23  C   UNL     1       2.466  -1.221  -5.441  0.00  0.00    +0.074 A 
ATOM     24  C   UNL     1       1.458  -1.055  -6.381  0.00  0.00    +0.029 A 
ATOM     25  C   UNL     1       1.729  -0.424  -7.580  0.00  0.00    +0.040 A 
ATOM     26  C   UNL     1       3.006   0.042  -7.845  0.00  0.00    +0.124 A 
ATOM     27  C   UNL     1       4.013  -0.123  -6.909  0.00  0.00    +0.040 A 
ATOM     28  C   UNL     1       3.745  -0.748  -5.707  0.00  0.00    +0.029 A 
ATOM     29  F   UNL     1       3.269   0.658  -9.018  0.00  0.00    -0.205 F 
ENDBRANCH  22  23
ENDBRANCH  19  22
ENDBRANCH   8  19
TORSDOF 5
