REMARK  Name = ZINC64637537
REMARK  5 active torsions:
REMARK  status: ('A' for Active; 'I' for Inactive)
REMARK    1  A    between atoms: C_1  and  C_2
REMARK    2  A    between atoms: C_2  and  C_3
REMARK    3  A    between atoms: C_3  and  N_4
REMARK    4  A    between atoms: C_8  and  C_15
REMARK    5  A    between atoms: C_18  and  C_21
REMARK                            x       y       z     vdW  Elec       q    Type
REMARK                         _______ _______ _______ _____ _____    ______ ____
ROOT
ATOM      1  C   UNL     1      -1.379  -5.997  -3.941  0.00  0.00    +0.168 C 
ATOM      2  N   UNL     1      -1.366  -7.251  -3.627  0.00  0.00    -0.067 NA
ATOM      3  O   UNL     1      -1.361  -8.062  -4.787  0.00  0.00    -0.367 OA
ATOM      4  C   UNL     1      -1.372  -7.168  -5.911  0.00  0.00    +0.318 C 
ATOM      5  N   UNL     1      -1.389  -5.824  -5.313  0.00  0.00    -0.288 N 
ATOM      6  H   UNL     1      -1.403  -4.979  -5.790  0.00  0.00    +0.151 HD
ENDROOT
BRANCH   1  11
ATOM      7  N   UNL     1      -1.413  -1.998   0.005  0.00  0.00    -0.292 N 
ATOM      8  C   UNL     1      -1.408  -2.806  -1.128  0.00  0.00    +0.070 A 
ATOM      9  C   UNL     1      -1.418  -2.531  -2.489  0.00  0.00    +0.029 A 
ATOM     10  C   UNL     1      -1.409  -3.564  -3.401  0.00  0.00    +0.013 A 
ATOM     11  C   UNL     1      -1.389  -4.890  -2.959  0.00  0.00    +0.020 A 
ATOM     12  C   UNL     1      -1.378  -5.169  -1.593  0.00  0.00    +0.039 A 
ATOM     13  C   UNL     1      -1.387  -4.130  -0.680  0.00  0.00    +0.068 A 
ATOM     14  N   UNL     1      -1.381  -4.083   0.713  0.00  0.00    -0.306 N 
ATOM     15  H   UNL     1      -1.367  -4.850   1.306  0.00  0.00    +0.170 HD
ATOM     16  C   UNL     1      -1.392  -2.791   1.092  0.00  0.00    +0.328 A 
ATOM     17  O   UNL     1      -1.385  -2.400   2.245  0.00  0.00    -0.247 OA
BRANCH   7  18
ATOM     18  C   UNL     1      -1.433  -0.534   0.013  0.00  0.00    +0.127 C 
BRANCH  18  20
ATOM     19  C   UNL     1      -0.019   1.526   0.010  0.00  0.00    +0.005 C 
ATOM     20  C   UNL     1       0.002  -0.004   0.002  0.00  0.00    +0.018 C 
ENDBRANCH  18  20
ENDBRANCH   7  18
ENDBRANCH   1  11
BRANCH   4  21
ATOM     21  C   UNL     1      -2.627  -7.390  -6.757  0.00  0.00    +0.165 C 
ATOM     22  C   UNL     1      -2.622  -6.463  -7.952  0.00  0.00    +0.012 C 
ATOM     23  C   UNL     1      -2.625  -7.259  -9.045  0.00  0.00    -0.004 A 
ATOM     24  C   UNL     1      -2.622  -6.972 -10.484  0.00  0.00    +0.010 A 
ATOM     25  C   UNL     1      -2.627  -8.004 -11.359  0.00  0.00    +0.001 A 
ATOM     26  C   UNL     1      -2.635  -9.337 -10.926  0.00  0.00    +0.002 A 
ATOM     27  C   UNL     1      -2.638  -9.680  -9.620  0.00  0.00    +0.026 A 
ATOM     28  C   UNL     1      -2.633  -8.675  -8.614  0.00  0.00    +0.043 A 
ATOM     29  N   UNL     1      -2.635  -8.752  -7.303  0.00  0.00    -0.373 N 
ATOM     30  H   UNL     1      -2.641  -9.570  -6.783  0.00  0.00    +0.160 HD
ENDBRANCH   4  21
TORSDOF 4
