REMARK  Name = ZINC49109354
REMARK  2 active torsions:
REMARK  status: ('A' for Active; 'I' for Inactive)
REMARK    1  A    between atoms: C_1  and  N_2
REMARK    2  A    between atoms: C_14  and  C_17
REMARK                            x       y       z     vdW  Elec       q    Type
REMARK                         _______ _______ _______ _____ _____    ______ ____
ROOT
ATOM      1  C   UNL     1      -0.018   1.465   0.010  0.00  0.00    -0.096 C 
ATOM      2  N   UNL     1       0.002  -0.004   0.002  0.00  0.00    +0.382 N 
ATOM      3  C   UNL     1       0.661  -0.499  -1.231  0.00  0.00    -0.056 C 
ATOM      4  C   UNL     1       1.866  -1.355  -0.732  0.00  0.00    +0.057 C 
ATOM      5  C   UNL     1       1.252  -1.925   0.597  0.00  0.00    +0.007 C 
ATOM      6  C   UNL     1       0.826  -0.515   1.143  0.00  0.00    -0.050 C 
ATOM      7  C   UNL     1       2.183   0.241   0.999  0.00  0.00    +0.091 C 
ATOM      8  N   UNL     1       2.838  -0.347  -0.213  0.00  0.00    -0.315 N 
ATOM      9  C   UNL     1       4.086  -0.041  -0.742  0.00  0.00    +0.121 A 
ATOM     10  C   UNL     1       4.488  -0.630  -1.938  0.00  0.00    +0.044 A 
ATOM     11  C   UNL     1       5.729  -0.321  -2.457  0.00  0.00    +0.013 A 
ATOM     12  C   UNL     1       6.539   0.580  -1.755  0.00  0.00    +0.000 A 
ATOM     13  C   UNL     1       6.068   1.128  -0.566  0.00  0.00    +0.121 A 
ATOM     14  N   UNL     1       4.874   0.811  -0.105  0.00  0.00    -0.240 NA
ATOM     15  H   UNL     1      -0.938  -0.365   0.064  0.00  0.00    -0.082 HD
ENDROOT
BRANCH  12  16
ATOM     16  C   UNL     1       7.881   0.944  -2.272  0.00  0.00    -0.016 A 
ATOM     17  C   UNL     1       8.332   0.385  -3.472  0.00  0.00    +0.009 A 
ATOM     18  C   UNL     1       9.569   0.720  -3.950  0.00  0.00    +0.016 A 
ATOM     19  C   UNL     1      10.362   1.604  -3.249  0.00  0.00    +0.019 A 
ATOM     20  C   UNL     1       9.947   2.192  -2.034  0.00  0.00    -0.010 A 
ATOM     21  C   UNL     1       8.663   1.835  -1.563  0.00  0.00    +0.017 A 
ATOM     22  C   UNL     1      10.916   3.100  -1.437  0.00  0.00    +0.016 A 
ATOM     23  C   UNL     1      12.088   3.309  -2.054  0.00  0.00    +0.046 A 
ATOM     24  S   UNL     1      11.980   2.285  -3.510  0.00  0.00    -0.097 S 
ENDBRANCH  12  16
TORSDOF 1
