REMARK  Name = ZINC44450036
REMARK  5 active torsions:
REMARK  status: ('A' for Active; 'I' for Inactive)
REMARK    1  A    between atoms: C_1  and  C_2
REMARK    2  A    between atoms: C_5  and  N_9
REMARK    3  A    between atoms: C_7  and  C_8
REMARK    4  A    between atoms: N_12  and  C_13
REMARK    5  A    between atoms: C_19  and  N_21
REMARK                            x       y       z     vdW  Elec       q    Type
REMARK                         _______ _______ _______ _____ _____    ______ ____
ROOT
ATOM      1  N   UNL     1       0.058  -4.170  -0.021  0.00  0.00    -0.269 N 
ATOM      2  C   UNL     1      -0.041  -4.839  -1.187  0.00  0.00    +0.304 C 
ATOM      3  O   UNL     1      -0.054  -4.229  -2.239  0.00  0.00    -0.253 OA
ATOM      4  N   UNL     1      -0.124  -6.184  -1.187  0.00  0.00    -0.295 N 
ATOM      5  H   UNL     1       0.146  -4.658   0.812  0.00  0.00    +0.156 HD
ATOM      6  H   UNL     1      -0.114  -6.671  -0.348  0.00  0.00    +0.151 HD
ENDROOT
BRANCH   1  11
ATOM      7  C   UNL     1      -0.045   1.502   0.014  0.00  0.00    +0.044 C 
ATOM      8  C   UNL     1      -0.018  -0.004   0.004  0.00  0.00    -0.047 A 
ATOM      9  C   UNL     1      -0.754  -0.702  -0.935  0.00  0.00    +0.005 A 
ATOM     10  C   UNL     1      -0.731  -2.083  -0.946  0.00  0.00    +0.023 A 
ATOM     11  C   UNL     1       0.033  -2.771  -0.013  0.00  0.00    +0.035 A 
ATOM     12  C   UNL     1       0.771  -2.067   0.929  0.00  0.00    +0.027 A 
ATOM     13  C   UNL     1       0.749  -0.686   0.932  0.00  0.00    -0.046 A 
ATOM     14  C   UNL     1       1.555   0.078   1.950  0.00  0.00    +0.044 C 
ENDBRANCH   1  11
BRANCH   4  15
ATOM     15  C   UNL     1      -0.231  -6.911  -2.454  0.00  0.00    +0.095 C 
ATOM     16  C   UNL     1       1.168  -7.144  -3.028  0.00  0.00    +0.024 C 
ATOM     17  C   UNL     1       1.056  -7.904  -4.352  0.00  0.00    +0.002 C 
ATOM     18  C   UNL     1       0.372  -9.251  -4.111  0.00  0.00    +0.002 C 
ATOM     19  C   UNL     1      -1.027  -9.018  -3.537  0.00  0.00    +0.025 C 
ATOM     20  C   UNL     1      -0.915  -8.258  -2.213  0.00  0.00    +0.105 C 
BRANCH  20  21
ATOM     21  N   UNL     1      -2.254  -8.035  -1.664  0.00  0.00    -0.228 N 
ATOM     22  C   UNL     1      -2.534  -8.536  -0.472  0.00  0.00    +0.233 C 
ATOM     23  O   UNL     1      -1.724  -9.167   0.172  0.00  0.00    -0.274 OA
ATOM     24  C   UNL     1      -3.943  -8.264   0.035  0.00  0.00    +0.175 C 
ATOM     25  S   UNL     1      -4.606  -7.294  -1.383  0.00  0.00    -0.058 S 
ATOM     26  C   UNL     1      -3.134  -7.326  -2.396  0.00  0.00    +0.281 C 
ATOM     27  O   UNL     1      -2.966  -6.826  -3.491  0.00  0.00    -0.262 OA
ENDBRANCH  20  21
ENDBRANCH   4  15
TORSDOF 3
