REMARK  Name = ZINC41514918
REMARK  7 active torsions:
REMARK  status: ('A' for Active; 'I' for Inactive)
REMARK    1  A    between atoms: C_1  and  C_2
REMARK    2  A    between atoms: C_2  and  N_3
REMARK    3  A    between atoms: N_6  and  C_9
REMARK    4  A    between atoms: C_9  and  C_10
REMARK    5  A    between atoms: C_11  and  O_30
REMARK    6  A    between atoms: C_13  and  C_29
REMARK    7  A    between atoms: C_18  and  C_19
REMARK                            x       y       z     vdW  Elec       q    Type
REMARK                         _______ _______ _______ _____ _____    ______ ____
ROOT
ATOM      1  C   UNL     1      -4.703  -4.145  -1.215  0.00  0.00    +0.051 A 
ATOM      2  C   UNL     1      -4.657  -4.756  -2.458  0.00  0.00    +0.125 A 
ATOM      3  C   UNL     1      -4.620  -6.143  -2.565  0.00  0.00    +0.050 A 
ATOM      4  C   UNL     1      -4.626  -6.918  -1.440  0.00  0.00    -0.033 A 
ATOM      5  C   UNL     1      -4.671  -6.317  -0.181  0.00  0.00    +0.071 A 
ATOM      6  C   UNL     1      -4.704  -4.919  -0.061  0.00  0.00    +0.148 A 
ATOM      7  O   UNL     1      -4.738  -4.574   1.245  0.00  0.00    -0.451 OA
ATOM      8  C   UNL     1      -4.724  -5.660   2.053  0.00  0.00    +0.176 C 
ATOM      9  C   UNL     1      -4.750  -5.651   3.409  0.00  0.00    +0.058 C 
ATOM     10  C   UNL     1      -4.689  -6.853   1.192  0.00  0.00    +0.232 C 
ATOM     11  O   UNL     1      -4.668  -8.022   1.537  0.00  0.00    -0.283 OA
ATOM     12  C   UNL     1      -4.585  -8.420  -1.558  0.00  0.00    +0.045 C 
ENDROOT
BRANCH   9  13
ATOM     13  C   UNL     1      -4.684  -4.376   4.136  0.00  0.00    -0.020 A 
ATOM     14  C   UNL     1      -4.574  -4.367   5.532  0.00  0.00    +0.009 A 
ATOM     15  C   UNL     1      -4.514  -3.167   6.207  0.00  0.00    +0.022 A 
ATOM     16  C   UNL     1      -4.561  -1.971   5.509  0.00  0.00    +0.059 A 
ATOM     17  C   UNL     1      -4.670  -1.971   4.127  0.00  0.00    +0.060 A 
ATOM     18  C   UNL     1      -4.726  -3.164   3.436  0.00  0.00    +0.029 A 
ATOM     19 CL   UNL     1      -4.728  -0.467   3.262  0.00  0.00    -0.082 Cl
ATOM     20 CL   UNL     1      -4.484  -0.466   6.369  0.00  0.00    -0.082 Cl
ENDBRANCH   9  13
BRANCH   2  21
ATOM     21  O   UNL     1      -4.651  -3.994  -3.582  0.00  0.00    -0.506 OA
ATOM     22  H   UNL     1      -3.766  -3.751  -3.886  0.00  0.00    +0.292 HD
ENDBRANCH   2  21
BRANCH   1  23
ATOM     23  C   UNL     1      -4.744  -2.642  -1.115  0.00  0.00    +0.126 C 
BRANCH  23  27
ATOM     24  N   UNL     1      -1.268  -0.548   0.069  0.00  0.00    +0.381 N 
ATOM     25  C   UNL     1      -1.917  -0.155  -1.190  0.00  0.00    -0.063 C 
ATOM     26  C   UNL     1      -3.363  -0.654  -1.196  0.00  0.00    +0.066 C 
ATOM     27  N   UNL     1      -3.373  -2.117  -1.056  0.00  0.00    -0.301 NA
ATOM     28  C   UNL     1      -2.705  -2.527   0.188  0.00  0.00    +0.066 C 
ATOM     29  C   UNL     1      -1.265  -2.012   0.183  0.00  0.00    -0.063 C 
ATOM     30  H   UNL     1      -1.775  -0.151   0.846  0.00  0.00    -0.082 HD
BRANCH  24  32
ATOM     31  C   UNL     1       0.108   1.478   0.089  0.00  0.00    -0.017 C 
ATOM     32  C   UNL     1       0.114  -0.052   0.082  0.00  0.00    -0.082 C 
ENDBRANCH  24  32
ENDBRANCH  23  27
ENDBRANCH   1  23
TORSDOF 5
