REMARK  Name = ZINC11661015
REMARK  4 active torsions:
REMARK  status: ('A' for Active; 'I' for Inactive)
REMARK    1  A    between atoms: C_12  and  N_52
REMARK    2  A    between atoms: C_17  and  C_18
REMARK    3  A    between atoms: C_17  and  N_52
REMARK    4  A    between atoms: C_21  and  N_24
REMARK                            x       y       z     vdW  Elec       q    Type
REMARK                         _______ _______ _______ _____ _____    ______ ____
ROOT
ATOM      1  N   UNL     1      -1.474   3.642  -2.388  0.00  0.00    +0.386 N 
ATOM      2  H   UNL     1      -2.389   3.839  -1.968  0.00  0.00    -0.085 HD
ATOM      3  H   UNL     1      -1.581   2.940  -3.129  0.00  0.00    -0.085 HD
ENDROOT
BRANCH   1  15
ATOM      4  C   UNL     1      -1.386   4.430   5.759  0.00  0.00    +0.005 A 
ATOM      5  C   UNL     1      -1.773   3.145   6.115  0.00  0.00    +0.020 A 
ATOM      6  C   UNL     1      -1.969   2.200   5.127  0.00  0.00    +0.113 A 
ATOM      7  N   UNL     1      -1.795   2.505   3.856  0.00  0.00    -0.236 NA
ATOM      8  C   UNL     1      -1.427   3.718   3.477  0.00  0.00    +0.154 A 
ATOM      9  C   UNL     1      -1.206   4.717   4.417  0.00  0.00    +0.048 A 
ATOM     10  N   UNL     1      -1.253   3.996   2.118  0.00  0.00    -0.218 N 
ATOM     11  C   UNL     1      -0.957   3.099   1.151  0.00  0.00    +0.048 A 
ATOM     12  C   UNL     1      -0.876   3.769  -0.026  0.00  0.00    -0.020 A 
ATOM     13  C   UNL     1      -1.128   5.117   0.228  0.00  0.00    +0.137 A 
ATOM     14  N   UNL     1      -1.355   5.257   1.511  0.00  0.00    -0.173 NA
ATOM     15  C   UNL     1      -0.565   3.118  -1.350  0.00  0.00    -0.037 C 
ATOM     16  C   UNL     1      -0.775   1.606  -1.207  0.00  0.00    -0.011 C 
ATOM     17  C   UNL     1      -0.034   1.102   0.035  0.00  0.00    +0.005 C 
ATOM     18  C   UNL     1      -0.741   1.613   1.296  0.00  0.00    +0.056 C 
ENDBRANCH   1  15
BRANCH   1  19
ATOM     19  C   UNL     1      -0.927   4.883  -2.968  0.00  0.00    -0.046 C 
BRANCH  19  20
ATOM     20  C   UNL     1      -1.874   5.394  -4.022  0.00  0.00    -0.064 A 
ATOM     21  C   UNL     1      -1.727   4.990  -5.337  0.00  0.00    +0.003 A 
ATOM     22  C   UNL     1      -2.597   5.453  -6.305  0.00  0.00    +0.024 A 
ATOM     23  C   UNL     1      -3.613   6.333  -5.959  0.00  0.00    +0.038 A 
ATOM     24  C   UNL     1      -3.755   6.741  -4.639  0.00  0.00    +0.024 A 
ATOM     25  C   UNL     1      -2.886   6.271  -3.675  0.00  0.00    +0.003 A 
BRANCH  23  26
ATOM     26  N   UNL     1      -4.493   6.809  -6.938  0.00  0.00    -0.254 N 
ATOM     27  C   UNL     1      -4.376   6.556  -8.383  0.00  0.00    +0.134 C 
ATOM     28  C   UNL     1      -5.587   7.296  -8.985  0.00  0.00    +0.125 C 
ATOM     29  N   UNL     1      -6.251   7.894  -7.817  0.00  0.00    -0.297 N 
ATOM     30  C   UNL     1      -5.571   7.570  -6.710  0.00  0.00    +0.307 C 
ATOM     31  O   UNL     1      -5.902   7.934  -5.598  0.00  0.00    -0.252 OA
ATOM     32  H   UNL     1      -7.054   8.437  -7.845  0.00  0.00    +0.150 HD
ENDBRANCH  23  26
ENDBRANCH  19  20
ENDBRANCH   1  19
TORSDOF 4
