REMARK  Name = ZINC01422389
REMARK  9 active torsions:
REMARK  status: ('A' for Active; 'I' for Inactive)
REMARK    1  A    between atoms: C_1  and  C_2
REMARK    2  A    between atoms: C_2  and  C_3
REMARK    3  A    between atoms: C_3  and  C_25
REMARK    4  A    between atoms: C_4  and  C_23
REMARK    5  A    between atoms: C_4  and  O_24
REMARK    6  A    between atoms: N_5  and  C_9
REMARK    7  A    between atoms: C_9  and  C_10
REMARK    8  A    between atoms: C_10  and  C_11
REMARK    9  A    between atoms: C_12  and  C_22
REMARK                            x       y       z     vdW  Elec       q    Type
REMARK                         _______ _______ _______ _____ _____    ______ ____
ROOT
ATOM      1  C   UNL     1      -2.504   1.375   0.021  0.00  0.00    +0.119 C 
ENDROOT
BRANCH   1   4
ATOM      2  C   UNL     1       0.735   3.367   0.013  0.00  0.00    +0.157 C 
ATOM      3  C   UNL     1      -0.806   3.358   0.027  0.00  0.00    +0.175 C 
ATOM      4  N   UNL     1      -1.147   1.927   0.018  0.00  0.00    -0.235 N 
ATOM      5  C   UNL     1      -0.014   1.211   0.009  0.00  0.00    +0.406 C 
ATOM      6  O   UNL     1       0.002  -0.004   0.002  0.00  0.00    -0.226 OA
ATOM      7  O   UNL     1       1.097   1.956   0.002  0.00  0.00    -0.439 OA
ATOM      8  C   UNL     1      -1.336   4.033   1.293  0.00  0.00    +0.068 C 
ATOM      9  C   UNL     1       1.255   4.064  -1.246  0.00  0.00    +0.060 C 
BRANCH   2  11
ATOM     10  C   UNL     1       2.808   4.071   1.218  0.00  0.00    +0.008 C 
ATOM     11  C   UNL     1       1.279   4.051   1.269  0.00  0.00    +0.049 C 
ENDBRANCH   2  11
BRANCH   3  12
ATOM     12  O   UNL     1      -1.323   4.003  -1.138  0.00  0.00    -0.368 OA
ATOM     13  H   UNL     1      -2.289   4.025  -1.180  0.00  0.00    +0.212 HD
ENDBRANCH   3  12
ENDBRANCH   1   4
BRANCH   1  14
ATOM     14  C   UNL     1      -2.970   1.175   1.464  0.00  0.00    +0.056 C 
BRANCH  14  15
ATOM     15  C   UNL     1      -4.366   0.607   1.467  0.00  0.00    -0.018 A 
ATOM     16  C   UNL     1      -5.512   1.305   1.482  0.00  0.00    +0.017 A 
ATOM     17  N   UNL     1      -6.580   0.450   1.476  0.00  0.00    -0.358 N 
ATOM     18  H   UNL     1      -7.511   0.721   1.482  0.00  0.00    +0.166 HD
ATOM     19  C   UNL     1      -6.135  -0.854   1.468  0.00  0.00    +0.047 A 
ATOM     20  C   UNL     1      -4.729  -0.812   1.462  0.00  0.00    +0.005 A 
ATOM     21  C   UNL     1      -3.996  -2.001   1.453  0.00  0.00    +0.030 A 
ATOM     22  C   UNL     1      -4.658  -3.209   1.451  0.00  0.00    +0.042 A 
ATOM     23  C   UNL     1      -6.046  -3.249   1.457  0.00  0.00    +0.022 A 
ATOM     24  C   UNL     1      -6.783  -2.085   1.464  0.00  0.00    +0.027 A 
ATOM     25 CL   UNL     1      -3.752  -4.689   1.441  0.00  0.00    -0.084 Cl
ATOM     26  C   UNL     1      -5.609   2.809   1.497  0.00  0.00    +0.063 C 
ENDBRANCH  14  15
ENDBRANCH   1  14
TORSDOF 5
