REMARK  Name = ZINC13303557
REMARK  6 active torsions:
REMARK  status: ('A' for Active; 'I' for Inactive)
REMARK    1  A    between atoms: C_1  and  C_2
REMARK    2  A    between atoms: C_7  and  N_8
REMARK    3  A    between atoms: C_12  and  S_16
REMARK    4  A    between atoms: S_16  and  C_17
REMARK    5  A    between atoms: N_19  and  N_20
REMARK    6  A    between atoms: C_21  and  C_22
REMARK                            x       y       z     vdW  Elec       q    Type
REMARK                         _______ _______ _______ _____ _____    ______ ____
ROOT
ATOM      1  S   UNL     1       1.471   0.204   5.755  0.00  0.00    -0.078 S 
ENDROOT
BRANCH   1   6
ATOM      2  N   UNL     1       0.025  -0.013   2.419  0.00  0.00    -0.209 N 
ATOM      3  C   UNL     1      -1.099   0.325   3.062  0.00  0.00    +0.228 C 
ATOM      4  O   UNL     1      -2.225   0.081   2.684  0.00  0.00    -0.275 OA
ATOM      5  C   UNL     1      -0.743   1.057   4.337  0.00  0.00    +0.120 C 
ATOM      6  C   UNL     1       0.799   1.085   4.319  0.00  0.00    +0.149 C 
ATOM      7  C   UNL     1       1.152   0.360   3.038  0.00  0.00    +0.240 C 
ATOM      8  O   UNL     1       2.276   0.152   2.636  0.00  0.00    -0.274 OA
BRANCH   2  15
ATOM      9  C   UNL     1      -0.018   1.503   0.010  0.00  0.00    +0.045 C 
ATOM     10  C   UNL     1       0.002  -0.004   0.002  0.00  0.00    -0.029 A 
ATOM     11  C   UNL     1       0.006  -0.689  -1.198  0.00  0.00    +0.005 A 
ATOM     12  C   UNL     1       0.025  -2.071  -1.206  0.00  0.00    +0.000 A 
ATOM     13  C   UNL     1       0.041  -2.773  -0.014  0.00  0.00    +0.002 A 
ATOM     14  C   UNL     1       0.037  -2.094   1.188  0.00  0.00    +0.024 A 
ATOM     15  C   UNL     1       0.023  -0.705   1.200  0.00  0.00    +0.047 A 
ENDBRANCH   2  15
ENDBRANCH   1   6
BRANCH   1  16
ATOM     16  C   UNL     1       3.209   0.467   5.642  0.00  0.00    +0.146 C 
ATOM     17  N   UNL     1       3.700   1.173   4.660  0.00  0.00    -0.380 N 
ATOM     18  N   UNL     1       4.051  -0.071   6.590  0.00  0.00    -0.217 N 
ATOM     19  H   UNL     1       4.657   1.318   4.598  0.00  0.00    +0.158 HD
ATOM     20  H   UNL     1       3.686  -0.596   7.320  0.00  0.00    +0.176 HD
ATOM     21  H   UNL     1       3.107   1.552   3.993  0.00  0.00    +0.158 HD
BRANCH  18  22
ATOM     22  N   UNL     1       5.433   0.138   6.500  0.00  0.00    -0.188 NA
ATOM     23  C   UNL     1       6.225  -0.369   7.394  0.00  0.00    +0.138 C 
BRANCH  23  24
ATOM     24  C   UNL     1       7.681  -0.149   7.299  0.00  0.00    -0.005 A 
ATOM     25  C   UNL     1       8.208   0.611   6.253  0.00  0.00    +0.011 A 
ATOM     26  C   UNL     1       9.570   0.814   6.170  0.00  0.00    +0.020 A 
ATOM     27  C   UNL     1      10.414   0.266   7.122  0.00  0.00    +0.041 A 
ATOM     28  C   UNL     1       9.897  -0.489   8.162  0.00  0.00    +0.020 A 
ATOM     29  C   UNL     1       8.537  -0.694   8.259  0.00  0.00    +0.011 A 
ATOM     30 CL   UNL     1      12.126   0.525   7.010  0.00  0.00    -0.084 Cl
ENDBRANCH  23  24
ENDBRANCH  18  22
ENDBRANCH   1  16
TORSDOF 5
