REMARK  Name = ZINC03872621
REMARK  12 active torsions:
REMARK  status: ('A' for Active; 'I' for Inactive)
REMARK    1  A    between atoms: C_1  and  C_2
REMARK    2  A    between atoms: C_2  and  O_4
REMARK    3  A    between atoms: O_4  and  C_5
REMARK    4  A    between atoms: C_7  and  O_33
REMARK    5  A    between atoms: C_11  and  C_32
REMARK    6  A    between atoms: C_12  and  O_19
REMARK    7  A    between atoms: C_16  and  C_17
REMARK    8  A    between atoms: C_16  and  C_18
REMARK    9  A    between atoms: C_20  and  O_31
REMARK   10  A    between atoms: C_21  and  C_30
REMARK   11  A    between atoms: C_23  and  C_27
REMARK   12  A    between atoms: C_23  and  C_28
REMARK                            x       y       z     vdW  Elec       q    Type
REMARK                         _______ _______ _______ _____ _____    ______ ____
ROOT
ATOM      1  C   UNL     1      -1.116  -2.311   0.118  0.00  0.00    +0.240 C 
ATOM      2  C   UNL     1      -1.115  -2.873   1.531  0.00  0.00    +0.162 C 
ATOM      3  C   UNL     1      -1.125  -4.392   1.599  0.00  0.00    +0.039 C 
ATOM      4  C   UNL     1      -2.252  -4.977   0.753  0.00  0.00    +0.038 C 
ATOM      5  C   UNL     1      -2.162  -6.504   0.666  0.00  0.00    +0.124 C 
ATOM      6  C   UNL     1      -0.763  -6.987   0.315  0.00  0.00    +0.032 C 
ATOM      7  C   UNL     1       0.179  -6.566   1.436  0.00  0.00    +0.009 C 
ATOM      8  C   UNL     1       0.234  -5.037   1.536  0.00  0.00    -0.029 C 
ATOM      9  C   UNL     1       1.110  -4.511   0.400  0.00  0.00    +0.011 C 
ATOM     10  C   UNL     1       0.988  -4.761   2.864  0.00  0.00    +0.011 C 
ATOM     11  C   UNL     1      -2.359  -4.364  -0.616  0.00  0.00    +0.164 C 
ATOM     12  C   UNL     1      -2.307  -2.836  -0.680  0.00  0.00    +0.143 C 
ATOM     13  O   UNL     1      -2.152  -2.471  -2.048  0.00  0.00    -0.356 OA
ATOM     14  C   UNL     1      -2.975  -2.968  -3.075  0.00  0.00    +0.092 C 
ATOM     15  C   UNL     1      -3.566  -4.357  -2.861  0.00  0.00    +0.116 C 
ATOM     16  C   UNL     1      -3.623  -4.709  -1.383  0.00  0.00    +0.171 C 
ATOM     17  O   UNL     1      -4.608  -5.208  -0.916  0.00  0.00    -0.294 OA
ATOM     18  C   UNL     1      -4.121  -1.983  -3.368  0.00  0.00    +0.046 C 
ATOM     19  C   UNL     1      -3.587  -2.187  -0.155  0.00  0.00    +0.049 C 
ATOM     20  C   UNL     1      -3.550  -4.726   1.573  0.00  0.00    +0.017 C 
ENDROOT
BRANCH   5  21
ATOM     21  O   UNL     1      -3.096  -7.019  -0.281  0.00  0.00    -0.391 OA
ATOM     22  H   UNL     1      -3.075  -7.981  -0.371  0.00  0.00    +0.210 HD
ENDBRANCH   5  21
BRANCH  14  23
ATOM     23  C   UNL     1      -2.133  -3.032  -4.347  0.00  0.00    -0.000 C 
ATOM     24  C   UNL     1      -0.878  -2.655  -4.322  0.00  0.00    +0.007 C 
ENDBRANCH  14  23
BRANCH  11  25
ATOM     25  O   UNL     1      -1.262  -4.843  -1.432  0.00  0.00    -0.377 OA
ATOM     26  H   UNL     1      -1.260  -4.492  -2.333  0.00  0.00    +0.211 HD
ENDBRANCH  11  25
BRANCH   2  27
ATOM     27  O   UNL     1      -0.026  -2.299   2.260  0.00  0.00    -0.388 OA
ATOM     28  H   UNL     1      -0.066  -1.336   2.331  0.00  0.00    +0.210 HD
ENDBRANCH   2  27
BRANCH   1  29
ATOM     29  O   UNL     1      -1.219  -0.877   0.189  0.00  0.00    -0.456 OA
BRANCH  29  31
ATOM     30  C   UNL     1      -0.099   1.320   0.298  0.00  0.00    +0.136 C 
ATOM     31  C   UNL     1      -0.070  -0.185   0.224  0.00  0.00    +0.304 C 
ATOM     32  O   UNL     1       0.988  -0.768   0.196  0.00  0.00    -0.251 OA
ENDBRANCH  29  31
ENDBRANCH   1  29
TORSDOF 6
