REMARK  Name = ZINC06074462
REMARK  11 active torsions:
REMARK  status: ('A' for Active; 'I' for Inactive)
REMARK    1  A    between atoms: C_1  and  C_2
REMARK    2  A    between atoms: C_2  and  C_3
REMARK    3  A    between atoms: C_2  and  C_4
REMARK    4  A    between atoms: C_2  and  N_5
REMARK    5  A    between atoms: C_6  and  C_8
REMARK    6  A    between atoms: C_8  and  C_10
REMARK    7  A    between atoms: C_8  and  N_17
REMARK    8  A    between atoms: N_17  and  C_18
REMARK    9  A    between atoms: C_25  and  C_27
REMARK   10  A    between atoms: C_28  and  N_35
REMARK   11  A    between atoms: C_29  and  C_32
REMARK                            x       y       z     vdW  Elec       q    Type
REMARK                         _______ _______ _______ _____ _____    ______ ____
ROOT
ATOM      1  N   UNL     1      -1.342   3.426   0.921  0.00  0.00    -0.251 N 
ATOM      2  C   UNL     1      -2.545   3.688   1.471  0.00  0.00    +0.262 C 
ATOM      3  O   UNL     1      -3.539   3.121   1.058  0.00  0.00    -0.269 OA
ENDROOT
BRANCH   1   4
ATOM      4  C   UNL     1      -0.185   3.992   1.468  0.00  0.00    +0.038 A 
ATOM      5  C   UNL     1       0.654   3.225   2.266  0.00  0.00    +0.025 A 
ATOM      6  C   UNL     1       1.798   3.784   2.800  0.00  0.00    +0.022 A 
ATOM      7  C   UNL     1       2.103   5.111   2.550  0.00  0.00    +0.041 A 
ATOM      8  C   UNL     1       1.266   5.878   1.759  0.00  0.00    +0.022 A 
ATOM      9  C   UNL     1       0.123   5.323   1.218  0.00  0.00    +0.025 A 
ATOM     10 CL   UNL     1       3.539   5.812   3.228  0.00  0.00    -0.084 Cl
ENDBRANCH   1   4
BRANCH   2  11
ATOM     11  C   UNL     1      -2.654   4.653   2.566  0.00  0.00    +0.116 A 
ATOM     12  C   UNL     1      -3.797   5.159   3.189  0.00  0.00    +0.076 A 
ATOM     13  C   UNL     1      -3.495   6.066   4.205  0.00  0.00    +0.155 A 
ATOM     14  N   UNL     1      -2.237   6.352   4.458  0.00  0.00    -0.203 NA
ATOM     15  S   UNL     1      -1.367   5.504   3.454  0.00  0.00    +0.019 S 
BRANCH  13  16
ATOM     16  C   UNL     1      -4.574   6.702   4.981  0.00  0.00    +0.262 C 
ATOM     17  O   UNL     1      -5.736   6.433   4.741  0.00  0.00    -0.269 OA
ATOM     18  N   UNL     1      -4.274   7.582   5.957  0.00  0.00    -0.324 N 
ATOM     19  H   UNL     1      -3.348   7.797   6.148  0.00  0.00    +0.145 HD
ATOM     20  H   UNL     1      -4.985   8.001   6.468  0.00  0.00    +0.145 HD
ENDBRANCH  13  16
BRANCH  12  21
ATOM     21  N   UNL     1      -5.091   4.796   2.839  0.00  0.00    -0.355 N 
ATOM     22  H   UNL     1      -5.239   4.157   2.124  0.00  0.00    +0.142 HD
ATOM     23  H   UNL     1      -5.847   5.182   3.309  0.00  0.00    +0.142 HD
ENDBRANCH  12  21
ENDBRANCH   2  11
BRANCH   1  24
ATOM     24  C   UNL     1      -1.247   2.550  -0.249  0.00  0.00    +0.197 C 
BRANCH  24  25
ATOM     25  C   UNL     1       0.203   2.287  -0.563  0.00  0.00    -0.018 A 
ATOM     26  C   UNL     1       1.054   3.342  -0.836  0.00  0.00    +0.007 A 
ATOM     27  C   UNL     1       2.383   3.101  -1.129  0.00  0.00    +0.020 A 
ATOM     28  C   UNL     1       2.862   1.804  -1.150  0.00  0.00    +0.041 A 
ATOM     29  C   UNL     1       2.010   0.748  -0.877  0.00  0.00    +0.020 A 
ATOM     30  C   UNL     1       0.682   0.990  -0.584  0.00  0.00    +0.007 A 
ATOM     31 CL   UNL     1       4.531   1.500  -1.518  0.00  0.00    -0.084 Cl
ENDBRANCH  24  25
BRANCH  24  33
ATOM     32  N   UNL     1      -1.937   2.592  -2.624  0.00  0.00    -0.309 N 
ATOM     33  C   UNL     1      -1.903   3.217  -1.431  0.00  0.00    +0.239 C 
ATOM     34  O   UNL     1      -2.402   4.316  -1.307  0.00  0.00    -0.273 OA
ATOM     35  H   UNL     1      -1.538   1.713  -2.723  0.00  0.00    +0.149 HD
BRANCH  32  37
ATOM     36  C   UNL     1      -1.869   4.565  -4.068  0.00  0.00    +0.031 C 
ATOM     37  C   UNL     1      -2.575   3.240  -3.773  0.00  0.00    +0.026 C 
ATOM     38  C   UNL     1      -2.475   2.325  -4.995  0.00  0.00    +0.031 C 
ATOM     39  C   UNL     1      -4.048   3.507  -3.454  0.00  0.00    +0.031 C 
ENDBRANCH  32  37
ENDBRANCH  24  33
ENDBRANCH   1  24
TORSDOF 8
