REMARK  Name = ZINC52802622
REMARK  8 active torsions:
REMARK  status: ('A' for Active; 'I' for Inactive)
REMARK    1  A    between atoms: C_1  and  N_2
REMARK    2  A    between atoms: N_2  and  C_3
REMARK    3  A    between atoms: N_2  and  C_12
REMARK    4  A    between atoms: C_3  and  C_4
REMARK    5  A    between atoms: C_4  and  C_5
REMARK    6  A    between atoms: C_5  and  C_6
REMARK    7  A    between atoms: C_12  and  C_13
REMARK    8  A    between atoms: N_15  and  N_16
REMARK                            x       y       z     vdW  Elec       q    Type
REMARK                         _______ _______ _______ _____ _____    ______ ____
ROOT
ATOM      1  C   UNL     1      -2.067  -0.116  -1.267  0.00  0.00    +0.213 C 
ATOM      2  O   UNL     1      -1.471   0.527  -2.104  0.00  0.00    -0.276 OA
ATOM      3  N   UNL     1      -3.349  -0.476  -1.480  0.00  0.00    -0.225 N 
ATOM      4  H   UNL     1      -3.826  -0.990  -0.809  0.00  0.00    +0.173 HD
ENDROOT
BRANCH   3   5
ATOM      5  N   UNL     1      -3.991  -0.107  -2.669  0.00  0.00    -0.137 N 
ATOM      6  C   UNL     1      -4.910   0.877  -2.761  0.00  0.00    +0.263 C 
ATOM      7  O   UNL     1      -5.321   1.583  -1.865  0.00  0.00    -0.271 OA
ATOM      8  C   UNL     1      -5.318   0.913  -4.215  0.00  0.00    +0.114 C 
ATOM      9  C   UNL     1      -4.982   2.268  -4.829  0.00  0.00    +0.035 C 
ATOM     10  C   UNL     1      -5.376   2.272  -6.308  0.00  0.00    +0.003 C 
ATOM     11  C   UNL     1      -6.875   1.993  -6.437  0.00  0.00    +0.000 C 
ATOM     12  C   UNL     1      -7.192   0.621  -5.839  0.00  0.00    +0.003 C 
ATOM     13  C   UNL     1      -6.806   0.610  -4.357  0.00  0.00    +0.035 C 
ATOM     14  N   UNL     1      -4.515  -0.148  -4.838  0.00  0.00    -0.284 N 
ATOM     15  C   UNL     1      -3.767  -0.684  -3.855  0.00  0.00    +0.326 C 
ATOM     16  O   UNL     1      -2.978  -1.593  -4.027  0.00  0.00    -0.251 OA
ATOM     17  H   UNL     1      -4.521  -0.408  -5.772  0.00  0.00    +0.151 HD
ENDBRANCH   3   5
BRANCH   1  18
ATOM     18  C   UNL     1      -1.376  -0.512   0.012  0.00  0.00    +0.020 C 
BRANCH  18  20
ATOM     19  C   UNL     1      -0.018   1.465   0.010  0.00  0.00    -0.096 C 
ATOM     20  N   UNL     1       0.002  -0.004   0.002  0.00  0.00    +0.384 N 
ATOM     21  H   UNL     1       0.474  -0.330  -0.828  0.00  0.00    -0.082 HD
BRANCH  20  22
ATOM     22  C   UNL     1       0.713  -0.491   1.192  0.00  0.00    -0.078 C 
BRANCH  22  23
ATOM     23  C   UNL     1       2.180  -0.066   1.119  0.00  0.00    -0.014 C 
BRANCH  23  24
ATOM     24  C   UNL     1       2.921  -0.572   2.359  0.00  0.00    +0.033 C 
BRANCH  24  25
ATOM     25  C   UNL     1       4.366  -0.154   2.287  0.00  0.00    -0.047 A 
ATOM     26  C   UNL     1       5.294  -0.975   1.675  0.00  0.00    +0.003 A 
ATOM     27  C   UNL     1       6.620  -0.591   1.609  0.00  0.00    +0.000 A 
ATOM     28  C   UNL     1       7.019   0.615   2.154  0.00  0.00    +0.000 A 
ATOM     29  C   UNL     1       6.091   1.437   2.766  0.00  0.00    +0.000 A 
ATOM     30  C   UNL     1       4.764   1.055   2.828  0.00  0.00    +0.003 A 
ENDBRANCH  24  25
ENDBRANCH  23  24
ENDBRANCH  22  23
ENDBRANCH  20  22
ENDBRANCH  18  20
ENDBRANCH   1  18
TORSDOF 7
