REMARK  Name = ZINC36257546
REMARK  9 active torsions:
REMARK  status: ('A' for Active; 'I' for Inactive)
REMARK    1  A    between atoms: C_1  and  C_2
REMARK    2  A    between atoms: C_4  and  C_9
REMARK    3  A    between atoms: C_7  and  O_8
REMARK    4  A    between atoms: C_13  and  C_26
REMARK    5  A    between atoms: C_14  and  N_16
REMARK    6  A    between atoms: N_16  and  C_17
REMARK    7  A    between atoms: C_21  and  N_23
REMARK    8  A    between atoms: C_26  and  O_28
REMARK    9  A    between atoms: O_28  and  C_29
REMARK                            x       y       z     vdW  Elec       q    Type
REMARK                         _______ _______ _______ _____ _____    ______ ____
ROOT
ATOM      1  C   UNL     1      -0.791  -2.944  -2.566  0.00  0.00    +0.027 C 
ATOM      2  C   UNL     1      -0.451  -4.258  -2.548  0.00  0.00    +0.062 C 
ATOM      3  C   UNL     1      -0.238  -5.136  -1.385  0.00  0.00    +0.209 C 
ATOM      4  O   UNL     1      -0.354  -4.739  -0.238  0.00  0.00    -0.286 OA
ATOM      5  C   UNL     1       0.117  -6.498  -1.697  0.00  0.00    +0.134 C 
ATOM      6  C   UNL     1       0.224  -6.851  -3.046  0.00  0.00    +0.088 C 
ATOM      7  S   UNL     1      -0.161  -5.351  -3.925  0.00  0.00    -0.069 S 
ENDROOT
BRANCH   1  11
ATOM      8  C   UNL     1      -2.871   0.564   0.297  0.00  0.00    +0.047 C 
ATOM      9  C   UNL     1      -1.811  -0.483   0.069  0.00  0.00    -0.008 A 
ATOM     10  C   UNL     1      -1.797  -1.202  -1.105  0.00  0.00    +0.015 A 
ATOM     11  C   UNL     1      -0.811  -2.174  -1.316  0.00  0.00    -0.023 A 
ATOM     12  C   UNL     1       0.156  -2.409  -0.330  0.00  0.00    +0.011 A 
ATOM     13  C   UNL     1       0.133  -1.684   0.839  0.00  0.00    +0.046 A 
ATOM     14  C   UNL     1      -0.846  -0.716   1.041  0.00  0.00    +0.120 A 
BRANCH  14  15
ATOM     15  O   UNL     1      -0.861  -0.001   2.195  0.00  0.00    -0.507 OA
ATOM     16  H   UNL     1      -1.386  -0.402   2.900  0.00  0.00    +0.292 HD
ENDBRANCH  14  15
ENDBRANCH   1  11
BRANCH   6  17
ATOM     17  N   UNL     1       0.547  -8.072  -3.571  0.00  0.00    -0.308 N 
ATOM     18  H   UNL     1       0.651  -8.839  -2.986  0.00  0.00    +0.153 HD
BRANCH  17  19
ATOM     19  C   UNL     1       0.726  -8.215  -4.950  0.00  0.00    +0.034 A 
ATOM     20  C   UNL     1       1.280  -7.179  -5.691  0.00  0.00    +0.023 A 
ATOM     21  C   UNL     1       1.456  -7.324  -7.053  0.00  0.00    +0.004 A 
ATOM     22  C   UNL     1       1.081  -8.499  -7.679  0.00  0.00    +0.033 A 
ATOM     23  C   UNL     1       0.530  -9.532  -6.945  0.00  0.00    +0.128 A 
ATOM     24  C   UNL     1       0.356  -9.396  -5.581  0.00  0.00    +0.056 A 
BRANCH  23  25
ATOM     25  N   UNL     1       0.130 -10.787  -7.619  0.00  0.00    +0.056 N 
ATOM     26  O   UNL     1       0.286 -10.909  -8.812  0.00  0.00    -0.126 OA
ATOM     27  O   UNL     1      -0.353 -11.691  -6.978  0.00  0.00    -0.126 OA
ENDBRANCH  23  25
ENDBRANCH  17  19
ENDBRANCH   6  17
BRANCH   5  28
ATOM     28  C   UNL     1       0.359  -7.476  -0.639  0.00  0.00    +0.345 C 
ATOM     29  O   UNL     1       0.658  -8.620  -0.925  0.00  0.00    -0.245 OA
BRANCH  28  30
ATOM     30  O   UNL     1       0.249  -7.111   0.655  0.00  0.00    -0.464 OA
ATOM     31  C   UNL     1       0.499  -8.119   1.637  0.00  0.00    +0.280 C 
ENDBRANCH  28  30
ENDBRANCH   5  28
TORSDOF 7
