REMARK  Name = ZINC08985621
REMARK  10 active torsions:
REMARK  status: ('A' for Active; 'I' for Inactive)
REMARK    1  A    between atoms: C_1  and  C_2
REMARK    2  A    between atoms: C_2  and  C_4
REMARK    3  A    between atoms: C_2  and  S_16
REMARK    4  A    between atoms: N_6  and  C_7
REMARK    5  A    between atoms: C_10  and  N_13
REMARK    6  A    between atoms: N_13  and  C_14
REMARK    7  A    between atoms: N_13  and  C_15
REMARK    8  A    between atoms: S_16  and  C_17
REMARK    9  A    between atoms: C_20  and  C_23
REMARK   10  A    between atoms: N_21  and  N_22
REMARK                            x       y       z     vdW  Elec       q    Type
REMARK                         _______ _______ _______ _____ _____    ______ ____
ROOT
ATOM      1  C   UNL     1      -0.777  -2.686   1.343  0.00  0.00    +0.029 C 
ATOM      2  C   UNL     1       0.116  -2.981   0.136  0.00  0.00    +0.137 C 
ENDROOT
BRANCH   2   3
ATOM      3  C   UNL     1       0.303  -4.470   0.001  0.00  0.00    +0.230 C 
ATOM      4  O   UNL     1       1.276  -5.005   0.487  0.00  0.00    -0.274 OA
ATOM      5  N   UNL     1      -0.612  -5.206  -0.659  0.00  0.00    -0.285 N 
ATOM      6  H   UNL     1      -1.428  -4.792  -0.982  0.00  0.00    +0.155 HD
BRANCH   5   7
ATOM      7  C   UNL     1      -0.386  -6.572  -0.881  0.00  0.00    +0.034 A 
ATOM      8  C   UNL     1       0.906  -7.036  -1.089  0.00  0.00    +0.025 A 
ATOM      9  C   UNL     1       1.131  -8.381  -1.303  0.00  0.00    +0.025 A 
ATOM     10  C   UNL     1       0.063  -9.269  -1.320  0.00  0.00    +0.029 A 
ATOM     11  C   UNL     1      -1.230  -8.804  -1.117  0.00  0.00    +0.025 A 
ATOM     12  C   UNL     1      -1.453  -7.459  -0.899  0.00  0.00    +0.025 A 
BRANCH  10  13
ATOM     13  N   UNL     1       0.289 -10.632  -1.540  0.00  0.00    -0.336 N 
ATOM     14  C   UNL     1      -0.837 -11.568  -1.558  0.00  0.00    +0.129 C 
ATOM     15  C   UNL     1       1.653 -11.122  -1.754  0.00  0.00    +0.129 C 
ENDBRANCH  10  13
ENDBRANCH   5   7
ENDBRANCH   2   3
BRANCH   2  16
ATOM     16  S   UNL     1       1.727  -2.189   0.370  0.00  0.00    -0.072 S 
BRANCH  16  17
ATOM     17  C   UNL     1       1.242  -0.495   0.346  0.00  0.00    +0.209 A 
ATOM     18  N   UNL     1       0.023  -0.035   0.194  0.00  0.00    -0.121 NA
ATOM     19  N   UNL     1       0.034   1.250   0.226  0.00  0.00    -0.132 NA
ATOM     20  C   UNL     1       1.251   1.683   0.399  0.00  0.00    +0.154 A 
ATOM     21  N   UNL     1       2.065   0.586   0.481  0.00  0.00    -0.228 N 
BRANCH  20  22
ATOM     22  C   UNL     1       1.683   3.123   0.490  0.00  0.00    +0.059 C 
ATOM     23  C   UNL     1       0.979   3.792   1.673  0.00  0.00    +0.011 C 
ATOM     24  C   UNL     1       1.417   5.255   1.766  0.00  0.00    +0.001 C 
ATOM     25  C   UNL     1       1.044   5.983   0.472  0.00  0.00    +0.000 C 
ATOM     26  C   UNL     1       1.747   5.314  -0.710  0.00  0.00    +0.001 C 
ATOM     27  C   UNL     1       1.309   3.851  -0.803  0.00  0.00    +0.011 C 
ENDBRANCH  20  22
BRANCH  21  28
ATOM     28  N   UNL     1       3.419   0.576   0.662  0.00  0.00    -0.295 N 
ATOM     29  H   UNL     1       3.902   0.595  -0.224  0.00  0.00    +0.163 HD
ATOM     30  H   UNL     1       3.711   1.342   1.250  0.00  0.00    +0.163 HD
ENDBRANCH  21  28
ENDBRANCH  16  17
ENDBRANCH   2  16
TORSDOF 7
