REMARK  Name = ZINC06198208
REMARK  7 active torsions:
REMARK  status: ('A' for Active; 'I' for Inactive)
REMARK    1  A    between atoms: C_1  and  C_2
REMARK    2  A    between atoms: C_2  and  C_3
REMARK    3  A    between atoms: C_10  and  C_15
REMARK    4  A    between atoms: C_15  and  C_17
REMARK    5  A    between atoms: C_15  and  N_68
REMARK    6  A    between atoms: N_21  and  C_22
REMARK    7  A    between atoms: C_32  and  C_34
REMARK                            x       y       z     vdW  Elec       q    Type
REMARK                         _______ _______ _______ _____ _____    ______ ____
ROOT
ATOM      1  C   UNL     1       2.442  -0.623   0.042  0.00  0.00    +0.039 C 
ENDROOT
BRANCH   1   9
ATOM      2  C   UNL     1       1.640  -3.440  -5.409  0.00  0.00    -0.047 A 
ATOM      3  C   UNL     1       2.873  -3.095  -5.945  0.00  0.00    +0.005 A 
ATOM      4  C   UNL     1       3.772  -2.345  -5.218  0.00  0.00    +0.026 A 
ATOM      5  C   UNL     1       3.441  -1.927  -3.933  0.00  0.00    +0.049 A 
ATOM      6  C   UNL     1       2.190  -2.278  -3.392  0.00  0.00    -0.001 A 
ATOM      7  C   UNL     1       1.294  -3.041  -4.149  0.00  0.00    +0.013 A 
ATOM      8  C   UNL     1       1.851  -1.834  -2.039  0.00  0.00    +0.017 A 
ATOM      9  C   UNL     1       2.760  -1.096  -1.353  0.00  0.00    +0.011 A 
ATOM     10  C   UNL     1       3.998  -0.766  -1.944  0.00  0.00    +0.251 A 
ATOM     11  O   UNL     1       4.798  -0.098  -1.311  0.00  0.00    -0.268 OA
ATOM     12  N   UNL     1       4.320  -1.175  -3.183  0.00  0.00    -0.322 N 
ATOM     13  H   UNL     1       5.210  -0.929  -3.567  0.00  0.00    +0.169 HD
BRANCH   2  15
ATOM     14  C   UNL     1      -0.225  -3.332  -7.039  0.00  0.00    +0.009 C 
ATOM     15  C   UNL     1       0.675  -4.262  -6.223  0.00  0.00    +0.032 C 
ENDBRANCH   2  15
ENDBRANCH   1   9
BRANCH   1  23
ATOM     16  C   UNL     1       3.676  -2.521   0.898  0.00  0.00    -0.058 C 
ATOM     17  C   UNL     1       4.901  -2.920   1.729  0.00  0.00    +0.089 C 
ATOM     18  N   UNL     1       4.745  -2.370   3.084  0.00  0.00    -0.299 N 
ATOM     19  C   UNL     1       4.429  -0.940   3.223  0.00  0.00    +0.089 C 
ATOM     20  C   UNL     1       3.223  -0.620   2.333  0.00  0.00    -0.058 C 
ATOM     21  C   UNL     1       4.888  -3.155   4.170  0.00  0.00    +0.282 C 
ATOM     22  O   UNL     1       4.824  -2.670   5.285  0.00  0.00    -0.267 OA
ATOM     23  N   UNL     1       3.525  -1.051   0.951  0.00  0.00    +0.391 N 
ATOM     24  H   UNL     1       4.405  -0.615   0.651  0.00  0.00    -0.080 HD
BRANCH  21  25
ATOM     25  C   UNL     1       5.121  -4.594   4.009  0.00  0.00    +0.189 A 
ATOM     26  C   UNL     1       5.153  -5.519   5.013  0.00  0.00    +0.054 A 
ATOM     27  C   UNL     1       5.403  -6.761   4.409  0.00  0.00    +0.042 A 
ATOM     28  C   UNL     1       5.512  -6.543   3.080  0.00  0.00    +0.196 A 
ATOM     29  O   UNL     1       5.336  -5.237   2.842  0.00  0.00    -0.458 OA
ENDBRANCH  21  25
ENDBRANCH   1  23
BRANCH   1  30
ATOM     30  C   UNL     1       2.362   0.882   0.055  0.00  0.00    +0.143 A 
ATOM     31  N   UNL     1       3.368   1.720   0.001  0.00  0.00    -0.115 NA
ATOM     32  N   UNL     1       2.892   2.917   0.041  0.00  0.00    -0.023 NA
ATOM     33  N   UNL     1       1.607   2.864   0.114  0.00  0.00    -0.044 NA
ATOM     34  N   UNL     1       1.242   1.626   0.122  0.00  0.00    -0.227 N 
BRANCH  34  35
ATOM     35  C   UNL     1      -0.133   1.125   0.196  0.00  0.00    +0.111 C 
ATOM     36  C   UNL     1      -0.820   1.656   1.471  0.00  0.00    +0.027 C 
ATOM     37  C   UNL     1      -1.593   2.911   0.991  0.00  0.00    +0.002 C 
ATOM     38  C   UNL     1      -2.107   2.483  -0.406  0.00  0.00    +0.002 C 
ATOM     39  C   UNL     1      -0.950   1.651  -0.997  0.00  0.00    +0.027 C 
ENDBRANCH  34  35
ENDBRANCH   1  30
TORSDOF 6
