REMARK  Name = ZINC41515125
REMARK  7 active torsions:
REMARK  status: ('A' for Active; 'I' for Inactive)
REMARK    1  A    between atoms: C_1  and  C_2
REMARK    2  A    between atoms: C_4  and  O_31
REMARK    3  A    between atoms: C_5  and  C_20
REMARK    4  A    between atoms: C_11  and  C_12
REMARK    5  A    between atoms: C_20  and  N_21
REMARK    6  A    between atoms: C_23  and  C_30
REMARK    7  A    between atoms: C_26  and  C_29
REMARK                            x       y       z     vdW  Elec       q    Type
REMARK                         _______ _______ _______ _____ _____    ______ ____
ROOT
ATOM      1  C   UNL     1      -1.789   1.414   0.327  0.00  0.00    +0.045 C 
ATOM      2  C   UNL     1      -1.455  -0.053   0.236  0.00  0.00    -0.033 A 
ATOM      3  C   UNL     1      -1.588  -0.713  -0.953  0.00  0.00    +0.050 A 
ATOM      4  C   UNL     1      -1.280  -2.068  -1.039  0.00  0.00    +0.122 A 
ATOM      5  C   UNL     1      -0.836  -2.762   0.075  0.00  0.00    +0.020 A 
ATOM      6  C   UNL     1      -0.696  -2.106   1.291  0.00  0.00    +0.145 A 
ATOM      7  C   UNL     1      -1.004  -0.738   1.365  0.00  0.00    +0.071 A 
ATOM      8  C   UNL     1      -0.753  -0.330   2.759  0.00  0.00    +0.232 C 
ATOM      9  O   UNL     1      -0.900   0.776   3.250  0.00  0.00    -0.283 OA
ATOM     10  C   UNL     1      -0.287  -1.556   3.424  0.00  0.00    +0.176 C 
ATOM     11  C   UNL     1       0.069  -1.675   4.728  0.00  0.00    +0.059 C 
ATOM     12  O   UNL     1      -0.290  -2.548   2.502  0.00  0.00    -0.451 OA
ENDROOT
BRANCH  11  13
ATOM     13  C   UNL     1       0.170  -0.479   5.574  0.00  0.00    -0.003 A 
ATOM     14  C   UNL     1       0.759   0.689   5.074  0.00  0.00    +0.009 A 
ATOM     15  C   UNL     1       0.850   1.807   5.874  0.00  0.00    +0.001 A 
ATOM     16  C   UNL     1       0.361   1.779   7.170  0.00  0.00    +0.001 A 
ATOM     17  C   UNL     1      -0.223   0.630   7.672  0.00  0.00    +0.020 A 
ATOM     18  C   UNL     1      -0.328  -0.497   6.883  0.00  0.00    +0.048 A 
ATOM     19 CL   UNL     1      -1.068  -1.936   7.513  0.00  0.00    -0.083 Cl
ENDBRANCH  11  13
BRANCH   4  20
ATOM     20  O   UNL     1      -1.416  -2.714  -2.225  0.00  0.00    -0.506 OA
ATOM     21  H   UNL     1      -0.621  -2.699  -2.775  0.00  0.00    +0.292 HD
ENDBRANCH   4  20
BRANCH   5  22
ATOM     22  C   UNL     1      -0.507  -4.229  -0.033  0.00  0.00    -0.036 C 
BRANCH  22  23
ATOM     23  N   UNL     1       0.909  -4.387  -0.391  0.00  0.00    +0.383 N 
ATOM     24  C   UNL     1       1.139  -3.829  -1.729  0.00  0.00    -0.075 C 
ATOM     25  C   UNL     1       2.628  -3.918  -2.074  0.00  0.00    -0.031 C 
ATOM     26  C   UNL     1       3.065  -5.386  -2.049  0.00  0.00    +0.003 C 
ATOM     27  C   UNL     1       2.752  -5.978  -0.672  0.00  0.00    -0.031 C 
ATOM     28  C   UNL     1       1.259  -5.813  -0.379  0.00  0.00    -0.075 C 
ATOM     29  C   UNL     1       3.567  -5.247   0.396  0.00  0.00    +0.005 C 
ATOM     30  C   UNL     1       2.864  -3.337  -3.470  0.00  0.00    +0.005 C 
ATOM     31  H   UNL     1       1.482  -3.896   0.279  0.00  0.00    -0.081 HD
ENDBRANCH  22  23
ENDBRANCH   5  22
TORSDOF 4
