REMARK  Name = ZINC01002816
REMARK  6 active torsions:
REMARK  status: ('A' for Active; 'I' for Inactive)
REMARK    1  A    between atoms: C_1  and  C_2
REMARK    2  A    between atoms: C_3  and  C_19
REMARK    3  A    between atoms: C_4  and  C_16
REMARK    4  A    between atoms: C_5  and  N_7
REMARK    5  A    between atoms: C_8  and  C_10
REMARK    6  A    between atoms: N_14  and  C_15
REMARK                            x       y       z     vdW  Elec       q    Type
REMARK                         _______ _______ _______ _____ _____    ______ ____
ROOT
ATOM      1  C   UNL     1       3.746   2.372  -2.593  0.00  0.00    +0.052 C 
ATOM      2  C   UNL     1       4.210   2.615  -1.180  0.00  0.00    -0.003 A 
ATOM      3  C   UNL     1       3.609   2.246  -0.020  0.00  0.00    +0.007 A 
ATOM      4  C   UNL     1       4.286   2.609   1.210  0.00  0.00    +0.073 A 
ATOM      5  C   UNL     1       5.481   3.304   1.084  0.00  0.00    +0.085 A 
ATOM      6  S   UNL     1       5.678   3.459  -0.629  0.00  0.00    -0.077 S 
ENDROOT
BRANCH   3   7
ATOM      7  C   UNL     1       2.326   1.503  -0.011  0.00  0.00    +0.002 A 
ATOM      8  C   UNL     1       1.117   2.195   0.018  0.00  0.00    +0.011 A 
ATOM      9  C   UNL     1      -0.074   1.498   0.025  0.00  0.00    +0.021 A 
ATOM     10  C   UNL     1      -0.070   0.114   0.005  0.00  0.00    +0.042 A 
ATOM     11  C   UNL     1       1.128  -0.579  -0.024  0.00  0.00    +0.040 A 
ATOM     12  C   UNL     1       2.326   0.108  -0.032  0.00  0.00    +0.050 A 
ATOM     13 CL   UNL     1       3.827  -0.762  -0.067  0.00  0.00    -0.083 Cl
ATOM     14 CL   UNL     1      -1.573  -0.756   0.014  0.00  0.00    -0.083 Cl
ENDBRANCH   3   7
BRANCH   4  15
ATOM     15  C   UNL     1       3.736   2.260   2.522  0.00  0.00    +0.244 C 
ATOM     16  O   UNL     1       4.035   1.203   3.045  0.00  0.00    -0.270 OA
ATOM     17  N   UNL     1       2.898   3.110   3.148  0.00  0.00    -0.325 N 
ATOM     18  H   UNL     1       2.660   3.953   2.731  0.00  0.00    +0.145 HD
ATOM     19  H   UNL     1       2.533   2.879   4.017  0.00  0.00    +0.145 HD
ENDBRANCH   4  15
BRANCH   5  20
ATOM     20  N   UNL     1       6.316   3.764   2.088  0.00  0.00    -0.274 N 
ATOM     21  C   UNL     1       7.447   4.426   1.774  0.00  0.00    +0.267 C 
ATOM     22  O   UNL     1       7.784   4.536   0.610  0.00  0.00    -0.268 OA
ATOM     23  H   UNL     1       6.087   3.610   3.018  0.00  0.00    +0.156 HD
BRANCH  21  24
ATOM     24  C   UNL     1       8.274   5.016   2.838  0.00  0.00    +0.123 A 
ATOM     25  C   UNL     1       8.080   4.897   4.204  0.00  0.00    +0.054 A 
ATOM     26  C   UNL     1       9.117   5.627   4.789  0.00  0.00    +0.135 A 
ATOM     27  N   UNL     1       9.850   6.126   3.827  0.00  0.00    -0.179 NA
ATOM     28  N   UNL     1       9.391   5.786   2.677  0.00  0.00    -0.262 N 
ATOM     29  C   UNL     1       9.974   6.169   1.388  0.00  0.00    +0.173 C 
ENDBRANCH  21  24
ENDBRANCH   5  20
TORSDOF 4
