REMARK  Name = ZINC14418339
REMARK  11 active torsions:
REMARK  status: ('A' for Active; 'I' for Inactive)
REMARK    1  A    between atoms: C_1  and  C_2
REMARK    2  A    between atoms: C_2  and  C_38
REMARK    3  A    between atoms: C_6  and  O_37
REMARK    4  A    between atoms: C_8  and  C_14
REMARK    5  A    between atoms: C_14  and  C_16
REMARK    6  A    between atoms: C_14  and  N_65
REMARK    7  A    between atoms: C_16  and  O_17
REMARK    8  A    between atoms: O_17  and  C_18
REMARK    9  A    between atoms: C_18  and  C_19
REMARK   10  A    between atoms: C_18  and  C_25
REMARK   11  A    between atoms: C_18  and  C_31
REMARK                            x       y       z     vdW  Elec       q    Type
REMARK                         _______ _______ _______ _____ _____    ______ ____
ROOT
ATOM      1  O   UNL     1       1.795  -4.499  -0.144  0.00  0.00    -0.361 OA
ENDROOT
BRANCH   1   2
ATOM      2  C   UNL     1       1.808  -3.100   0.145  0.00  0.00    +0.148 C 
BRANCH   2   3
ATOM      3  C   UNL     1       3.237  -2.567   0.025  0.00  0.00    -0.017 C 
BRANCH   3   9
ATOM      4  C   UNL     1       3.942   3.736  -1.317  0.00  0.00    +0.074 C 
ATOM      5  C   UNL     1       4.206   2.427  -2.065  0.00  0.00    +0.168 C 
ATOM      6  O   UNL     1       5.172   1.627  -1.330  0.00  0.00    -0.338 OA
ATOM      7  C   UNL     1       4.565   0.363  -1.196  0.00  0.00    +0.208 C 
ATOM      8  C   UNL     1       4.677  -0.487   0.056  0.00  0.00    +0.175 C 
ATOM      9  C   UNL     1       3.232  -1.048   0.211  0.00  0.00    +0.140 C 
ATOM     10  O   UNL     1       2.427  -0.419  -0.831  0.00  0.00    -0.344 OA
ATOM     11  C   UNL     1       3.058   0.808  -1.057  0.00  0.00    +0.285 C 
ATOM     12  O   UNL     1       2.969   1.659  -2.167  0.00  0.00    -0.318 OA
ATOM     13  C   UNL     1       4.744   2.731  -3.465  0.00  0.00    +0.074 C 
BRANCH   8  14
ATOM     14  O   UNL     1       5.616  -1.548  -0.133  0.00  0.00    -0.387 OA
ATOM     15  H   UNL     1       6.530  -1.250  -0.235  0.00  0.00    +0.210 HD
ENDBRANCH   8  14
ENDBRANCH   3   9
BRANCH   3  18
ATOM     16  H   UNL     1       3.730  -2.973   1.982  0.00  0.00    -0.089 HD
ATOM     17  H   UNL     1       4.149  -4.181   0.918  0.00  0.00    -0.089 HD
ATOM     18  N   UNL     1       4.100  -3.173   1.054  0.00  0.00    +0.383 N 
ATOM     19  H   UNL     1       5.045  -2.778   0.977  0.00  0.00    -0.089 HD
ENDBRANCH   3  18
ENDBRANCH   2   3
ENDBRANCH   1   2
BRANCH   1  20
ATOM     20  C   UNL     1       0.501  -5.099  -0.060  0.00  0.00    +0.144 C 
BRANCH  20  21
ATOM     21  C   UNL     1      -0.042  -4.928   1.335  0.00  0.00    -0.007 A 
ATOM     22  C   UNL     1      -0.977  -3.944   1.598  0.00  0.00    +0.007 A 
ATOM     23  C   UNL     1      -1.478  -3.790   2.877  0.00  0.00    +0.000 A 
ATOM     24  C   UNL     1      -1.037  -4.614   3.896  0.00  0.00    +0.000 A 
ATOM     25  C   UNL     1      -0.099  -5.596   3.634  0.00  0.00    +0.000 A 
ATOM     26  C   UNL     1       0.399  -5.752   2.354  0.00  0.00    +0.007 A 
ENDBRANCH  20  21
BRANCH  20  27
ATOM     27  C   UNL     1      -0.426  -4.433  -1.044  0.00  0.00    -0.007 A 
ATOM     28  C   UNL     1      -1.793  -4.609  -0.935  0.00  0.00    +0.007 A 
ATOM     29  C   UNL     1      -2.643  -3.995  -1.835  0.00  0.00    +0.000 A 
ATOM     30  C   UNL     1      -2.127  -3.212  -2.851  0.00  0.00    +0.000 A 
ATOM     31  C   UNL     1      -0.760  -3.040  -2.963  0.00  0.00    +0.000 A 
ATOM     32  C   UNL     1       0.090  -3.651  -2.060  0.00  0.00    +0.007 A 
ENDBRANCH  20  27
BRANCH  20  33
ATOM     33  C   UNL     1       0.605  -6.567  -0.383  0.00  0.00    -0.007 A 
ATOM     34  C   UNL     1      -0.272  -7.466   0.196  0.00  0.00    +0.007 A 
ATOM     35  C   UNL     1      -0.178  -8.812  -0.103  0.00  0.00    +0.000 A 
ATOM     36  C   UNL     1       0.797  -9.261  -0.973  0.00  0.00    +0.000 A 
ATOM     37  C   UNL     1       1.677  -8.363  -1.548  0.00  0.00    +0.000 A 
ATOM     38  C   UNL     1       1.581  -7.016  -1.252  0.00  0.00    +0.007 A 
ENDBRANCH  20  33
ENDBRANCH   1  20
TORSDOF 9
