REMARK  Name = ZINC45259520
REMARK  8 active torsions:
REMARK  status: ('A' for Active; 'I' for Inactive)
REMARK    1  A    between atoms: C_1  and  C_2
REMARK    2  A    between atoms: C_2  and  C_3
REMARK    3  A    between atoms: C_7  and  C_9
REMARK    4  A    between atoms: C_10  and  C_24
REMARK    5  A    between atoms: C_12  and  C_14
REMARK    6  A    between atoms: C_14  and  N_15
REMARK    7  A    between atoms: N_15  and  C_16
REMARK    8  A    between atoms: C_20  and  C_22
REMARK                            x       y       z     vdW  Elec       q    Type
REMARK                         _______ _______ _______ _____ _____    ______ ____
ROOT
ATOM      1  C   UNL     1       4.005   0.007   2.767  0.00  0.00    +0.115 A 
ATOM      2  C   UNL     1       4.882   0.491   1.802  0.00  0.00    +0.072 A 
ATOM      3  N   UNL     1       6.032   0.842   2.473  0.00  0.00    -0.340 N 
ATOM      4  C   UNL     1       5.830   0.570   3.789  0.00  0.00    +0.125 A 
ATOM      5  N   UNL     1       4.633   0.084   3.956  0.00  0.00    -0.229 NA
ATOM      6  H   UNL     1       6.837   1.214   2.080  0.00  0.00    +0.167 HD
ENDROOT
BRANCH   2   7
ATOM      7  C   UNL     1       4.633   0.604   0.366  0.00  0.00    -0.019 C 
ATOM      8  C   UNL     1       4.647  -0.513  -0.392  0.00  0.00    +0.009 C 
ATOM      9  C   UNL     1       4.442  -0.432  -1.799  0.00  0.00    +0.044 C 
ATOM     10  C   UNL     1       4.549   0.768  -2.371  0.00  0.00    +0.130 C 
ATOM     11  C   UNL     1       4.968   2.032  -1.631  0.00  0.00    +0.191 C 
ATOM     12  C   UNL     1       4.362   1.964  -0.225  0.00  0.00    +0.077 C 
ATOM     13  O   UNL     1       4.374   3.098  -2.389  0.00  0.00    -0.333 OA
ATOM     14  C   UNL     1       3.712   2.464  -3.503  0.00  0.00    +0.395 C 
ATOM     15  O   UNL     1       4.345   1.171  -3.649  0.00  0.00    -0.468 OA
ENDBRANCH   2   7
BRANCH   1  20
ATOM     16  C   UNL     1       0.731  -0.503   1.223  0.00  0.00    +0.042 A 
ATOM     17  C   UNL     1       0.106  -1.399   2.071  0.00  0.00    +0.023 A 
ATOM     18  C   UNL     1       0.780  -1.857   3.195  0.00  0.00    +0.004 A 
ATOM     19  C   UNL     1       2.064  -1.398   3.429  0.00  0.00    +0.030 A 
ATOM     20  C   UNL     1       2.635  -0.494   2.532  0.00  0.00    +0.092 A 
ATOM     21  N   UNL     1       1.957  -0.085   1.464  0.00  0.00    -0.250 NA
BRANCH  16  23
ATOM     22  C   UNL     1      -0.019   1.526   0.010  0.00  0.00    +0.010 C 
ATOM     23  C   UNL     1       0.002  -0.004   0.002  0.00  0.00    +0.052 C 
ENDBRANCH  16  23
ENDBRANCH   1  20
BRANCH   4  24
ATOM     24  C   UNL     1       6.835   0.800   4.889  0.00  0.00    +0.175 C 
BRANCH  24  25
ATOM     25  N   UNL     1       6.586   2.103   5.512  0.00  0.00    -0.337 N 
ATOM     26  H   UNL     1       5.860   2.661   5.195  0.00  0.00    +0.147 HD
BRANCH  25  27
ATOM     27  C   UNL     1       7.396   2.540   6.563  0.00  0.00    +0.029 A 
ATOM     28  C   UNL     1       8.441   1.741   7.014  0.00  0.00    +0.023 A 
ATOM     29  C   UNL     1       9.245   2.169   8.054  0.00  0.00    +0.003 A 
ATOM     30  C   UNL     1       9.015   3.392   8.652  0.00  0.00    +0.019 A 
ATOM     31  C   UNL     1       7.969   4.201   8.207  0.00  0.00    +0.054 A 
ATOM     32  C   UNL     1       7.160   3.772   7.153  0.00  0.00    +0.041 A 
BRANCH  31  33
ATOM     33  C   UNL     1       7.728   5.470   8.826  0.00  0.00    +0.099 C 
ATOM     34  N   UNL     1       7.538   6.476   9.317  0.00  0.00    -0.191 NA
ENDBRANCH  31  33
ENDBRANCH  25  27
ENDBRANCH  24  25
ENDBRANCH   4  24
TORSDOF 7
