REMARK  Name = ZINC56052819
REMARK  8 active torsions:
REMARK  status: ('A' for Active; 'I' for Inactive)
REMARK    1  A    between atoms: C_1  and  C_2
REMARK    2  A    between atoms: C_8  and  C_10
REMARK    3  A    between atoms: C_11  and  C_28
REMARK    4  A    between atoms: C_16  and  C_18
REMARK    5  A    between atoms: C_21  and  O_24
REMARK    6  A    between atoms: O_24  and  C_25
REMARK    7  A    between atoms: C_25  and  C_26
REMARK    8  A    between atoms: C_25  and  C_27
REMARK                            x       y       z     vdW  Elec       q    Type
REMARK                         _______ _______ _______ _____ _____    ______ ____
ROOT
ATOM      1  C   UNL     1      -3.608  -5.474  -0.009  0.00  0.00    +0.056 C 
ATOM      2  C   UNL     1      -4.908  -5.839  -0.016  0.00  0.00    +0.017 C 
ATOM      3  N   UNL     1      -5.270  -7.155  -0.055  0.00  0.00    -0.300 N 
ATOM      4  C   UNL     1      -4.393  -8.166  -0.090  0.00  0.00    +0.135 C 
ATOM      5  S   UNL     1      -4.982  -9.773  -0.137  0.00  0.00    -0.019 S 
ATOM      6  N   UNL     1      -3.061  -7.960  -0.089  0.00  0.00    -0.315 N 
ATOM      7  C   UNL     1      -2.566  -6.573  -0.054  0.00  0.00    +0.139 C 
ATOM      8  C   UNL     1      -5.976  -4.777   0.022  0.00  0.00    +0.061 C 
ATOM      9  H   UNL     1      -6.216  -7.370  -0.058  0.00  0.00    +0.154 HD
ATOM     10  H   UNL     1      -2.443  -8.707  -0.115  0.00  0.00    +0.149 HD
ENDROOT
BRANCH   1  18
ATOM     11  C   UNL     1      -1.278   0.938  -0.147  0.00  0.00    +0.089 C 
ATOM     12  C   UNL     1      -1.913  -0.169   0.655  0.00  0.00    +0.136 A 
ATOM     13  C   UNL     1      -2.247  -1.387   0.193  0.00  0.00    +0.091 A 
ATOM     14  C   UNL     1      -2.813  -2.120   1.259  0.00  0.00    +0.168 A 
ATOM     15  N   UNL     1      -2.812  -1.354   2.320  0.00  0.00    -0.063 NA
ATOM     16  O   UNL     1      -2.238  -0.111   1.956  0.00  0.00    -0.358 OA
ATOM     17  N   UNL     1      -3.289  -3.429   1.193  0.00  0.00    -0.264 N 
ATOM     18  C   UNL     1      -3.232  -4.109   0.032  0.00  0.00    +0.249 C 
ATOM     19  O   UNL     1      -2.855  -3.551  -0.983  0.00  0.00    -0.270 OA
ATOM     20  H   UNL     1      -3.663  -3.850   1.984  0.00  0.00    +0.157 HD
ENDBRANCH   1  18
BRANCH   7  21
ATOM     21  C   UNL     1      -1.686  -6.429   1.161  0.00  0.00    -0.022 A 
ATOM     22  C   UNL     1      -2.162  -6.800   2.405  0.00  0.00    +0.009 A 
ATOM     23  C   UNL     1      -1.357  -6.669   3.520  0.00  0.00    +0.046 A 
ATOM     24  C   UNL     1      -0.071  -6.164   3.391  0.00  0.00    +0.121 A 
ATOM     25  C   UNL     1       0.403  -5.793   2.141  0.00  0.00    +0.046 A 
ATOM     26  C   UNL     1      -0.403  -5.931   1.028  0.00  0.00    +0.009 A 
BRANCH  24  27
ATOM     27  O   UNL     1       0.722  -6.034   4.487  0.00  0.00    -0.489 OA
BRANCH  27  28
ATOM     28  C   UNL     1       0.129  -6.322   5.755  0.00  0.00    +0.167 C 
ATOM     29  C   UNL     1       0.215  -7.825   6.027  0.00  0.00    +0.051 C 
ATOM     30  C   UNL     1       0.877  -5.561   6.852  0.00  0.00    +0.051 C 
ENDBRANCH  27  28
ENDBRANCH  24  27
ENDBRANCH   7  21
TORSDOF 4
