REMARK  Name = ZINC00965992
REMARK  9 active torsions:
REMARK  status: ('A' for Active; 'I' for Inactive)
REMARK    1  A    between atoms: C_1  and  C_2
REMARK    2  A    between atoms: C_5  and  N_8
REMARK    3  A    between atoms: C_9  and  C_11
REMARK    4  A    between atoms: C_14  and  C_16
REMARK    5  A    between atoms: C_16  and  S_17
REMARK    6  A    between atoms: S_17  and  C_18
REMARK    7  A    between atoms: C_21  and  C_30
REMARK    8  A    between atoms: N_22  and  C_23
REMARK    9  A    between atoms: C_26  and  C_29
REMARK                            x       y       z     vdW  Elec       q    Type
REMARK                         _______ _______ _______ _____ _____    ______ ____
ROOT
ATOM      1  S   UNL     1       1.800  -2.132  -0.024  0.00  0.00    -0.079 S 
ENDROOT
BRANCH   1   2
ATOM      2  C   UNL     1       1.297  -0.443  -0.010  0.00  0.00    +0.197 A 
ATOM      3  N   UNL     1       0.059   0.002   0.003  0.00  0.00    -0.122 NA
ATOM      4  N   UNL     1       0.051   1.287   0.010  0.00  0.00    -0.128 NA
ATOM      5  C   UNL     1       1.282   1.744   0.002  0.00  0.00    +0.169 A 
ATOM      6  N   UNL     1       2.119   0.649  -0.011  0.00  0.00    -0.270 N 
BRANCH   6   7
ATOM      7  C   UNL     1       3.521   0.654  -0.023  0.00  0.00    +0.051 A 
ATOM      8  C   UNL     1       4.224   1.163   1.060  0.00  0.00    +0.026 A 
ATOM      9  C   UNL     1       5.605   1.161   1.048  0.00  0.00    +0.005 A 
ATOM     10  C   UNL     1       6.287   0.663  -0.047  0.00  0.00    -0.050 A 
ATOM     11  C   UNL     1       5.590   0.161  -1.130  0.00  0.00    +0.005 A 
ATOM     12  C   UNL     1       4.209   0.154  -1.121  0.00  0.00    +0.026 A 
ATOM     13  C   UNL     1       7.795   0.668  -0.059  0.00  0.00    +0.044 C 
ENDBRANCH   6   7
BRANCH   5  14
ATOM     14  C   UNL     1       1.692   3.163   0.007  0.00  0.00    +0.022 A 
ATOM     15  C   UNL     1       3.006   3.533  -0.308  0.00  0.00    +0.031 A 
ATOM     16  C   UNL     1       3.344   4.870  -0.296  0.00  0.00    +0.111 A 
ATOM     17  N   UNL     1       2.453   5.792   0.016  0.00  0.00    -0.263 NA
ATOM     18  C   UNL     1       1.206   5.486   0.323  0.00  0.00    +0.111 A 
ATOM     19  C   UNL     1       0.780   4.175   0.332  0.00  0.00    +0.031 A 
ENDBRANCH   5  14
ENDBRANCH   1   2
BRANCH   1  20
ATOM     20  C   UNL     1       0.182  -2.943  -0.015  0.00  0.00    +0.140 C 
BRANCH  20  24
ATOM     21  C   UNL     1       0.642  -6.561   0.781  0.00  0.00    +0.133 A 
ATOM     22  C   UNL     1       0.687  -6.994  -0.520  0.00  0.00    +0.080 A 
ATOM     23  S   UNL     1       0.493  -5.504  -1.388  0.00  0.00    -0.079 S 
ATOM     24  C   UNL     1       0.370  -4.438  -0.026  0.00  0.00    +0.089 A 
ATOM     25  N   UNL     1       0.485  -5.253   0.991  0.00  0.00    -0.239 NA
BRANCH  21  27
ATOM     26  N   UNL     1       0.723  -7.052   3.173  0.00  0.00    -0.280 N 
ATOM     27  C   UNL     1       0.770  -7.504   1.904  0.00  0.00    +0.267 C 
ATOM     28  O   UNL     1       0.918  -8.692   1.687  0.00  0.00    -0.268 OA
ATOM     29  H   UNL     1       0.673  -6.099   3.346  0.00  0.00    +0.155 HD
BRANCH  26  34
ATOM     30  C   UNL     1       0.821 -10.721   7.498  0.00  0.00    +0.044 C 
ATOM     31  C   UNL     1       0.795  -9.746   6.349  0.00  0.00    -0.050 A 
ATOM     32  C   UNL     1       1.520 -10.012   5.202  0.00  0.00    +0.005 A 
ATOM     33  C   UNL     1       1.498  -9.121   4.147  0.00  0.00    +0.023 A 
ATOM     34  C   UNL     1       0.747  -7.957   4.239  0.00  0.00    +0.034 A 
ATOM     35  C   UNL     1       0.024  -7.690   5.394  0.00  0.00    +0.023 A 
ATOM     36  C   UNL     1       0.045  -8.588   6.443  0.00  0.00    +0.005 A 
ENDBRANCH  26  34
ENDBRANCH  21  27
ENDBRANCH  20  24
ENDBRANCH   1  20
TORSDOF 7
