REMARK  Name = ZINC36581194
REMARK  16 active torsions:
REMARK  status: ('A' for Active; 'I' for Inactive)
REMARK    1  A    between atoms: C_1  and  C_2
REMARK    2  A    between atoms: C_5  and  S_8
REMARK    3  A    between atoms: S_8  and  C_11
REMARK    4  A    between atoms: C_11  and  N_12
REMARK    5  A    between atoms: C_13  and  C_15
REMARK    6  A    between atoms: C_15  and  C_17
REMARK    7  A    between atoms: C_15  and  N_26
REMARK    8  A    between atoms: C_17  and  C_19
REMARK    9  A    between atoms: C_17  and  C_20
REMARK   10  A    between atoms: N_26  and  C_37
REMARK   11  A    between atoms: C_27  and  C_29
REMARK   12  A    between atoms: C_29  and  C_30
REMARK   13  A    between atoms: C_35  and  C_36
REMARK   14  A    between atoms: C_37  and  C_38
REMARK   15  A    between atoms: C_37  and  C_39
REMARK   16  A    between atoms: C_37  and  C_40
REMARK                            x       y       z     vdW  Elec       q    Type
REMARK                         _______ _______ _______ _____ _____    ______ ____
ROOT
ATOM      1  C   UNL     1       3.644  -5.007   3.287  0.00  0.00    +0.169 C 
ENDROOT
BRANCH   1   3
ATOM      2  N   UNL     1       2.933  -4.749   0.931  0.00  0.00    -0.295 N 
ATOM      3  C   UNL     1       2.956  -5.510   2.044  0.00  0.00    +0.235 C 
ATOM      4  O   UNL     1       2.422  -6.598   2.045  0.00  0.00    -0.274 OA
ATOM      5  H   UNL     1       3.292  -3.848   0.952  0.00  0.00    +0.150 HD
BRANCH   2   6
ATOM      6  C   UNL     1       2.367  -5.283  -0.309  0.00  0.00    +0.278 C 
BRANCH   6   7
ATOM      7  S   UNL     1       0.631  -4.774  -0.450  0.00  0.00    +0.013 S 
ATOM      8  O   UNL     1      -0.048  -5.009   0.777  0.00  0.00    -0.168 OA
ATOM      9  O   UNL     1       0.085  -5.231  -1.679  0.00  0.00    -0.168 OA
BRANCH   7  14
ATOM     10  C   UNL     1       0.810   1.233  -0.985  0.00  0.00    +0.044 C 
ATOM     11  C   UNL     1       0.766  -0.268  -0.851  0.00  0.00    -0.050 A 
ATOM     12  C   UNL     1       0.811  -1.064  -1.980  0.00  0.00    +0.005 A 
ATOM     13  C   UNL     1       0.770  -2.440  -1.858  0.00  0.00    +0.027 A 
ATOM     14  C   UNL     1       0.684  -3.020  -0.606  0.00  0.00    +0.090 A 
ATOM     15  C   UNL     1       0.640  -2.224   0.523  0.00  0.00    +0.027 A 
ATOM     16  C   UNL     1       0.686  -0.848   0.401  0.00  0.00    +0.005 A 
ENDBRANCH   7  14
ENDBRANCH   6   7
ENDBRANCH   2   6
ENDBRANCH   1   3
BRANCH   1  17
ATOM     17  N   UNL     1       3.392  -5.933   4.393  0.00  0.00    -0.284 N 
ATOM     18  C   UNL     1       2.795  -5.492   5.518  0.00  0.00    +0.221 C 
ATOM     19  O   UNL     1       2.384  -4.352   5.580  0.00  0.00    -0.275 OA
BRANCH  17  20
ATOM     20  C   UNL     1       3.789  -7.338   4.277  0.00  0.00    +0.030 C 
ATOM     21  C   UNL     1       4.718  -7.508   3.074  0.00  0.00    +0.031 C 
ATOM     22  C   UNL     1       4.520  -7.769   5.551  0.00  0.00    +0.031 C 
ATOM     23  C   UNL     1       2.543  -8.206   4.087  0.00  0.00    +0.031 C 
ENDBRANCH  17  20
BRANCH  18  24
ATOM     24  C   UNL     1       2.638  -6.414   6.699  0.00  0.00    +0.131 C 
BRANCH  24  25
ATOM     25  C   UNL     1       1.748  -5.766   7.728  0.00  0.00    -0.036 A 
ATOM     26  C   UNL     1       2.305  -5.052   8.773  0.00  0.00    +0.004 A 
ATOM     27  C   UNL     1       1.489  -4.457   9.716  0.00  0.00    +0.000 A 
ATOM     28  C   UNL     1       0.115  -4.576   9.616  0.00  0.00    +0.000 A 
ATOM     29  C   UNL     1      -0.442  -5.289   8.571  0.00  0.00    +0.003 A 
ATOM     30  C   UNL     1       0.374  -5.880   7.625  0.00  0.00    -0.047 A 
ATOM     31  C   UNL     1      -0.233  -6.654   6.483  0.00  0.00    +0.044 C 
ENDBRANCH  24  25
ENDBRANCH  18  24
ENDBRANCH   1  17
BRANCH   1  32
ATOM     32  C   UNL     1       5.150  -4.913   3.033  0.00  0.00    +0.045 C 
ATOM     33  C   UNL     1       5.438  -3.740   2.095  0.00  0.00    +0.015 C 
BRANCH  32  34
ATOM     34  C   UNL     1       5.868  -4.698   4.341  0.00  0.00    -0.042 A 
ATOM     35  C   UNL     1       5.494  -3.659   5.171  0.00  0.00    +0.004 A 
ATOM     36  C   UNL     1       6.152  -3.461   6.371  0.00  0.00    +0.000 A 
ATOM     37  C   UNL     1       7.183  -4.304   6.740  0.00  0.00    +0.000 A 
ATOM     38  C   UNL     1       7.557  -5.344   5.910  0.00  0.00    +0.000 A 
ATOM     39  C   UNL     1       6.896  -5.544   4.712  0.00  0.00    +0.004 A 
ENDBRANCH  32  34
ENDBRANCH   1  32
TORSDOF 10
