REMARK  Name = ZINC16558588
REMARK  10 active torsions:
REMARK  status: ('A' for Active; 'I' for Inactive)
REMARK    1  A    between atoms: C_1  and  C_2
REMARK    2  A    between atoms: C_8  and  N_10
REMARK    3  A    between atoms: C_14  and  C_16
REMARK    4  A    between atoms: C_16  and  O_17
REMARK    5  A    between atoms: O_17  and  C_18
REMARK    6  A    between atoms: C_18  and  C_20
REMARK    7  A    between atoms: C_24  and  S_26
REMARK    8  A    between atoms: S_26  and  N_29
REMARK    9  A    between atoms: N_29  and  C_30
REMARK   10  A    between atoms: C_30  and  C_31
REMARK                            x       y       z     vdW  Elec       q    Type
REMARK                         _______ _______ _______ _____ _____    ______ ____
ROOT
ATOM      1  O   UNL     1      -4.240   0.870   4.826  0.00  0.00    -0.452 OA
ENDROOT
BRANCH   1   2
ATOM      2  C   UNL     1      -3.547   0.495   3.733  0.00  0.00    +0.340 C 
ATOM      3  O   UNL     1      -3.731  -0.601   3.243  0.00  0.00    -0.245 OA
BRANCH   2   4
ATOM      4  C   UNL     1      -2.563   1.418   3.130  0.00  0.00    +0.061 A 
ATOM      5  C   UNL     1      -2.349   2.679   3.691  0.00  0.00    +0.015 A 
ATOM      6  C   UNL     1      -1.430   3.536   3.122  0.00  0.00    +0.003 A 
ATOM      7  C   UNL     1      -0.716   3.146   2.003  0.00  0.00    +0.028 A 
ATOM      8  C   UNL     1      -0.927   1.900   1.439  0.00  0.00    +0.106 A 
ATOM      9  C   UNL     1      -1.844   1.033   1.998  0.00  0.00    +0.043 A 
BRANCH   8  10
ATOM     10  S   UNL     1      -0.017   1.417   0.010  0.00  0.00    +0.059 S 
ATOM     11  O   UNL     1       0.002  -0.004   0.002  0.00  0.00    -0.153 OA
ATOM     12  O   UNL     1       1.172   2.195   0.003  0.00  0.00    -0.153 OA
BRANCH  10  13
ATOM     13  N   UNL     1      -0.897   1.885  -1.312  0.00  0.00    -0.178 NA
ATOM     14  H   UNL     1      -1.263   1.218  -1.913  0.00  0.00    +0.149 HD
BRANCH  13  15
ATOM     15  C   UNL     1      -1.125   3.309  -1.574  0.00  0.00    +0.194 C 
BRANCH  15  16
ATOM     16  C   UNL     1      -1.603   3.484  -2.955  0.00  0.00    -0.089 C 
ATOM     17  C   UNL     1      -1.984   3.623  -4.056  0.00  0.00    +0.005 C 
ENDBRANCH  15  16
ENDBRANCH  13  15
ENDBRANCH  10  13
ENDBRANCH   8  10
ENDBRANCH   2   4
ENDBRANCH   1   2
BRANCH   1  18
ATOM     18  C   UNL     1      -5.190  -0.088   5.364  0.00  0.00    +0.328 C 
BRANCH  18  23
ATOM     19  N   UNL     1      -8.322  -0.400   8.998  0.00  0.00    -0.296 N 
ATOM     20  C   UNL     1      -7.395   0.314   8.328  0.00  0.00    +0.306 C 
ATOM     21  O   UNL     1      -7.104   1.434   8.702  0.00  0.00    -0.252 OA
ATOM     22  N   UNL     1      -6.792  -0.213   7.245  0.00  0.00    -0.237 N 
ATOM     23  C   UNL     1      -5.865   0.502   6.576  0.00  0.00    +0.258 C 
ATOM     24  O   UNL     1      -5.574   1.618   6.949  0.00  0.00    -0.272 OA
ATOM     25  H   UNL     1      -8.555  -1.293   8.699  0.00  0.00    +0.151 HD
ATOM     26  H   UNL     1      -7.024  -1.106   6.947  0.00  0.00    +0.159 HD
BRANCH  19  33
ATOM     27  C   UNL     1     -11.211  -0.246   9.135  0.00  0.00    +0.009 C 
ATOM     28  C   UNL     1     -10.343  -0.490  10.371  0.00  0.00    +0.006 C 
ATOM     29  C   UNL     1     -11.029   0.108  11.601  0.00  0.00    +0.005 C 
ATOM     30  C   UNL     1     -10.161  -0.135  12.838  0.00  0.00    +0.000 C 
ATOM     31  C   UNL     1      -8.796   0.528  12.642  0.00  0.00    +0.002 C 
ATOM     32  C   UNL     1      -8.111  -0.070  11.412  0.00  0.00    +0.022 C 
ATOM     33  C   UNL     1      -8.979   0.173  10.175  0.00  0.00    +0.077 C 
ENDBRANCH  19  33
ENDBRANCH  18  23
ENDBRANCH   1  18
TORSDOF 9
