REMARK  Name = ZINC40226935
REMARK  4 active torsions:
REMARK  status: ('A' for Active; 'I' for Inactive)
REMARK    1  A    between atoms: C_1  and  S_2
REMARK    2  A    between atoms: S_2  and  C_5
REMARK    3  A    between atoms: C_8  and  N_11
REMARK    4  A    between atoms: N_11  and  C_12
REMARK                            x       y       z     vdW  Elec       q    Type
REMARK                         _______ _______ _______ _____ _____    ______ ____
ROOT
ATOM      1  N   UNL     1       2.897  -1.450  -4.908  0.00  0.00    -0.336 N 
ATOM      2  H   UNL     1       2.433  -1.582  -5.750  0.00  0.00    +0.147 HD
ENDROOT
BRANCH   1   3
ATOM      3  C   UNL     1       4.351  -1.611  -4.840  0.00  0.00    +0.101 C 
ATOM      4  C   UNL     1       4.980  -1.399  -6.234  0.00  0.00    +0.031 C 
ATOM      5  C   UNL     1       5.027  -2.836  -6.797  0.00  0.00    +0.037 C 
ATOM      6  C   UNL     1       5.093  -3.736  -5.582  0.00  0.00    -0.041 A 
ATOM      7  C   UNL     1       4.705  -3.031  -4.454  0.00  0.00    -0.024 A 
ATOM      8  C   UNL     1       4.688  -3.656  -3.219  0.00  0.00    +0.007 A 
ATOM      9  C   UNL     1       5.057  -4.982  -3.106  0.00  0.00    +0.015 A 
ATOM     10  C   UNL     1       5.446  -5.689  -4.229  0.00  0.00    +0.018 A 
ATOM     11  C   UNL     1       5.465  -5.065  -5.469  0.00  0.00    +0.019 A 
ATOM     12 BR   UNL     1       5.952  -7.505  -4.078  0.00  0.00    -0.050 Br
ENDBRANCH   1   3
BRANCH   1  16
ATOM     13  C   UNL     1       0.845  -0.437  -1.483  0.00  0.00    +0.176 A 
ATOM     14  C   UNL     1       0.125  -0.610  -2.651  0.00  0.00    +0.049 A 
ATOM     15  C   UNL     1       0.794  -0.951  -3.814  0.00  0.00    +0.028 A 
ATOM     16  C   UNL     1       2.177  -1.107  -3.761  0.00  0.00    +0.046 A 
ATOM     17  C   UNL     1       2.830  -0.916  -2.550  0.00  0.00    +0.135 A 
ATOM     18  N   UNL     1       2.155  -0.587  -1.467  0.00  0.00    -0.235 NA
BRANCH  13  20
ATOM     19  C   UNL     1      -0.022   1.810   0.012  0.00  0.00    +0.202 C 
ATOM     20  S   UNL     1       0.002  -0.004   0.002  0.00  0.00    +0.011 S 
ATOM     21  O   UNL     1       0.835  -0.488   1.046  0.00  0.00    -0.168 OA
ATOM     22  O   UNL     1      -1.315  -0.510  -0.168  0.00  0.00    -0.168 OA
ENDBRANCH  13  20
ENDBRANCH   1  16
TORSDOF 3
