REMARK  Name = ZINC14971800
REMARK  8 active torsions:
REMARK  status: ('A' for Active; 'I' for Inactive)
REMARK    1  A    between atoms: C_1  and  C_2
REMARK    2  A    between atoms: C_4  and  C_8
REMARK    3  A    between atoms: N_6  and  C_7
REMARK    4  A    between atoms: C_8  and  N_9
REMARK    5  A    between atoms: C_10  and  C_12
REMARK    6  A    between atoms: C_12  and  C_13
REMARK    7  A    between atoms: C_20  and  C_21
REMARK    8  A    between atoms: C_20  and  N_57
REMARK                            x       y       z     vdW  Elec       q    Type
REMARK                         _______ _______ _______ _____ _____    ______ ____
ROOT
ATOM      1  C   UNL     1       4.094   5.146   1.395  0.00  0.00    +0.028 C 
ATOM      2  C   UNL     1       4.735   5.479   2.713  0.00  0.00    +0.200 C 
ATOM      3  O   UNL     1       5.605   6.323   2.740  0.00  0.00    -0.278 OA
ATOM      4  N   UNL     1       4.385   4.883   3.858  0.00  0.00    -0.318 N 
ATOM      5  C   UNL     1       3.325   3.882   3.940  0.00  0.00    +0.085 C 
ATOM      6  C   UNL     1       3.029   3.317   2.550  0.00  0.00    -0.058 C 
ATOM      7  H   UNL     1       4.856   5.127   4.670  0.00  0.00    +0.149 HD
ATOM      8  N   UNL     1       2.814   4.453   1.631  0.00  0.00    +0.391 N 
ATOM      9  H   UNL     1       2.150   5.109   2.058  0.00  0.00    -0.080 HD
ENDROOT
BRANCH   1  10
ATOM     10  C   UNL     1       3.825   6.439   0.621  0.00  0.00    +0.089 C 
BRANCH  10  12
ATOM     11  N   UNL     1       2.451   8.477   0.895  0.00  0.00    -0.310 N 
ATOM     12  C   UNL     1       2.889   7.314   1.415  0.00  0.00    +0.212 C 
ATOM     13  O   UNL     1       2.530   6.970   2.521  0.00  0.00    -0.276 OA
ATOM     14  H   UNL     1       2.739   8.752   0.010  0.00  0.00    +0.149 HD
BRANCH  11  15
ATOM     15  C   UNL     1       1.542   9.328   1.666  0.00  0.00    +0.161 C 
BRANCH  15  19
ATOM     16  C   UNL     1      -0.864  12.571  -1.437  0.00  0.00    +0.065 C 
ATOM     17  C   UNL     1       0.142  11.965  -0.493  0.00  0.00    +0.036 A 
ATOM     18  C   UNL     1       0.085  10.726   0.047  0.00  0.00    +0.049 A 
ATOM     19  C   UNL     1       1.206  10.560   0.866  0.00  0.00    +0.080 A 
ATOM     20  N   UNL     1       1.917  11.658   0.813  0.00  0.00    -0.175 NA
ATOM     21  N   UNL     1       1.266  12.559  -0.038  0.00  0.00    -0.271 N 
ATOM     22  C   UNL     1       1.723  13.910  -0.376  0.00  0.00    +0.172 C 
ENDBRANCH  15  19
ENDBRANCH  11  15
ENDBRANCH  10  12
ENDBRANCH   1  10
BRANCH   8  23
ATOM     23  C   UNL     1       2.256   3.970   0.348  0.00  0.00    -0.041 C 
BRANCH  23  24
ATOM     24  C   UNL     1       0.880   3.406   0.593  0.00  0.00    -0.056 A 
ATOM     25  C   UNL     1       0.698   2.060   0.684  0.00  0.00    +0.002 A 
ATOM     26  C   UNL     1      -0.567   1.521   0.911  0.00  0.00    +0.001 A 
ATOM     27  C   UNL     1      -1.658   2.324   1.043  0.00  0.00    +0.008 A 
ATOM     28  C   UNL     1      -1.508   3.719   0.960  0.00  0.00    -0.018 A 
ATOM     29  C   UNL     1      -0.222   4.267   0.729  0.00  0.00    -0.017 A 
ATOM     30  C   UNL     1      -0.074   5.662   0.641  0.00  0.00    +0.009 A 
ATOM     31  C   UNL     1      -1.164   6.465   0.777  0.00  0.00    +0.001 A 
ATOM     32  C   UNL     1      -2.429   5.926   1.004  0.00  0.00    +0.001 A 
ATOM     33  C   UNL     1      -2.611   4.580   1.096  0.00  0.00    +0.008 A 
ENDBRANCH  23  24
ENDBRANCH   8  23
TORSDOF 6
