REMARK  Name = ZINC35375435
REMARK  8 active torsions:
REMARK  status: ('A' for Active; 'I' for Inactive)
REMARK    1  A    between atoms: C_1  and  C_2
REMARK    2  A    between atoms: C_2  and  C_3
REMARK    3  A    between atoms: C_3  and  C_5
REMARK    4  A    between atoms: C_3  and  N_6
REMARK    5  A    between atoms: C_20  and  C_25
REMARK    6  A    between atoms: C_28  and  C_30
REMARK    7  A    between atoms: C_30  and  C_32
REMARK    8  A    between atoms: C_30  and  O_33
REMARK                            x       y       z     vdW  Elec       q    Type
REMARK                         _______ _______ _______ _____ _____    ______ ____
ROOT
ATOM      1  N   UNL     1      -2.131  -0.101   1.260  0.00  0.00    -0.239 N 
ATOM      2  C   UNL     1      -1.655  -0.506   2.478  0.00  0.00    +0.228 C 
ATOM      3  O   UNL     1      -0.543  -0.921   2.726  0.00  0.00    -0.275 OA
ATOM      4  C   UNL     1      -2.788  -0.331   3.443  0.00  0.00    +0.109 C 
ATOM      5  C   UNL     1      -3.402   0.945   2.768  0.00  0.00    +0.123 C 
ATOM      6  C   UNL     1      -3.261   0.675   1.363  0.00  0.00    +0.228 C 
ATOM      7  O   UNL     1      -3.983   1.048   0.464  0.00  0.00    -0.275 OA
ATOM      8  C   UNL     1      -4.249   1.582   3.768  0.00  0.00    +0.136 C 
ATOM      9  C   UNL     1      -5.729   1.358   3.575  0.00  0.00    +0.004 A 
ATOM     10  C   UNL     1      -6.498   0.225   3.437  0.00  0.00    +0.009 A 
ATOM     11  C   UNL     1      -7.867   0.334   3.272  0.00  0.00    +0.021 A 
ATOM     12  C   UNL     1      -8.460   1.585   3.246  0.00  0.00    +0.046 A 
ATOM     13  C   UNL     1      -7.691   2.723   3.385  0.00  0.00    -0.011 A 
ATOM     14  C   UNL     1      -6.312   2.620   3.552  0.00  0.00    +0.043 A 
ATOM     15  N   UNL     1      -5.337   3.605   3.712  0.00  0.00    -0.283 N 
ATOM     16  C   UNL     1      -4.105   3.084   3.847  0.00  0.00    +0.243 C 
ATOM     17  O   UNL     1      -3.073   3.702   4.003  0.00  0.00    -0.273 OA
ATOM     18  C   UNL     1      -8.346   4.080   3.356  0.00  0.00    +0.047 C 
ATOM     19 CL   UNL     1     -10.178   1.722   3.039  0.00  0.00    -0.083 Cl
ATOM     20  N   UNL     1      -3.842   0.989   5.083  0.00  0.00    -0.293 NA
ATOM     21  C   UNL     1      -2.530   0.251   4.833  0.00  0.00    +0.096 C 
ATOM     22  H   UNL     1      -5.526   4.556   3.725  0.00  0.00    +0.155 HD
ATOM     23  H   UNL     1      -3.725   1.706   5.783  0.00  0.00    +0.124 HD
ENDROOT
BRANCH   1  24
ATOM     24  C   UNL     1      -1.501  -0.451  -0.015  0.00  0.00    +0.081 C 
ATOM     25  C   UNL     1      -1.486  -1.972  -0.175  0.00  0.00    +0.028 C 
BRANCH  24  27
ATOM     26  C   UNL     1      -0.085   1.608  -0.001  0.00  0.00    +0.006 C 
ATOM     27  C   UNL     1      -0.065   0.079  -0.036  0.00  0.00    +0.019 C 
ENDBRANCH  24  27
ENDBRANCH   1  24
BRANCH  21  28
ATOM     28  C   UNL     1      -1.340   1.212   4.811  0.00  0.00    +0.129 C 
ATOM     29  C   UNL     1      -1.209   1.893   6.175  0.00  0.00    +0.039 C 
BRANCH  28  30
ATOM     30  O   UNL     1      -0.144   0.484   4.525  0.00  0.00    -0.390 OA
ATOM     31  H   UNL     1       0.059  -0.207   5.170  0.00  0.00    +0.210 HD
ENDBRANCH  28  30
ENDBRANCH  21  28
TORSDOF 4
