REMARK  Name = ZINC50328873
REMARK  4 active torsions:
REMARK  status: ('A' for Active; 'I' for Inactive)
REMARK    1  A    between atoms: C_1  and  C_2
REMARK    2  A    between atoms: C_6  and  C_7
REMARK    3  A    between atoms: C_7  and  C_9
REMARK    4  A    between atoms: C_7  and  O_15
REMARK                            x       y       z     vdW  Elec       q    Type
REMARK                         _______ _______ _______ _____ _____    ______ ____
ROOT
ATOM      1  C   UNL     1       0.030  -0.363   2.516  0.00  0.00    +0.206 C 
ENDROOT
BRANCH   1   7
ATOM      2  C   UNL     1      -0.018   1.503   0.010  0.00  0.00    +0.047 C 
ATOM      3  C   UNL     1       0.002  -0.004   0.002  0.00  0.00    -0.007 A 
ATOM      4  C   UNL     1       0.009  -0.840  -1.138  0.00  0.00    +0.045 A 
ATOM      5  C   UNL     1       0.029  -2.109  -0.691  0.00  0.00    +0.195 A 
ATOM      6  O   UNL     1       0.034  -2.085   0.652  0.00  0.00    -0.465 OA
ATOM      7  C   UNL     1       0.023  -0.811   1.078  0.00  0.00    +0.140 A 
ENDBRANCH   1   7
BRANCH   1   8
ATOM      8  C   UNL     1      -1.334  -0.584   3.118  0.00  0.00    -0.038 C 
ATOM      9  C   UNL     1      -2.013   0.457   3.481  0.00  0.00    -0.025 C 
ATOM     10  C   UNL     1      -3.377   0.396   4.103  0.00  0.00    +0.027 C 
ATOM     11  C   UNL     1      -4.008  -0.977   3.857  0.00  0.00    +0.004 C 
ATOM     12  C   UNL     1      -2.989  -2.055   4.245  0.00  0.00    +0.005 C 
ATOM     13  C   UNL     1      -1.823  -1.996   3.253  0.00  0.00    +0.033 C 
ENDBRANCH   1   8
BRANCH   1  14
ATOM     14  O   UNL     1       1.000  -1.117   3.246  0.00  0.00    -0.380 OA
ATOM     15  H   UNL     1       0.839  -2.070   3.245  0.00  0.00    +0.211 HD
ENDBRANCH   1  14
TORSDOF 3
