REMARK  Name = ZINC07055699
REMARK  4 active torsions:
REMARK  status: ('A' for Active; 'I' for Inactive)
REMARK    1  A    between atoms: C_6  and  N_7
REMARK    2  A    between atoms: N_7  and  S_8
REMARK    3  A    between atoms: S_8  and  C_11
REMARK    4  A    between atoms: C_15  and  C_17
REMARK                            x       y       z     vdW  Elec       q    Type
REMARK                         _______ _______ _______ _____ _____    ______ ____
ROOT
ATOM      1  N   UNL     1       4.290   2.603  -1.608  0.00  0.00    -0.216 N 
ATOM      2  H   UNL     1       5.095   2.206  -1.976  0.00  0.00    +0.174 HD
ENDROOT
BRANCH   1   8
ATOM      3  C   UNL     1       2.979   4.604  -1.932  0.00  0.00    +0.028 A 
ATOM      4  C   UNL     1       2.168   5.392  -2.728  0.00  0.00    +0.051 A 
ATOM      5  C   UNL     1       1.843   4.979  -4.008  0.00  0.00    +0.167 A 
ATOM      6  C   UNL     1       2.334   3.769  -4.496  0.00  0.00    +0.169 A 
ATOM      7  C   UNL     1       3.149   2.984  -3.702  0.00  0.00    +0.074 A 
ATOM      8  C   UNL     1       3.469   3.398  -2.415  0.00  0.00    +0.052 A 
ATOM      9  O   UNL     1       1.868   3.600  -5.774  0.00  0.00    -0.447 OA
ATOM     10  C   UNL     1       0.718   4.455  -5.834  0.00  0.00    +0.254 C 
ATOM     11  O   UNL     1       1.071   5.556  -4.985  0.00  0.00    -0.448 OA
ATOM     12  C   UNL     1       0.444   4.922  -7.267  0.00  0.00    +0.093 C 
ATOM     13  C   UNL     1      -0.690   3.984  -7.757  0.00  0.00    +0.008 C 
ATOM     14  C   UNL     1      -1.560   3.802  -6.487  0.00  0.00    +0.008 C 
ATOM     15  C   UNL     1      -0.537   3.740  -5.331  0.00  0.00    +0.093 C 
ENDBRANCH   1   8
BRANCH   1  16
ATOM     16  S   UNL     1       3.888   2.340  -0.023  0.00  0.00    +0.072 S 
ATOM     17  O   UNL     1       3.592   3.612   0.538  0.00  0.00    -0.150 OA
ATOM     18  O   UNL     1       4.888   1.485   0.513  0.00  0.00    -0.150 OA
BRANCH  16  19
ATOM     19  C   UNL     1       2.383   1.423  -0.013  0.00  0.00    +0.109 A 
ATOM     20  C   UNL     1       1.169   2.089   0.002  0.00  0.00    +0.031 A 
ATOM     21  C   UNL     1      -0.017   1.379   0.010  0.00  0.00    +0.041 A 
ATOM     22  C   UNL     1       0.002  -0.004   0.002  0.00  0.00    +0.138 A 
ATOM     23  C   UNL     1       1.226  -0.682  -0.013  0.00  0.00    +0.100 A 
ATOM     24  C   UNL     1       2.419   0.045  -0.021  0.00  0.00    +0.046 A 
ATOM     25  F   UNL     1      -1.157  -0.698   0.009  0.00  0.00    -0.205 F 
BRANCH  23  26
ATOM     26  C   UNL     1       1.256  -2.157  -0.021  0.00  0.00    +0.389 C 
ATOM     27  O   UNL     1       0.216  -2.786  -0.014  0.00  0.00    -0.240 OA
ATOM     28  O   UNL     1       2.436  -2.807  -0.036  0.00  0.00    -0.240 OA
ENDBRANCH  23  26
ENDBRANCH  16  19
ENDBRANCH   1  16
TORSDOF 4
