REMARK  Name = ZINC25190798
REMARK  10 active torsions:
REMARK  status: ('A' for Active; 'I' for Inactive)
REMARK    1  A    between atoms: C_1  and  N_2
REMARK    2  A    between atoms: C_3  and  C_5
REMARK    3  A    between atoms: C_8  and  C_11
REMARK    4  A    between atoms: C_11  and  N_12
REMARK    5  A    between atoms: N_12  and  C_13
REMARK    6  A    between atoms: N_12  and  C_30
REMARK    7  A    between atoms: C_13  and  C_14
REMARK    8  A    between atoms: N_16  and  C_17
REMARK    9  A    between atoms: C_17  and  C_18
REMARK   10  A    between atoms: N_20  and  C_21
REMARK                            x       y       z     vdW  Elec       q    Type
REMARK                         _______ _______ _______ _____ _____    ______ ____
ROOT
ATOM      1  C   UNL     1       0.678  -0.742  -1.495  0.00  0.00    +0.019 C 
ENDROOT
BRANCH   1   2
ATOM      2  C   UNL     1      -0.409  -0.604  -2.529  0.00  0.00    +0.197 C 
ATOM      3  O   UNL     1      -1.448  -0.047  -2.245  0.00  0.00    -0.278 OA
ATOM      4  N   UNL     1      -0.227  -1.099  -3.769  0.00  0.00    -0.308 N 
ATOM      5  H   UNL     1       0.716  -1.603  -4.027  0.00  0.00    +0.149 HD
BRANCH   4   6
ATOM      6  C   UNL     1      -1.284  -0.964  -4.774  0.00  0.00    +0.200 C 
BRANCH   6   7
ATOM      7  C   UNL     1      -0.833  -1.596  -6.066  0.00  0.00    +0.234 C 
ATOM      8  O   UNL     1       0.265  -2.108  -6.139  0.00  0.00    -0.274 OA
ATOM      9  N   UNL     1      -1.648  -1.592  -7.139  0.00  0.00    -0.282 N 
ATOM     10  H   UNL     1      -2.668  -1.191  -7.053  0.00  0.00    +0.155 HD
BRANCH   9  11
ATOM     11  C   UNL     1      -1.195  -2.099  -8.365  0.00  0.00    +0.072 A 
ATOM     12  C   UNL     1      -0.323  -3.179  -8.391  0.00  0.00    +0.029 A 
ATOM     13  C   UNL     1       0.119  -3.680  -9.600  0.00  0.00    +0.043 A 
ATOM     14  C   UNL     1      -0.298  -3.102 -10.786  0.00  0.00    +0.161 A 
ATOM     15  C   UNL     1      -1.165  -2.020 -10.765  0.00  0.00    +0.195 A 
ATOM     16  C   UNL     1      -1.614  -1.517  -9.556  0.00  0.00    +0.182 A 
ATOM     17  F   UNL     1      -2.459  -0.463  -9.533  0.00  0.00    -0.200 F 
ATOM     18  F   UNL     1      -1.570  -1.457 -11.924  0.00  0.00    -0.199 F 
ATOM     19  F   UNL     1       0.140  -3.592 -11.966  0.00  0.00    -0.202 F 
ENDBRANCH   9  11
ENDBRANCH   6   7
ENDBRANCH   4   6
ENDBRANCH   1   2
BRANCH   1  20
ATOM     20  N   UNL     1       0.197  -0.229  -0.206  0.00  0.00    +0.390 N 
ATOM     21  H   UNL     1      -0.835  -0.584  -0.064  0.00  0.00    -0.080 HD
BRANCH  20  22
ATOM     22  C   UNL     1       1.009  -0.746   0.904  0.00  0.00    -0.068 C 
ATOM     23  C   UNL     1       2.324  -1.444   0.551  0.00  0.00    -0.017 C 
ATOM     24  C   UNL     1       1.130  -2.265   1.042  0.00  0.00    -0.017 C 
ENDBRANCH  20  22
BRANCH  20  25
ATOM     25  C   UNL     1       0.172   1.240  -0.200  0.00  0.00    -0.042 C 
BRANCH  25  29
ATOM     26  C   UNL     1      -1.878   2.619   3.290  0.00  0.00    +0.037 A 
ATOM     27  C   UNL     1      -0.499   2.407   3.325  0.00  0.00    +0.013 A 
ATOM     28  C   UNL     1       0.157   1.962   2.196  0.00  0.00    +0.002 A 
ATOM     29  C   UNL     1      -0.550   1.726   1.030  0.00  0.00    -0.064 A 
ATOM     30  C   UNL     1      -1.917   1.938   0.987  0.00  0.00    +0.002 A 
ATOM     31  C   UNL     1      -2.585   2.378   2.111  0.00  0.00    +0.013 A 
BRANCH  26  34
ATOM     32  C   UNL     1      -4.621   3.770   5.656  0.00  0.00    +0.128 C 
ATOM     33  N   UNL     1      -3.919   3.298   4.460  0.00  0.00    -0.314 N 
ATOM     34  C   UNL     1      -2.587   3.095   4.497  0.00  0.00    +0.244 C 
ATOM     35  O   UNL     1      -1.969   3.304   5.523  0.00  0.00    -0.270 OA
ATOM     36  H   UNL     1      -4.478   3.110   3.532  0.00  0.00    +0.149 HD
ENDBRANCH  26  34
ENDBRANCH  25  29
ENDBRANCH  20  25
ENDBRANCH   1  20
TORSDOF 9
