REMARK  Name = ZINC39675447
REMARK  11 active torsions:
REMARK  status: ('A' for Active; 'I' for Inactive)
REMARK    1  A    between atoms: C_1  and  C_2
REMARK    2  A    between atoms: C_5  and  C_9
REMARK    3  A    between atoms: C_6  and  C_8
REMARK    4  A    between atoms: C_13  and  C_22
REMARK    5  A    between atoms: N_24  and  C_25
REMARK    6  A    between atoms: C_25  and  C_27
REMARK    7  A    between atoms: C_25  and  C_28
REMARK    8  A    between atoms: C_28  and  C_29
REMARK    9  A    between atoms: C_29  and  C_30
REMARK   10  A    between atoms: C_33  and  O_36
REMARK   11  A    between atoms: O_36  and  C_37
REMARK                            x       y       z     vdW  Elec       q    Type
REMARK                         _______ _______ _______ _____ _____    ______ ____
ROOT
ATOM      1  C   UNL     1       0.147  -4.142  -0.012  0.00  0.00    +0.247 C 
ATOM      2  O   UNL     1       0.258  -4.726   1.048  0.00  0.00    -0.270 OA
ATOM      3  N   UNL     1       0.093  -4.840  -1.164  0.00  0.00    -0.296 N 
ATOM      4  C   UNL     1       0.068  -4.309  -2.547  0.00  0.00    +0.121 C 
ATOM      5  C   UNL     1       0.965  -5.275  -3.353  0.00  0.00    +0.100 C 
ATOM      6  C   UNL     1       0.945  -6.588  -2.552  0.00  0.00    -0.004 C 
ATOM      7  C   UNL     1       0.053  -6.312  -1.333  0.00  0.00    +0.115 C 
ATOM      8  C   UNL     1       0.355  -7.713  -3.397  0.00  0.00    -0.010 C 
ATOM      9  C   UNL     1       0.399  -9.020  -2.600  0.00  0.00    -0.082 C 
ATOM     10  N   UNL     1       1.789  -9.329  -2.240  0.00  0.00    +0.379 N 
ATOM     11  C   UNL     1       2.319  -8.288  -1.352  0.00  0.00    -0.082 C 
ATOM     12  C   UNL     1       2.355  -6.950  -2.096  0.00  0.00    -0.010 C 
ATOM     13  H   UNL     1       1.822 -10.221  -1.769  0.00  0.00    -0.086 HD
ATOM     14  H   UNL     1       2.350  -9.373  -3.078  0.00  0.00    -0.086 HD
ENDROOT
BRANCH   1  19
ATOM     15  C   UNL     1      -0.149   1.604  -0.112  0.00  0.00    +0.044 C 
ATOM     16  C   UNL     1      -0.072   0.099  -0.086  0.00  0.00    -0.050 A 
ATOM     17  C   UNL     1      -0.974  -0.650  -0.820  0.00  0.00    +0.004 A 
ATOM     18  C   UNL     1      -0.908  -2.027  -0.801  0.00  0.00    +0.013 A 
ATOM     19  C   UNL     1       0.071  -2.666  -0.038  0.00  0.00    +0.040 A 
ATOM     20  C   UNL     1       0.978  -1.904   0.701  0.00  0.00    -0.038 A 
ATOM     21  C   UNL     1       0.904  -0.527   0.668  0.00  0.00    +0.007 A 
ATOM     22  C   UNL     1       2.038  -2.585   1.528  0.00  0.00    +0.044 C 
ENDBRANCH   1  19
BRANCH   5  23
ATOM     23  C   UNL     1       2.368  -4.735  -3.445  0.00  0.00    +0.218 C 
ATOM     24  O   UNL     1       2.787  -3.986  -2.587  0.00  0.00    -0.275 OA
ATOM     25  N   UNL     1       3.158  -5.083  -4.480  0.00  0.00    -0.312 N 
ATOM     26  H   UNL     1       2.823  -5.682  -5.165  0.00  0.00    +0.149 HD
BRANCH  25  27
ATOM     27  C   UNL     1       4.523  -4.558  -4.569  0.00  0.00    +0.070 C 
ATOM     28  C   UNL     1       5.463  -5.439  -3.745  0.00  0.00    +0.028 C 
BRANCH  27  29
ATOM     29  C   UNL     1       4.974  -4.557  -6.031  0.00  0.00    +0.026 C 
BRANCH  29  30
ATOM     30  C   UNL     1       4.111  -3.580  -6.831  0.00  0.00    +0.037 C 
BRANCH  30  31
ATOM     31  C   UNL     1       4.556  -3.579  -8.271  0.00  0.00    -0.047 A 
ATOM     32  C   UNL     1       5.539  -2.702  -8.689  0.00  0.00    +0.007 A 
ATOM     33  C   UNL     1       5.949  -2.699 -10.008  0.00  0.00    +0.046 A 
ATOM     34  C   UNL     1       5.373  -3.578 -10.914  0.00  0.00    +0.120 A 
ATOM     35  C   UNL     1       4.387  -4.458 -10.492  0.00  0.00    +0.046 A 
ATOM     36  C   UNL     1       3.985  -4.460  -9.170  0.00  0.00    +0.007 A 
BRANCH  34  37
ATOM     37  O   UNL     1       5.773  -3.577 -12.213  0.00  0.00    -0.495 OA
ATOM     38  C   UNL     1       5.136  -4.510 -13.089  0.00  0.00    +0.277 C 
ENDBRANCH  34  37
ENDBRANCH  30  31
ENDBRANCH  29  30
ENDBRANCH  27  29
ENDBRANCH  25  27
ENDBRANCH   5  23
TORSDOF 7
