REMARK  Name = ZINC03536467
REMARK  9 active torsions:
REMARK  status: ('A' for Active; 'I' for Inactive)
REMARK    1  A    between atoms: C_1  and  C_2
REMARK    2  A    between atoms: C_6  and  N_9
REMARK    3  A    between atoms: C_7  and  C_8
REMARK    4  A    between atoms: C_13  and  S_15
REMARK    5  A    between atoms: S_15  and  C_16
REMARK    6  A    between atoms: C_16  and  C_17
REMARK    7  A    between atoms: N_22  and  C_23
REMARK    8  A    between atoms: C_23  and  C_24
REMARK    9  A    between atoms: C_23  and  C_25
REMARK                            x       y       z     vdW  Elec       q    Type
REMARK                         _______ _______ _______ _____ _____    ______ ____
ROOT
ATOM      1  N   UNL     1       3.583   2.122  -0.021  0.00  0.00    -0.292 N 
ATOM      2  C   UNL     1       3.567   3.509  -0.119  0.00  0.00    +0.187 A 
ATOM      3  N   UNL     1       2.538   4.334  -0.129  0.00  0.00    -0.125 NA
ATOM      4  N   UNL     1       2.749   5.690  -0.230  0.00  0.00    -0.133 NA
ATOM      5  C   UNL     1       3.979   6.157  -0.328  0.00  0.00    +0.160 A 
ATOM      6  S   UNL     1       4.934   4.648  -0.272  0.00  0.00    -0.024 S 
ATOM      7  H   UNL     1       4.418   1.639  -0.117  0.00  0.00    +0.154 HD
ENDROOT
BRANCH   1  13
ATOM      8  C   UNL     1       1.177  -2.153   0.286  0.00  0.00    +0.044 C 
ATOM      9  C   UNL     1       1.199  -0.648   0.369  0.00  0.00    -0.046 A 
ATOM     10  C   UNL     1       0.042   0.044   0.678  0.00  0.00    +0.004 A 
ATOM     11  C   UNL     1       0.059   1.424   0.756  0.00  0.00    +0.002 A 
ATOM     12  C   UNL     1       1.231   2.117   0.525  0.00  0.00    +0.023 A 
ATOM     13  C   UNL     1       2.395   1.425   0.214  0.00  0.00    +0.036 A 
ATOM     14  C   UNL     1       2.375   0.038   0.137  0.00  0.00    -0.026 A 
ATOM     15  C   UNL     1       3.635  -0.718  -0.200  0.00  0.00    +0.046 C 
ENDBRANCH   1  13
BRANCH   5  16
ATOM     16  S   UNL     1       4.532   7.824  -0.476  0.00  0.00    -0.088 S 
BRANCH  16  17
ATOM     17  C   UNL     1       3.002   8.797  -0.463  0.00  0.00    +0.172 C 
BRANCH  17  18
ATOM     18  C   UNL     1       3.336  10.261  -0.585  0.00  0.00    +0.231 C 
ATOM     19  O   UNL     1       4.493  10.613  -0.672  0.00  0.00    -0.274 OA
ATOM     20  N   UNL     1       2.350  11.179  -0.598  0.00  0.00    -0.240 N 
ATOM     21  C   UNL     1       2.649  12.489  -0.707  0.00  0.00    +0.306 C 
ATOM     22  O   UNL     1       3.809  12.842  -0.793  0.00  0.00    -0.252 OA
ATOM     23  N   UNL     1       1.662  13.407  -0.719  0.00  0.00    -0.297 N 
ATOM     24  H   UNL     1       1.424  10.897  -0.528  0.00  0.00    +0.159 HD
ATOM     25  H   UNL     1       0.737  13.125  -0.650  0.00  0.00    +0.151 HD
BRANCH  23  26
ATOM     26  C   UNL     1       1.988  14.830  -0.838  0.00  0.00    +0.068 C 
ATOM     27  C   UNL     1       2.147  15.196  -2.315  0.00  0.00    +0.027 C 
ATOM     28  C   UNL     1       0.860  15.664  -0.225  0.00  0.00    +0.027 C 
ENDBRANCH  23  26
ENDBRANCH  17  18
ENDBRANCH  16  17
ENDBRANCH   5  16
TORSDOF 5
