REMARK  Name = ZINC32192958
REMARK  6 active torsions:
REMARK  status: ('A' for Active; 'I' for Inactive)
REMARK    1  A    between atoms: C_1  and  O_2
REMARK    2  A    between atoms: O_2  and  C_3
REMARK    3  A    between atoms: C_5  and  C_12
REMARK    4  A    between atoms: C_8  and  O_9
REMARK    5  A    between atoms: O_9  and  C_10
REMARK    6  A    between atoms: C_23  and  N_28
REMARK                            x       y       z     vdW  Elec       q    Type
REMARK                         _______ _______ _______ _____ _____    ______ ____
ROOT
ATOM      1  C   UNL     1       2.170   0.768   1.071  0.00  0.00    +0.105 C 
ATOM      2  C   UNL     1       1.598   1.571  -0.084  0.00  0.00    +0.029 C 
ATOM      3  C   UNL     1       2.062   1.194  -1.497  0.00  0.00    +0.033 C 
ATOM      4  C   UNL     1       0.844   1.589  -2.336  0.00  0.00    -0.030 C 
ATOM      5  C   UNL     1      -0.253   1.550  -1.590  0.00  0.00    -0.023 C 
ATOM      6  C   UNL     1       0.118   1.103  -0.223  0.00  0.00    +0.049 C 
ATOM      7  C   UNL     1      -0.621   1.579   0.967  0.00  0.00    -0.017 A 
ATOM      8  C   UNL     1      -1.936   1.956   0.929  0.00  0.00    +0.038 A 
ATOM      9  C   UNL     1      -2.583   2.365   2.080  0.00  0.00    +0.127 A 
ATOM     10  C   UNL     1      -1.906   2.378   3.286  0.00  0.00    +0.034 A 
ATOM     11  C   UNL     1      -0.583   1.991   3.342  0.00  0.00    +0.025 A 
ATOM     12  C   UNL     1       0.079   1.585   2.190  0.00  0.00    +0.032 A 
ATOM     13  N   UNL     1       1.426   1.212   2.270  0.00  0.00    -0.336 N 
ATOM     14  H   UNL     1       1.931   1.253   3.246  0.00  0.00    +0.147 HD
ENDROOT
BRANCH   1  17
ATOM     15  C   UNL     1       0.611  -2.673   1.110  0.00  0.00    +0.163 A 
ATOM     16  C   UNL     1       0.815  -1.319   1.327  0.00  0.00    +0.055 A 
ATOM     17  C   UNL     1       1.953  -0.705   0.838  0.00  0.00    -0.022 A 
ATOM     18  C   UNL     1       2.894  -1.439   0.142  0.00  0.00    +0.024 A 
ATOM     19  C   UNL     1       2.700  -2.792  -0.073  0.00  0.00    +0.063 A 
ATOM     20  C   UNL     1       1.558  -3.413   0.410  0.00  0.00    +0.175 A 
ATOM     21 BR   UNL     1       3.990  -3.793  -1.026  0.00  0.00    -0.046 Br
BRANCH  15  23
ATOM     22  C   UNL     1      -1.439  -2.456   2.296  0.00  0.00    +0.277 C 
ATOM     23  O   UNL     1      -0.510  -3.278   1.586  0.00  0.00    -0.491 OA
ENDBRANCH  15  23
BRANCH  20  24
ATOM     24  O   UNL     1       1.365  -4.743   0.200  0.00  0.00    -0.490 OA
ATOM     25  C   UNL     1       1.876  -5.637   1.190  0.00  0.00    +0.277 C 
ENDBRANCH  20  24
ENDBRANCH   1  17
BRANCH   9  26
ATOM     26  N   UNL     1      -4.001   2.788   2.022  0.00  0.00    +0.056 N 
ATOM     27  O   UNL     1      -4.571   3.147   3.037  0.00  0.00    -0.126 OA
ATOM     28  O   UNL     1      -4.597   2.776   0.960  0.00  0.00    -0.126 OA
ENDBRANCH   9  26
TORSDOF 4
