REMARK  Name = ZINC38959044
REMARK  10 active torsions:
REMARK  status: ('A' for Active; 'I' for Inactive)
REMARK    1  A    between atoms: C_1  and  C_2
REMARK    2  A    between atoms: C_7  and  C_14
REMARK    3  A    between atoms: C_14  and  N_15
REMARK    4  A    between atoms: N_15  and  C_16
REMARK    5  A    between atoms: C_16  and  C_17
REMARK    6  A    between atoms: C_16  and  C_18
REMARK    7  A    between atoms: C_19  and  C_21
REMARK    8  A    between atoms: C_21  and  C_22
REMARK    9  A    between atoms: C_21  and  C_23
REMARK   10  A    between atoms: C_21  and  C_24
REMARK                            x       y       z     vdW  Elec       q    Type
REMARK                         _______ _______ _______ _____ _____    ______ ____
ROOT
ATOM      1  C   UNL     1       2.630  -0.553   8.600  0.00  0.00    +0.044 C 
ATOM      2  C   UNL     1       2.398  -1.305   7.314  0.00  0.00    -0.049 A 
ATOM      3  C   UNL     1       2.318  -0.585   6.122  0.00  0.00    +0.004 A 
ATOM      4  C   UNL     1       2.111  -1.206   4.933  0.00  0.00    +0.010 A 
ATOM      5  C   UNL     1       1.970  -2.663   4.913  0.00  0.00    -0.007 A 
ATOM      6  C   UNL     1       1.762  -3.329   3.742  0.00  0.00    -0.003 C 
ATOM      7  C   UNL     1       1.628  -4.838   3.816  0.00  0.00    +0.116 C 
ATOM      8  C   UNL     1       1.738  -5.480   5.180  0.00  0.00    +0.226 C 
ATOM      9  O   UNL     1       1.639  -6.687   5.297  0.00  0.00    -0.275 OA
ATOM     10  N   UNL     1       1.942  -4.724   6.246  0.00  0.00    -0.284 N 
ATOM     11  C   UNL     1       2.060  -3.398   6.186  0.00  0.00    +0.041 A 
ATOM     12  C   UNL     1       2.281  -2.658   7.362  0.00  0.00    +0.027 A 
ATOM     13  H   UNL     1       2.009  -5.156   7.112  0.00  0.00    +0.155 HD
ENDROOT
BRANCH   7  14
ATOM     14  C   UNL     1       0.268  -5.218   3.226  0.00  0.00    +0.125 C 
BRANCH  14  15
ATOM     15  N   UNL     1      -0.002  -6.633   3.496  0.00  0.00    -0.298 N 
ATOM     16  C   UNL     1       0.391  -7.574   2.616  0.00  0.00    +0.221 C 
ATOM     17  O   UNL     1       0.309  -8.749   2.906  0.00  0.00    -0.275 OA
BRANCH  16  18
ATOM     18  C   UNL     1       0.933  -7.167   1.270  0.00  0.00    +0.039 C 
ATOM     19  C   UNL     1       1.442  -8.405   0.529  0.00  0.00    +0.020 C 
ATOM     20  C   UNL     1      -0.177  -6.505   0.452  0.00  0.00    +0.020 C 
ATOM     21  C   UNL     1       2.084  -6.178   1.461  0.00  0.00    +0.020 C 
ENDBRANCH  16  18
BRANCH  15  22
ATOM     22  C   UNL     1      -0.701  -7.024   4.723  0.00  0.00    +0.070 C 
ATOM     23  C   UNL     1      -2.206  -7.080   4.457  0.00  0.00    +0.028 C 
ATOM     24  C   UNL     1      -0.210  -8.402   5.172  0.00  0.00    +0.028 C 
ENDBRANCH  15  22
ENDBRANCH  14  15
ENDBRANCH   7  14
TORSDOF 4
