REMARK  Name = ZINC46722464
REMARK  9 active torsions:
REMARK  status: ('A' for Active; 'I' for Inactive)
REMARK    1  A    between atoms: C_1  and  C_2
REMARK    2  A    between atoms: C_6  and  N_8
REMARK    3  A    between atoms: N_11  and  C_14
REMARK    4  A    between atoms: C_14  and  C_15
REMARK    5  A    between atoms: C_15  and  C_16
REMARK    6  A    between atoms: C_16  and  C_17
REMARK    7  A    between atoms: C_17  and  N_18
REMARK    8  A    between atoms: N_18  and  S_19
REMARK    9  A    between atoms: S_19  and  C_22
REMARK                            x       y       z     vdW  Elec       q    Type
REMARK                         _______ _______ _______ _____ _____    ______ ____
ROOT
ATOM      1  C   UNL     1      -2.729  -6.564   6.875  0.00  0.00    +0.015 C 
ENDROOT
BRANCH   1   2
ATOM      2  C   UNL     1      -1.694  -6.062   5.866  0.00  0.00    -0.017 C 
BRANCH   2   3
ATOM      3  C   UNL     1      -1.865  -4.554   5.668  0.00  0.00    -0.079 C 
BRANCH   3   7
ATOM      4  N   UNL     1       0.051  -2.796   2.390  0.00  0.00    -0.333 N 
ATOM      5  C   UNL     1       0.152  -2.094   3.679  0.00  0.00    +0.086 C 
ATOM      6  C   UNL     1      -0.958  -2.609   4.601  0.00  0.00    -0.060 C 
ATOM      7  N   UNL     1      -0.872  -4.071   4.700  0.00  0.00    +0.382 N 
ATOM      8  C   UNL     1      -1.135  -4.677   3.388  0.00  0.00    -0.060 C 
ATOM      9  C   UNL     1      -0.039  -4.265   2.406  0.00  0.00    +0.086 C 
ATOM     10  H   UNL     1       0.052  -4.332   5.011  0.00  0.00    -0.082 HD
BRANCH   4  16
ATOM     11  C   UNL     1      -0.047   1.502   0.010  0.00  0.00    +0.044 C 
ATOM     12  C   UNL     1      -0.012  -0.004   0.002  0.00  0.00    -0.049 A 
ATOM     13  C   UNL     1       0.006  -0.688  -1.200  0.00  0.00    +0.003 A 
ATOM     14  C   UNL     1       0.038  -2.070  -1.212  0.00  0.00    +0.002 A 
ATOM     15  C   UNL     1       0.053  -2.773  -0.023  0.00  0.00    +0.023 A 
ATOM     16  C   UNL     1       0.036  -2.089   1.186  0.00  0.00    +0.030 A 
ATOM     17  C   UNL     1       0.009  -0.700   1.194  0.00  0.00    +0.026 A 
ENDBRANCH   4  16
ENDBRANCH   3   7
ENDBRANCH   2   3
ENDBRANCH   1   2
BRANCH   1  18
ATOM     18  C   UNL     1      -2.558  -8.072   7.072  0.00  0.00    +0.106 C 
BRANCH  18  19
ATOM     19  N   UNL     1      -3.548  -8.553   8.038  0.00  0.00    -0.190 NA
ATOM     20  H   UNL     1      -4.027  -7.922   8.598  0.00  0.00    +0.148 HD
BRANCH  19  21
ATOM     21  S   UNL     1      -3.852 -10.176   8.174  0.00  0.00    +0.055 S 
ATOM     22  O   UNL     1      -4.826 -10.322   9.198  0.00  0.00    -0.153 OA
ATOM     23  O   UNL     1      -4.054 -10.663   6.854  0.00  0.00    -0.153 OA
BRANCH  21  24
ATOM     24  C   UNL     1      -2.377 -10.934   8.770  0.00  0.00    +0.084 C 
ATOM     25  C   UNL     1      -1.620 -11.627   7.934  0.00  0.00    +0.032 C 
ATOM     26  C   UNL     1      -0.401 -12.296   8.434  0.00  0.00    -0.020 A 
ATOM     27  C   UNL     1       0.587 -12.733   7.553  0.00  0.00    +0.008 A 
ATOM     28  C   UNL     1       1.722 -13.341   8.049  0.00  0.00    +0.001 A 
ATOM     29  C   UNL     1       1.880 -13.516   9.412  0.00  0.00    +0.000 A 
ATOM     30  C   UNL     1       0.898 -13.089  10.290  0.00  0.00    +0.004 A 
ATOM     31  C   UNL     1      -0.243 -12.487   9.807  0.00  0.00    -0.040 A 
ATOM     32  C   UNL     1      -1.339 -12.051  10.745  0.00  0.00    +0.042 C 
ATOM     33  C   UNL     1      -1.998 -10.775  10.216  0.00  0.00    +0.061 C 
ENDBRANCH  21  24
ENDBRANCH  19  21
ENDBRANCH  18  19
ENDBRANCH   1  18
TORSDOF 8
