REMARK  Name = ZINC06661846
REMARK  4 active torsions:
REMARK  status: ('A' for Active; 'I' for Inactive)
REMARK    1  A    between atoms: C_5  and  C_7
REMARK    2  A    between atoms: C_7  and  N_8
REMARK    3  A    between atoms: C_20  and  C_21
REMARK    4  A    between atoms: C_20  and  N_43
REMARK                            x       y       z     vdW  Elec       q    Type
REMARK                         _______ _______ _______ _____ _____    ______ ____
ROOT
ATOM      1  N   UNL     1      -0.460   1.879  -1.139  0.00  0.00    -0.277 N 
ATOM      2  C   UNL     1      -0.005   3.172  -1.295  0.00  0.00    +0.108 A 
ATOM      3  C   UNL     1      -0.421   3.893  -2.372  0.00  0.00    +0.039 A 
ATOM      4  C   UNL     1      -1.310   3.308  -3.290  0.00  0.00    +0.257 A 
ATOM      5  O   UNL     1      -1.696   3.940  -4.258  0.00  0.00    -0.267 OA
ATOM      6  N   UNL     1      -1.735   2.045  -3.095  0.00  0.00    -0.275 N 
ATOM      7  H   UNL     1      -2.373   1.629  -3.743  0.00  0.00    +0.173 HD
ATOM      8  C   UNL     1      -1.306   1.339  -2.033  0.00  0.00    +0.331 A 
ATOM      9  O   UNL     1      -1.692   0.196  -1.877  0.00  0.00    -0.246 OA
ATOM     10  C   UNL     1       0.052   5.304  -2.612  0.00  0.00    -0.031 C 
ATOM     11  C   UNL     1       1.606   4.835  -0.838  0.00  0.00    +0.028 C 
ATOM     12  N   UNL     1       0.844   3.682  -0.351  0.00  0.00    -0.347 N 
ATOM     13  H   UNL     1       0.347   3.909   0.497  0.00  0.00    +0.145 HD
ATOM     14  N   UNL     1       0.651   5.825  -1.370  0.00  0.00    +0.397 N 
ATOM     15  H   UNL     1      -0.090   5.984  -0.678  0.00  0.00    -0.078 HD
ENDROOT
BRANCH   1  16
ATOM     16  C   UNL     1      -0.013   1.086   0.008  0.00  0.00    +0.164 C 
BRANCH  16  21
ATOM     17  C   UNL     1       3.725   0.587  -0.177  0.00  0.00    +0.000 A 
ATOM     18  C   UNL     1       3.810  -0.621  -0.844  0.00  0.00    +0.001 A 
ATOM     19  C   UNL     1       2.659  -1.277  -1.236  0.00  0.00    +0.020 A 
ATOM     20  C   UNL     1       1.420  -0.727  -0.956  0.00  0.00    +0.046 A 
ATOM     21  C   UNL     1       1.336   0.484  -0.293  0.00  0.00    -0.009 A 
ATOM     22  C   UNL     1       2.488   1.139   0.099  0.00  0.00    +0.007 A 
ATOM     23 CL   UNL     1      -0.027  -1.554  -1.441  0.00  0.00    -0.083 Cl
ENDBRANCH  16  21
ENDBRANCH   1  16
BRANCH  14  24
ATOM     24  C   UNL     1       1.343   7.108  -1.639  0.00  0.00    -0.000 C 
BRANCH  24  25
ATOM     25  C   UNL     1       1.745   7.734  -0.329  0.00  0.00    +0.089 A 
ATOM     26  C   UNL     1       2.912   7.540   0.311  0.00  0.00    +0.042 A 
ATOM     27  C   UNL     1       2.867   8.318   1.491  0.00  0.00    +0.041 A 
ATOM     28  C   UNL     1       1.671   8.934   1.506  0.00  0.00    +0.195 A 
ATOM     29  O   UNL     1       0.996   8.577   0.401  0.00  0.00    -0.470 OA
ENDBRANCH  24  25
ENDBRANCH  14  24
TORSDOF 4
