REMARK  Name = ZINC09318189
REMARK  8 active torsions:
REMARK  status: ('A' for Active; 'I' for Inactive)
REMARK    1  A    between atoms: C_1  and  C_2
REMARK    2  A    between atoms: C_2  and  C_31
REMARK    3  A    between atoms: C_7  and  C_30
REMARK    4  A    between atoms: N_9  and  N_10
REMARK    5  A    between atoms: C_13  and  O_28
REMARK    6  A    between atoms: C_14  and  C_17
REMARK    7  A    between atoms: C_17  and  C_18
REMARK    8  A    between atoms: N_20  and  C_21
REMARK                            x       y       z     vdW  Elec       q    Type
REMARK                         _______ _______ _______ _____ _____    ______ ____
ROOT
ATOM      1  N   UNL     1       0.241   5.365   1.993  0.00  0.00    -0.122 NA
ATOM      2  C   UNL     1       0.002   6.323   2.869  0.00  0.00    +0.213 C 
ATOM      3  N   UNL     1       0.489   7.584   2.886  0.00  0.00    -0.189 NA
ATOM      4  C   UNL     1       0.202   8.452   3.780  0.00  0.00    +0.204 C 
ATOM      5  C   UNL     1      -0.752   7.993   4.875  0.00  0.00    +0.148 C 
ATOM      6  S   UNL     1      -1.050   6.267   4.314  0.00  0.00    -0.071 S 
ENDROOT
BRANCH   1  14
ATOM      7  C   UNL     1       2.162   1.444   1.246  0.00  0.00    +0.012 C 
ATOM      8  C   UNL     1       1.337   1.781   0.002  0.00  0.00    -0.021 C 
ATOM      9  C   UNL     1      -0.064   1.074   0.013  0.00  0.00    +0.001 C 
ATOM     10  C   UNL     1      -0.742   1.762  -1.213  0.00  0.00    +0.005 C 
ATOM     11  C   UNL     1      -0.196   3.220  -1.173  0.00  0.00    +0.013 C 
ATOM     12  C   UNL     1       0.775   3.246   0.047  0.00  0.00    +0.013 C 
ATOM     13  C   UNL     1      -0.129   3.170   1.285  0.00  0.00    +0.048 C 
ATOM     14  N   UNL     1      -0.363   4.110   2.145  0.00  0.00    -0.155 NA
ATOM     15  C   UNL     1      -0.706   1.751   1.263  0.00  0.00    +0.057 C 
ATOM     16  C   UNL     1       1.815   4.368   0.048  0.00  0.00    +0.018 C 
ATOM     17  C   UNL     1       2.114   1.500  -1.286  0.00  0.00    +0.012 C 
ENDBRANCH   1  14
BRANCH   4  18
ATOM     18  O   UNL     1       0.712   9.697   3.754  0.00  0.00    -0.495 OA
ATOM     19  H   UNL     1       1.311   9.911   3.026  0.00  0.00    +0.293 HD
ENDBRANCH   4  18
BRANCH   5  20
ATOM     20  C   UNL     1      -0.083   8.031   6.250  0.00  0.00    +0.120 C 
BRANCH  20  21
ATOM     21  C   UNL     1      -1.097   7.688   7.312  0.00  0.00    +0.219 C 
ATOM     22  O   UNL     1      -2.241   7.438   6.999  0.00  0.00    -0.275 OA
ATOM     23  N   UNL     1      -0.731   7.660   8.609  0.00  0.00    -0.285 N 
ATOM     24  H   UNL     1       0.198   7.794   8.854  0.00  0.00    +0.155 HD
BRANCH  23  25
ATOM     25  C   UNL     1      -1.692   7.437   9.602  0.00  0.00    +0.033 A 
ATOM     26  C   UNL     1      -1.578   8.069  10.833  0.00  0.00    +0.024 A 
ATOM     27  C   UNL     1      -2.530   7.851  11.810  0.00  0.00    +0.017 A 
ATOM     28  C   UNL     1      -3.591   6.997  11.566  0.00  0.00    +0.018 A 
ATOM     29  C   UNL     1      -3.703   6.362  10.341  0.00  0.00    +0.017 A 
ATOM     30  C   UNL     1      -2.757   6.580   9.360  0.00  0.00    +0.024 A 
ATOM     31 BR   UNL     1      -4.888   6.696  12.908  0.00  0.00    -0.050 Br
ENDBRANCH  23  25
ENDBRANCH  20  21
ENDBRANCH   5  20
TORSDOF 5
