REMARK  Name = ZINC09503356
REMARK  5 active torsions:
REMARK  status: ('A' for Active; 'I' for Inactive)
REMARK    1  A    between atoms: C_1  and  C_2
REMARK    2  A    between atoms: C_2  and  C_22
REMARK    3  A    between atoms: N_5  and  C_9
REMARK    4  A    between atoms: C_9  and  C_10
REMARK    5  A    between atoms: C_13  and  C_15
REMARK                            x       y       z     vdW  Elec       q    Type
REMARK                         _______ _______ _______ _____ _____    ______ ____
ROOT
ATOM      1  C   UNL     1      -0.389   7.304   3.814  0.00  0.00    +0.047 C 
ATOM      2  C   UNL     1       0.717   6.721   2.933  0.00  0.00    +0.135 C 
ATOM      3  C   UNL     1       2.037   6.697   3.678  0.00  0.00    +0.251 C 
ATOM      4  O   UNL     1       2.290   6.096   4.699  0.00  0.00    -0.272 OA
ATOM      5  N   UNL     1       2.870   7.484   2.968  0.00  0.00    -0.215 N 
ATOM      6  C   UNL     1       2.266   7.995   1.889  0.00  0.00    +0.310 C 
ATOM      7  O   UNL     1       2.814   8.735   1.095  0.00  0.00    -0.252 OA
ATOM      8  N   UNL     1       0.981   7.601   1.781  0.00  0.00    -0.281 N 
ATOM      9  H   UNL     1       0.353   7.847   1.084  0.00  0.00    +0.152 HD
ENDROOT
BRANCH   2  10
ATOM     10  C   UNL     1       0.346   5.336   2.467  0.00  0.00    -0.012 A 
ATOM     11  C   UNL     1       0.716   4.235   3.217  0.00  0.00    +0.010 A 
ATOM     12  C   UNL     1       0.380   2.961   2.796  0.00  0.00    +0.050 A 
ATOM     13  C   UNL     1      -0.330   2.792   1.619  0.00  0.00    +0.162 A 
ATOM     14  C   UNL     1      -0.702   3.897   0.867  0.00  0.00    +0.162 A 
ATOM     15  C   UNL     1      -0.364   5.171   1.292  0.00  0.00    +0.055 A 
ATOM     16  O   UNL     1      -1.402   3.720  -0.291  0.00  0.00    -0.488 OA
ATOM     17  C   UNL     1      -0.690   3.098  -1.362  0.00  0.00    +0.232 C 
ATOM     18  C   UNL     1      -0.736   1.583  -1.234  0.00  0.00    +0.082 C 
ATOM     19  C   UNL     1      -0.013   1.086   0.008  0.00  0.00    +0.232 C 
ATOM     20  O   UNL     1      -0.670   1.541   1.193  0.00  0.00    -0.488 OA
ENDBRANCH   2  10
BRANCH   5  21
ATOM     21  C   UNL     1       4.264   7.745   3.332  0.00  0.00    +0.215 C 
BRANCH  21  22
ATOM     22  C   UNL     1       5.153   6.710   2.692  0.00  0.00    +0.235 A 
ATOM     23  N   UNL     1       5.714   6.796   1.518  0.00  0.00    -0.110 NA
ATOM     24  N   UNL     1       6.404   5.734   1.292  0.00  0.00    -0.107 NA
ATOM     25  C   UNL     1       6.307   4.927   2.323  0.00  0.00    +0.248 A 
ATOM     26  O   UNL     1       5.516   5.533   3.232  0.00  0.00    -0.419 OA
BRANCH  25  27
ATOM     27  C   UNL     1       6.949   3.603   2.464  0.00  0.00    +0.039 A 
ATOM     28  C   UNL     1       6.760   2.853   3.626  0.00  0.00    +0.014 A 
ATOM     29  C   UNL     1       7.358   1.616   3.750  0.00  0.00    +0.016 A 
ATOM     30  C   UNL     1       8.152   1.123   2.729  0.00  0.00    +0.018 A 
ATOM     31  C   UNL     1       8.347   1.864   1.576  0.00  0.00    +0.016 A 
ATOM     32  C   UNL     1       7.750   3.100   1.438  0.00  0.00    +0.014 A 
ATOM     33 BR   UNL     1       8.973  -0.571   2.909  0.00  0.00    -0.050 Br
ENDBRANCH  25  27
ENDBRANCH  21  22
ENDBRANCH   5  21
TORSDOF 4
