REMARK  Name = ZINC59878092
REMARK  6 active torsions:
REMARK  status: ('A' for Active; 'I' for Inactive)
REMARK    1  A    between atoms: C_3  and  C_7
REMARK    2  A    between atoms: C_9  and  C_22
REMARK    3  A    between atoms: N_13  and  C_16
REMARK    4  A    between atoms: C_16  and  C_17
REMARK    5  A    between atoms: N_24  and  C_25
REMARK    6  A    between atoms: C_25  and  C_26
REMARK                            x       y       z     vdW  Elec       q    Type
REMARK                         _______ _______ _______ _____ _____    ______ ____
ROOT
ATOM      1  C   UNL     1       3.683   2.032  -0.023  0.00  0.00    +0.076 A 
ATOM      2  C   UNL     1       4.857   1.273  -0.044  0.00  0.00    +0.042 A 
ATOM      3  C   UNL     1       6.086   1.922  -0.053  0.00  0.00    +0.051 A 
ATOM      4  C   UNL     1       6.089   3.336  -0.040  0.00  0.00    +0.051 A 
ATOM      5  C   UNL     1       7.109   4.310  -0.044  0.00  0.00    +0.145 A 
ATOM      6  N   UNL     1       6.558   5.490  -0.027  0.00  0.00    -0.177 NA
ATOM      7  N   UNL     1       5.164   5.361  -0.011  0.00  0.00    -0.239 N 
ATOM      8  C   UNL     1       4.858   4.025  -0.019  0.00  0.00    +0.160 A 
ATOM      9  N   UNL     1       3.717   3.354  -0.016  0.00  0.00    -0.227 NA
ENDROOT
BRANCH   1  12
ATOM     10  C   UNL     1      -0.017   1.379   0.010  0.00  0.00    +0.020 A 
ATOM     11  C   UNL     1       1.181   2.072   0.002  0.00  0.00    +0.013 A 
ATOM     12  C   UNL     1       2.372   1.339  -0.013  0.00  0.00    +0.019 A 
ATOM     13  C   UNL     1       2.306  -0.053  -0.020  0.00  0.00    +0.120 A 
ATOM     14  N   UNL     1       1.141  -0.669  -0.012  0.00  0.00    -0.263 NA
ATOM     15  C   UNL     1       0.002  -0.004   0.002  0.00  0.00    +0.111 A 
ENDBRANCH   1  12
BRANCH   3  16
ATOM     16  C   UNL     1       7.352   1.158  -0.075  0.00  0.00    +0.245 C 
ATOM     17  O   UNL     1       8.416   1.745  -0.082  0.00  0.00    -0.270 OA
ATOM     18  N   UNL     1       7.325  -0.190  -0.086  0.00  0.00    -0.306 N 
ATOM     19  H   UNL     1       6.476  -0.658  -0.080  0.00  0.00    +0.149 HD
BRANCH  18  20
ATOM     20  C   UNL     1       8.579  -0.947  -0.107  0.00  0.00    +0.161 C 
BRANCH  20  21
ATOM     21  C   UNL     1       8.275  -2.423  -0.117  0.00  0.00    +0.078 A 
ATOM     22  C   UNL     1       8.201  -3.203  -1.207  0.00  0.00    +0.118 A 
ATOM     23  N   UNL     1       7.901  -4.495  -0.784  0.00  0.00    -0.300 N 
ATOM     24  C   UNL     1       7.689  -5.737  -1.343  0.00  0.00    +0.100 A 
ATOM     25  C   UNL     1       7.410  -6.791  -0.577  0.00  0.00    +0.067 A 
ATOM     26  S   UNL     1       7.427  -6.073   1.058  0.00  0.00    -0.058 S 
ATOM     27  C   UNL     1       7.810  -4.404   0.580  0.00  0.00    +0.178 A 
ATOM     28  N   UNL     1       8.037  -3.182   0.964  0.00  0.00    -0.225 NA
ENDBRANCH  20  21
ENDBRANCH  18  20
ENDBRANCH   3  16
BRANCH   7  29
ATOM     29  C   UNL     1       4.199   6.463   0.011  0.00  0.00    +0.220 C 
BRANCH  29  30
ATOM     30  C   UNL     1       3.851   6.854  -1.403  0.00  0.00    +0.126 A 
ATOM     31  C   UNL     1       2.845   6.343  -2.134  0.00  0.00    +0.046 A 
ATOM     32  C   UNL     1       2.882   6.989  -3.391  0.00  0.00    +0.041 A 
ATOM     33  C   UNL     1       3.909   7.857  -3.352  0.00  0.00    +0.195 A 
ATOM     34  O   UNL     1       4.488   7.775  -2.143  0.00  0.00    -0.466 OA
ENDBRANCH  29  30
ENDBRANCH   7  29
TORSDOF 6
