REMARK  Name = ZINC20986867
REMARK  7 active torsions:
REMARK  status: ('A' for Active; 'I' for Inactive)
REMARK    1  A    between atoms: C_1  and  C_2
REMARK    2  A    between atoms: C_2  and  C_18
REMARK    3  A    between atoms: N_3  and  N_4
REMARK    4  A    between atoms: C_5  and  C_7
REMARK    5  A    between atoms: C_7  and  C_8
REMARK    6  A    between atoms: N_16  and  C_17
REMARK    7  A    between atoms: C_27  and  O_28
REMARK                            x       y       z     vdW  Elec       q    Type
REMARK                         _______ _______ _______ _____ _____    ______ ____
ROOT
ATOM      1  C   UNL     1       3.472   7.591   0.009  0.00  0.00    +0.068 C 
ATOM      2  C   UNL     1       3.531   6.085   0.000  0.00  0.00    +0.067 C 
ATOM      3  N   UNL     1       4.680   5.481  -0.014  0.00  0.00    -0.184 NA
ENDROOT
BRANCH   2   4
ATOM      4  C   UNL     1       2.285   5.300   0.007  0.00  0.00    +0.039 A 
ATOM      5  C   UNL     1       1.043   5.959   0.022  0.00  0.00    +0.014 A 
ATOM      6  C   UNL     1      -0.118   5.258   0.029  0.00  0.00    +0.009 A 
ATOM      7  C   UNL     1      -0.095   3.850   0.023  0.00  0.00    -0.014 A 
ATOM      8  C   UNL     1      -1.287   3.107   0.030  0.00  0.00    +0.008 A 
ATOM      9  C   UNL     1      -1.234   1.746   0.017  0.00  0.00    +0.001 A 
ATOM     10  C   UNL     1      -0.013   1.076   0.008  0.00  0.00    +0.001 A 
ATOM     11  C   UNL     1       1.163   1.763   0.000  0.00  0.00    +0.012 A 
ATOM     12  C   UNL     1       1.147   3.168   0.008  0.00  0.00    +0.024 A 
ATOM     13  C   UNL     1       2.345   3.909  -0.000  0.00  0.00    +0.133 A 
BRANCH  13  14
ATOM     14  O   UNL     1       3.543   3.274  -0.014  0.00  0.00    -0.506 OA
ATOM     15  H   UNL     1       3.584   2.175  -0.020  0.00  0.00    +0.292 HD
ENDBRANCH  13  14
ENDBRANCH   2   4
BRANCH   3  16
ATOM     16  N   UNL     1       5.865   6.228  -0.021  0.00  0.00    -0.206 N 
ATOM     17  C   UNL     1       7.058   5.600  -0.035  0.00  0.00    +0.240 C 
ATOM     18  O   UNL     1       7.105   4.388  -0.042  0.00  0.00    -0.274 OA
ATOM     19  H   UNL     1       5.822   7.327  -0.014  0.00  0.00    +0.177 HD
BRANCH  17  20
ATOM     20  C   UNL     1       8.332   6.404  -0.042  0.00  0.00    +0.171 C 
BRANCH  20  21
ATOM     21  C   UNL     1       9.515   5.470  -0.058  0.00  0.00    +0.119 A 
ATOM     22  N   UNL     1      10.113   5.007   1.000  0.00  0.00    -0.232 NA
ATOM     23  C   UNL     1      11.135   4.194   0.628  0.00  0.00    +0.089 A 
ATOM     24  C   UNL     1      12.082   3.449   1.337  0.00  0.00    +0.030 A 
ATOM     25  C   UNL     1      13.013   2.713   0.662  0.00  0.00    +0.002 A 
ATOM     26  C   UNL     1      13.031   2.695  -0.726  0.00  0.00    +0.002 A 
ATOM     27  C   UNL     1      12.107   3.422  -1.446  0.00  0.00    +0.028 A 
ATOM     28  C   UNL     1      11.153   4.176  -0.777  0.00  0.00    +0.069 A 
ATOM     29  N   UNL     1      10.117   4.993  -1.181  0.00  0.00    -0.330 N 
ATOM     30  C   UNL     1       9.734   5.291  -2.564  0.00  0.00    +0.150 C 
ENDBRANCH  20  21
ENDBRANCH  17  20
ENDBRANCH   3  16
TORSDOF 5
