REMARK  Name = ZINC02420299
REMARK  5 active torsions:
REMARK  status: ('A' for Active; 'I' for Inactive)
REMARK    1  A    between atoms: C_5  and  C_7
REMARK    2  A    between atoms: C_7  and  N_8
REMARK    3  A    between atoms: C_9  and  N_29
REMARK    4  A    between atoms: C_10  and  S_21
REMARK    5  A    between atoms: S_21  and  C_24
REMARK                            x       y       z     vdW  Elec       q    Type
REMARK                         _______ _______ _______ _____ _____    ______ ____
ROOT
ATOM      1  N   UNL     1       2.295   5.041  -3.543  0.00  0.00    -0.307 N 
ATOM      2  C   UNL     1       1.665   5.164  -2.329  0.00  0.00    +0.126 A 
ATOM      3  C   UNL     1       2.340   4.488  -1.370  0.00  0.00    +0.161 A 
ATOM      4  C   UNL     1       3.476   3.893  -1.969  0.00  0.00    +0.135 A 
ATOM      5  C   UNL     1       3.422   4.263  -3.389  0.00  0.00    +0.163 A 
ATOM      6  N   UNL     1       4.360   3.842  -4.208  0.00  0.00    -0.226 NA
ATOM      7  C   UNL     1       5.363   3.088  -3.740  0.00  0.00    +0.092 A 
ATOM      8  C   UNL     1       6.374   2.637  -4.609  0.00  0.00    +0.030 A 
ATOM      9  C   UNL     1       7.386   1.865  -4.128  0.00  0.00    +0.002 A 
ATOM     10  C   UNL     1       7.439   1.510  -2.781  0.00  0.00    +0.002 A 
ATOM     11  C   UNL     1       6.479   1.925  -1.911  0.00  0.00    +0.030 A 
ATOM     12  C   UNL     1       5.417   2.727  -2.371  0.00  0.00    +0.090 A 
ATOM     13  N   UNL     1       4.469   3.140  -1.523  0.00  0.00    -0.240 NA
ENDROOT
BRANCH   3  14
ATOM     14  S   UNL     1       1.889   4.376   0.330  0.00  0.00    +0.037 S 
ATOM     15  O   UNL     1       1.082   5.511   0.611  0.00  0.00    -0.164 OA
ATOM     16  O   UNL     1       3.081   4.091   1.048  0.00  0.00    -0.164 OA
BRANCH  14  17
ATOM     17  C   UNL     1       0.848   2.964   0.500  0.00  0.00    +0.131 A 
ATOM     18  C   UNL     1       1.189   1.680   0.767  0.00  0.00    +0.035 A 
ATOM     19  C   UNL     1       0.192   0.727   0.857  0.00  0.00    +0.009 A 
ATOM     20  C   UNL     1      -1.097   1.104   0.674  0.00  0.00    +0.047 A 
ATOM     21  S   UNL     1      -0.929   2.854   0.365  0.00  0.00    -0.078 S 
ENDBRANCH  14  17
ENDBRANCH   3  14
BRANCH   2  22
ATOM     22  N   UNL     1       0.500   5.878  -2.116  0.00  0.00    -0.343 N 
ATOM     23  H   UNL     1       0.056   5.836  -1.255  0.00  0.00    +0.144 HD
ATOM     24  H   UNL     1       0.127   6.422  -2.828  0.00  0.00    +0.144 HD
ENDBRANCH   2  22
BRANCH   1  25
ATOM     25  C   UNL     1       1.841   5.642  -4.800  0.00  0.00    +0.161 C 
BRANCH  25  30
ATOM     26  C   UNL     1      -1.412   4.036  -5.843  0.00  0.00    +0.000 A 
ATOM     27  C   UNL     1      -0.968   3.038  -6.691  0.00  0.00    +0.001 A 
ATOM     28  C   UNL     1       0.385   2.882  -6.928  0.00  0.00    +0.020 A 
ATOM     29  C   UNL     1       1.295   3.729  -6.319  0.00  0.00    +0.046 A 
ATOM     30  C   UNL     1       0.850   4.724  -5.467  0.00  0.00    -0.009 A 
ATOM     31  C   UNL     1      -0.503   4.879  -5.232  0.00  0.00    +0.007 A 
ATOM     32 CL   UNL     1       2.994   3.539  -6.621  0.00  0.00    -0.083 Cl
ENDBRANCH  25  30
ENDBRANCH   1  25
TORSDOF 5
