REMARK  Name = ZINC54354086
REMARK  9 active torsions:
REMARK  status: ('A' for Active; 'I' for Inactive)
REMARK    1  A    between atoms: C_1  and  C_2
REMARK    2  A    between atoms: C_6  and  C_23
REMARK    3  A    between atoms: C_7  and  N_8
REMARK    4  A    between atoms: N_11  and  C_12
REMARK    5  A    between atoms: C_12  and  C_13
REMARK    6  A    between atoms: C_13  and  C_14
REMARK    7  A    between atoms: C_17  and  N_20
REMARK    8  A    between atoms: C_23  and  C_24
REMARK    9  A    between atoms: C_23  and  C_25
REMARK                            x       y       z     vdW  Elec       q    Type
REMARK                         _______ _______ _______ _____ _____    ______ ____
ROOT
ATOM      1  N   UNL     1       0.203   0.079   2.355  0.00  0.00    -0.269 N 
ATOM      2  C   UNL     1      -0.217   1.359   2.386  0.00  0.00    +0.304 C 
ATOM      3  O   UNL     1      -0.759   1.845   1.412  0.00  0.00    -0.253 OA
ATOM      4  N   UNL     1      -0.037   2.101   3.497  0.00  0.00    -0.299 N 
ATOM      5  H   UNL     1       0.567  -0.332   3.155  0.00  0.00    +0.156 HD
ATOM      6  H   UNL     1       0.395   1.713   4.274  0.00  0.00    +0.150 HD
ENDROOT
BRANCH   1  13
ATOM      7  C   UNL     1      -2.382  -0.618   1.393  0.00  0.00    +0.045 C 
ATOM      8  C   UNL     1      -1.126  -1.019   0.663  0.00  0.00    -0.029 A 
ATOM      9  C   UNL     1      -1.209  -1.741  -0.512  0.00  0.00    +0.005 A 
ATOM     10  C   UNL     1      -0.057  -2.109  -1.182  0.00  0.00    +0.001 A 
ATOM     11  C   UNL     1       1.182  -1.756  -0.678  0.00  0.00    +0.006 A 
ATOM     12  C   UNL     1       1.272  -1.034   0.496  0.00  0.00    -0.023 A 
ATOM     13  C   UNL     1       0.116  -0.657   1.168  0.00  0.00    +0.041 A 
BRANCH  12  14
ATOM     14  C   UNL     1       2.622  -0.650   1.044  0.00  0.00    +0.015 C 
ATOM     15  C   UNL     1       3.436  -1.915   1.325  0.00  0.00    +0.012 C 
ATOM     16  C   UNL     1       3.360   0.215   0.021  0.00  0.00    +0.012 C 
ENDBRANCH  12  14
ENDBRANCH   1  13
BRANCH   4  17
ATOM     17  C   UNL     1      -0.494   3.492   3.531  0.00  0.00    +0.110 C 
BRANCH  17  18
ATOM     18  C   UNL     1      -0.171   4.102   4.896  0.00  0.00    +0.054 C 
BRANCH  18  19
ATOM     19  C   UNL     1      -0.641   5.533   4.931  0.00  0.00    -0.046 A 
ATOM     20  C   UNL     1       0.206   6.549   4.529  0.00  0.00    +0.006 A 
ATOM     21  C   UNL     1      -0.226   7.862   4.561  0.00  0.00    +0.033 A 
ATOM     22  C   UNL     1      -1.504   8.159   4.995  0.00  0.00    +0.126 A 
ATOM     23  C   UNL     1      -2.351   7.143   5.396  0.00  0.00    +0.033 A 
ATOM     24  C   UNL     1      -1.921   5.830   5.360  0.00  0.00    +0.006 A 
BRANCH  22  25
ATOM     25  N   UNL     1      -1.966   9.565   5.030  0.00  0.00    +0.056 N 
ATOM     26  O   UNL     1      -1.225  10.454   4.679  0.00  0.00    -0.126 OA
ATOM     27  O   UNL     1      -3.084   9.825   5.410  0.00  0.00    -0.126 OA
ENDBRANCH  22  25
ENDBRANCH  18  19
ENDBRANCH  17  18
ENDBRANCH   4  17
TORSDOF 6
