REMARK  Name = ZINC09606589
REMARK  9 active torsions:
REMARK  status: ('A' for Active; 'I' for Inactive)
REMARK    1  A    between atoms: C_1  and  C_2
REMARK    2  A    between atoms: C_2  and  C_4
REMARK    3  A    between atoms: C_2  and  S_19
REMARK    4  A    between atoms: C_16  and  C_17
REMARK    5  A    between atoms: C_16  and  C_18
REMARK    6  A    between atoms: S_19  and  C_20
REMARK    7  A    between atoms: C_23  and  C_31
REMARK    8  A    between atoms: N_24  and  C_25
REMARK    9  A    between atoms: C_25  and  C_26
REMARK                            x       y       z     vdW  Elec       q    Type
REMARK                         _______ _______ _______ _____ _____    ______ ____
ROOT
ATOM      1  C   UNL     1       0.966   8.271  -0.907  0.00  0.00    +0.029 C 
ATOM      2  C   UNL     1       1.136   8.858   0.496  0.00  0.00    +0.137 C 
ENDROOT
BRANCH   2   3
ATOM      3  C   UNL     1       1.707  10.248   0.393  0.00  0.00    +0.234 C 
ATOM      4  O   UNL     1       2.901  10.404   0.244  0.00  0.00    -0.274 OA
ATOM      5  N   UNL     1       0.892  11.319   0.465  0.00  0.00    -0.255 N 
ATOM      6  C   UNL     1      -0.495  11.165   0.618  0.00  0.00    +0.059 A 
ATOM      7  C   UNL     1      -1.150  10.051   0.132  0.00  0.00    +0.025 A 
ATOM      8  C   UNL     1      -2.517   9.929   0.301  0.00  0.00    +0.002 A 
ATOM      9  C   UNL     1      -3.228  10.918   0.958  0.00  0.00    +0.002 A 
ATOM     10  C   UNL     1      -2.578  12.033   1.454  0.00  0.00    +0.025 A 
ATOM     11  C   UNL     1      -1.208  12.162   1.292  0.00  0.00    +0.055 A 
ATOM     12  N   UNL     1      -0.530  13.280   1.790  0.00  0.00    -0.282 N 
ATOM     13  C   UNL     1       0.731  13.550   1.403  0.00  0.00    +0.241 C 
ATOM     14  O   UNL     1       1.314  14.499   1.882  0.00  0.00    -0.273 OA
ATOM     15  C   UNL     1       1.426  12.687   0.381  0.00  0.00    +0.113 C 
ATOM     16  C   UNL     1       2.930  12.667   0.666  0.00  0.00    +0.042 C 
ATOM     17  C   UNL     1       1.176  13.249  -1.020  0.00  0.00    +0.042 C 
ATOM     18  H   UNL     1      -0.974  13.867   2.422  0.00  0.00    +0.155 HD
ENDBRANCH   2   3
BRANCH   2  19
ATOM     19  S   UNL     1       2.260   7.813   1.456  0.00  0.00    -0.073 S 
BRANCH  19  20
ATOM     20  C   UNL     1       1.303   6.337   1.546  0.00  0.00    +0.193 A 
ATOM     21  N   UNL     1       0.110   6.147   1.027  0.00  0.00    -0.122 NA
ATOM     22  N   UNL     1      -0.295   4.954   1.277  0.00  0.00    -0.128 NA
ATOM     23  C   UNL     1       0.608   4.311   1.979  0.00  0.00    +0.167 A 
ATOM     24  N   UNL     1       1.661   5.176   2.170  0.00  0.00    -0.295 N 
BRANCH  23  25
ATOM     25  C   UNL     1       0.515   2.919   2.468  0.00  0.00    +0.037 A 
ATOM     26  C   UNL     1       1.665   2.224   2.861  0.00  0.00    +0.014 A 
ATOM     27  C   UNL     1       1.524   0.923   3.311  0.00  0.00    +0.020 A 
ATOM     28  C   UNL     1       0.262   0.356   3.357  0.00  0.00    +0.111 A 
ATOM     29  N   UNL     1      -0.804   1.035   2.980  0.00  0.00    -0.263 NA
ATOM     30  C   UNL     1      -0.721   2.275   2.545  0.00  0.00    +0.122 A 
ENDBRANCH  23  25
BRANCH  24  31
ATOM     31  C   UNL     1       2.908   4.907   2.892  0.00  0.00    +0.200 C 
BRANCH  31  32
ATOM     32  C   UNL     1       3.972   4.479   1.915  0.00  0.00    +0.125 A 
ATOM     33  C   UNL     1       4.823   5.297   1.270  0.00  0.00    +0.046 A 
ATOM     34  C   UNL     1       5.645   4.479   0.462  0.00  0.00    +0.041 A 
ATOM     35  C   UNL     1       5.240   3.210   0.654  0.00  0.00    +0.195 A 
ATOM     36  O   UNL     1       4.227   3.216   1.535  0.00  0.00    -0.466 OA
ENDBRANCH  31  32
ENDBRANCH  24  31
ENDBRANCH  19  20
ENDBRANCH   2  19
TORSDOF 6
