REMARK  Name = ZINC49538148
REMARK  4 active torsions:
REMARK  status: ('A' for Active; 'I' for Inactive)
REMARK    1  A    between atoms: C_1  and  C_2
REMARK    2  A    between atoms: N_11  and  C_12
REMARK    3  A    between atoms: C_12  and  C_13
REMARK    4  A    between atoms: C_13  and  C_15
REMARK                            x       y       z     vdW  Elec       q    Type
REMARK                         _______ _______ _______ _____ _____    ______ ____
ROOT
ATOM      1  C   UNL     1      -0.019   1.526   0.010  0.00  0.00    -0.008 C 
ATOM      2  C   UNL     1       0.002  -0.004   0.002  0.00  0.00    -0.039 C 
ATOM      3  C   UNL     1       0.722  -0.499  -1.248  0.00  0.00    -0.051 A 
ATOM      4  C   UNL     1       0.571   0.069  -2.511  0.00  0.00    +0.010 A 
ATOM      5  C   UNL     1       1.253  -0.435  -3.566  0.00  0.00    +0.045 A 
ATOM      6  S   UNL     1       2.167  -1.773  -2.810  0.00  0.00    -0.101 S 
ATOM      7  C   UNL     1       1.572  -1.560  -1.157  0.00  0.00    -0.010 A 
ATOM      8  C   UNL     1       1.893  -2.335   0.080  0.00  0.00    +0.024 C 
ATOM      9  C   UNL     1       0.853  -1.956   1.148  0.00  0.00    -0.072 C 
ATOM     10  N   UNL     1       0.718  -0.493   1.187  0.00  0.00    +0.389 N 
ATOM     11  H   UNL     1       1.637  -0.077   1.214  0.00  0.00    -0.080 HD
ENDROOT
BRANCH  10  12
ATOM     12  C   UNL     1      -0.024  -0.105   2.394  0.00  0.00    +0.004 C 
BRANCH  12  13
ATOM     13  C   UNL     1       0.766  -0.496   3.616  0.00  0.00    +0.153 C 
ATOM     14  O   UNL     1       1.843  -1.045   3.494  0.00  0.00    -0.294 OA
BRANCH  13  15
ATOM     15  C   UNL     1       0.255  -0.224   4.903  0.00  0.00    +0.054 A 
ATOM     16  C   UNL     1       0.820  -0.494   6.147  0.00  0.00    +0.020 A 
ATOM     17  C   UNL     1       0.078  -0.108   7.233  0.00  0.00    +0.023 A 
ATOM     18  C   UNL     1      -1.124   0.495   7.032  0.00  0.00    +0.056 A 
ATOM     19  S   UNL     1      -1.279   0.561   5.361  0.00  0.00    -0.079 S 
ATOM     20 BR   UNL     1      -2.341   1.123   8.336  0.00  0.00    -0.043 Br
ENDBRANCH  13  15
ENDBRANCH  12  13
ENDBRANCH  10  12
TORSDOF 3
