REMARK  Name = ZINC44449992
REMARK  3 active torsions:
REMARK  status: ('A' for Active; 'I' for Inactive)
REMARK    1  A    between atoms: C_4  and  N_7
REMARK    2  A    between atoms: N_10  and  C_11
REMARK    3  A    between atoms: C_17  and  N_19
REMARK                            x       y       z     vdW  Elec       q    Type
REMARK                         _______ _______ _______ _____ _____    ______ ____
ROOT
ATOM      1  C   UNL     1       4.691  -3.409  -3.603  0.00  0.00    +0.095 C 
ATOM      2  C   UNL     1       3.650  -4.473  -3.956  0.00  0.00    +0.024 C 
ATOM      3  C   UNL     1       4.315  -5.852  -3.967  0.00  0.00    +0.002 C 
ATOM      4  C   UNL     1       5.435  -5.869  -5.009  0.00  0.00    +0.002 C 
ATOM      5  C   UNL     1       6.476  -4.804  -4.657  0.00  0.00    +0.025 C 
ATOM      6  C   UNL     1       5.811  -3.426  -4.645  0.00  0.00    +0.105 C 
ENDROOT
BRANCH   6   7
ATOM      7  N   UNL     1       6.808  -2.407  -4.308  0.00  0.00    -0.228 N 
ATOM      8  C   UNL     1       7.039  -1.443  -5.183  0.00  0.00    +0.233 C 
ATOM      9  O   UNL     1       6.456  -1.378  -6.244  0.00  0.00    -0.274 OA
ATOM     10  C   UNL     1       8.085  -0.419  -4.765  0.00  0.00    +0.175 C 
ATOM     11  S   UNL     1       8.542  -1.094  -3.114  0.00  0.00    -0.058 S 
ATOM     12  C   UNL     1       7.437  -2.498  -3.121  0.00  0.00    +0.281 C 
ATOM     13  O   UNL     1       7.288  -3.340  -2.257  0.00  0.00    -0.262 OA
ENDBRANCH   6   7
BRANCH   1  17
ATOM     14  N   UNL     1       2.839  -0.440  -2.473  0.00  0.00    -0.297 N 
ATOM     15  C   UNL     1       3.424  -1.655  -2.483  0.00  0.00    +0.300 C 
ATOM     16  O   UNL     1       3.383  -2.358  -1.492  0.00  0.00    -0.253 OA
ATOM     17  N   UNL     1       4.055  -2.089  -3.592  0.00  0.00    -0.295 N 
ATOM     18  H   UNL     1       2.872   0.121  -3.264  0.00  0.00    +0.151 HD
ATOM     19  H   UNL     1       4.088  -1.528  -4.383  0.00  0.00    +0.151 HD
BRANCH  14  23
ATOM     20  C   UNL     1      -0.019   1.526   0.010  0.00  0.00    +0.000 C 
ATOM     21  C   UNL     1       1.417   2.055  -0.000  0.00  0.00    +0.002 C 
ATOM     22  C   UNL     1       2.133   1.562  -1.259  0.00  0.00    +0.022 C 
ATOM     23  C   UNL     1       2.154   0.032  -1.268  0.00  0.00    +0.074 C 
ATOM     24  C   UNL     1       0.718  -0.497  -1.257  0.00  0.00    +0.022 C 
ATOM     25  C   UNL     1       0.002  -0.004   0.002  0.00  0.00    +0.002 C 
ENDBRANCH  14  23
ENDBRANCH   1  17
TORSDOF 3
