REMARK  Name = ZINC12889326
REMARK  7 active torsions:
REMARK  status: ('A' for Active; 'I' for Inactive)
REMARK    1  A    between atoms: C_1  and  C_2
REMARK    2  A    between atoms: C_6  and  N_9
REMARK    3  A    between atoms: C_7  and  C_8
REMARK    4  A    between atoms: C_13  and  C_15
REMARK    5  A    between atoms: C_15  and  O_16
REMARK    6  A    between atoms: O_16  and  C_17
REMARK    7  A    between atoms: C_17  and  C_19
REMARK                            x       y       z     vdW  Elec       q    Type
REMARK                         _______ _______ _______ _____ _____    ______ ____
ROOT
ATOM      1  N   UNL     1       1.162   3.485   0.010  0.00  0.00    -0.269 N 
ATOM      2  C   UNL     1      -0.009   4.147  -0.076  0.00  0.00    +0.310 C 
ATOM      3  O   UNL     1      -1.057   3.531  -0.070  0.00  0.00    -0.252 OA
ATOM      4  N   UNL     1      -0.019   5.491  -0.170  0.00  0.00    -0.237 N 
ATOM      5  C   UNL     1      -1.190   6.153  -0.257  0.00  0.00    +0.258 C 
ATOM      6  O   UNL     1      -2.235   5.538  -0.250  0.00  0.00    -0.272 OA
ATOM      7  H   UNL     1       1.993   3.979   0.087  0.00  0.00    +0.156 HD
ATOM      8  H   UNL     1       0.817   5.983  -0.175  0.00  0.00    +0.159 HD
ENDROOT
BRANCH   1  14
ATOM      9  C   UNL     1       3.388  -0.739   1.182  0.00  0.00    +0.044 C 
ATOM     10  C   UNL     1       2.245   0.013   0.549  0.00  0.00    -0.046 A 
ATOM     11  C   UNL     1       1.210  -0.680  -0.052  0.00  0.00    +0.004 A 
ATOM     12  C   UNL     1       0.160   0.006  -0.633  0.00  0.00    +0.002 A 
ATOM     13  C   UNL     1       0.141   1.387  -0.614  0.00  0.00    +0.023 A 
ATOM     14  C   UNL     1       1.178   2.086  -0.011  0.00  0.00    +0.038 A 
ATOM     15  C   UNL     1       2.232   1.394   0.572  0.00  0.00    -0.026 A 
ATOM     16  C   UNL     1       3.360   2.149   1.227  0.00  0.00    +0.046 C 
ENDBRANCH   1  14
BRANCH   5  17
ATOM     17  C   UNL     1      -1.200   7.656  -0.362  0.00  0.00    +0.328 C 
BRANCH  17  18
ATOM     18  O   UNL     1      -2.572   8.126  -0.442  0.00  0.00    -0.452 OA
BRANCH  18  19
ATOM     19  C   UNL     1      -2.757   9.457  -0.541  0.00  0.00    +0.340 C 
ATOM     20  O   UNL     1      -1.799  10.205  -0.560  0.00  0.00    -0.245 OA
BRANCH  19  21
ATOM     21  C   UNL     1      -4.122  10.007  -0.626  0.00  0.00    +0.067 A 
ATOM     22  C   UNL     1      -5.236   9.171  -0.613  0.00  0.00    +0.016 A 
ATOM     23  C   UNL     1      -6.531   9.673  -0.685  0.00  0.00    +0.005 A 
ATOM     24  C   UNL     1      -6.768  11.012  -0.786  0.00  0.00    -0.039 A 
ATOM     25  C   UNL     1      -5.684  11.884  -0.811  0.00  0.00    -0.011 A 
ATOM     26  C   UNL     1      -4.351  11.445  -0.734  0.00  0.00    -0.003 A 
ATOM     27  C   UNL     1      -3.336  12.408  -0.766  0.00  0.00    +0.009 A 
ATOM     28  C   UNL     1      -3.683  13.726  -0.871  0.00  0.00    +0.001 A 
ATOM     29  C   UNL     1      -5.013  14.142  -0.946  0.00  0.00    +0.004 A 
ATOM     30  C   UNL     1      -6.023  13.229  -0.916  0.00  0.00    -0.039 A 
ATOM     31  C   UNL     1      -7.529  13.312  -0.973  0.00  0.00    +0.040 C 
ATOM     32  C   UNL     1      -8.021  11.851  -0.887  0.00  0.00    +0.040 C 
ENDBRANCH  19  21
ENDBRANCH  18  19
ENDBRANCH  17  18
ENDBRANCH   5  17
TORSDOF 5
