REMARK  Name = ZINC16400954
REMARK  6 active torsions:
REMARK  status: ('A' for Active; 'I' for Inactive)
REMARK    1  A    between atoms: C_1  and  C_2
REMARK    2  A    between atoms: C_7  and  N_8
REMARK    3  A    between atoms: C_9  and  C_11
REMARK    4  A    between atoms: C_11  and  N_12
REMARK    5  A    between atoms: C_15  and  C_19
REMARK    6  A    between atoms: C_15  and  C_20
REMARK                            x       y       z     vdW  Elec       q    Type
REMARK                         _______ _______ _______ _____ _____    ______ ____
ROOT
ATOM      1  N   UNL     1      -0.242  -0.903   5.989  0.00  0.00    -0.215 N 
ATOM      2  C   UNL     1      -1.391  -1.417   6.471  0.00  0.00    +0.254 C 
ATOM      3  O   UNL     1      -2.517  -1.183   6.084  0.00  0.00    -0.272 OA
ATOM      4  C   UNL     1      -0.984  -2.349   7.595  0.00  0.00    +0.168 C 
ATOM      5  N   UNL     1       0.485  -2.242   7.618  0.00  0.00    -0.279 N 
ATOM      6  C   UNL     1       0.824  -1.380   6.642  0.00  0.00    +0.310 C 
ATOM      7  O   UNL     1       1.969  -1.066   6.386  0.00  0.00    -0.252 OA
ATOM      8  C   UNL     1      -1.415  -3.784   7.287  0.00  0.00    +0.050 C 
ATOM      9  H   UNL     1       1.090  -2.705   8.218  0.00  0.00    +0.152 HD
ENDROOT
BRANCH   4  10
ATOM     10  C   UNL     1      -1.570  -1.887   8.904  0.00  0.00    +0.137 A 
ATOM     11  C   UNL     1      -1.021  -2.067  10.119  0.00  0.00    +0.047 A 
ATOM     12  C   UNL     1      -1.901  -1.481  11.057  0.00  0.00    +0.041 A 
ATOM     13  C   UNL     1      -2.936  -0.978  10.360  0.00  0.00    +0.195 A 
ATOM     14  O   UNL     1      -2.727  -1.222   9.056  0.00  0.00    -0.465 OA
ENDBRANCH   4  10
BRANCH   1  15
ATOM     15  C   UNL     1      -0.169   0.054   4.882  0.00  0.00    +0.214 C 
BRANCH  15  17
ATOM     16  N   UNL     1       0.025  -0.014   2.417  0.00  0.00    -0.284 N 
ATOM     17  C   UNL     1      -0.057  -0.693   3.578  0.00  0.00    +0.235 C 
ATOM     18  O   UNL     1      -0.040  -1.906   3.574  0.00  0.00    -0.274 OA
ATOM     19  H   UNL     1       0.077   0.955   2.425  0.00  0.00    +0.155 HD
BRANCH  16  26
ATOM     20  C   UNL     1      -1.265   1.183   0.181  0.00  0.00    +0.046 C 
ATOM     21  C   UNL     1      -0.584  -0.158   0.084  0.00  0.00    -0.028 A 
ATOM     22  C   UNL     1      -0.569  -0.841  -1.116  0.00  0.00    +0.025 A 
ATOM     23  C   UNL     1       0.056  -2.072  -1.206  0.00  0.00    +0.041 A 
ATOM     24  C   UNL     1       0.668  -2.623  -0.093  0.00  0.00    +0.022 A 
ATOM     25  C   UNL     1       0.656  -1.944   1.109  0.00  0.00    +0.025 A 
ATOM     26  C   UNL     1       0.034  -0.706   1.201  0.00  0.00    +0.036 A 
ATOM     27 CL   UNL     1       0.072  -2.928  -2.716  0.00  0.00    -0.084 Cl
ENDBRANCH  16  26
ENDBRANCH  15  17
ENDBRANCH   1  15
TORSDOF 4
