REMARK  Name = ZINC41886397
REMARK  11 active torsions:
REMARK  status: ('A' for Active; 'I' for Inactive)
REMARK    1  A    between atoms: C_1  and  C_2
REMARK    2  A    between atoms: C_2  and  C_3
REMARK    3  A    between atoms: C_3  and  C_4
REMARK    4  A    between atoms: C_3  and  C_6
REMARK    5  A    between atoms: C_3  and  N_24
REMARK    6  A    between atoms: C_4  and  C_5
REMARK    7  A    between atoms: C_6  and  N_7
REMARK    8  A    between atoms: C_8  and  C_10
REMARK    9  A    between atoms: N_12  and  C_13
REMARK   10  A    between atoms: N_24  and  C_25
REMARK   11  A    between atoms: N_24  and  C_26
REMARK                            x       y       z     vdW  Elec       q    Type
REMARK                         _______ _______ _______ _____ _____    ______ ____
ROOT
ATOM      1  C   UNL     1      -5.629   0.079   2.251  0.00  0.00    +0.303 C 
ATOM      2  O   UNL     1      -6.147  -0.704   1.481  0.00  0.00    -0.265 OA
ATOM      3  N   UNL     1      -6.374   0.692   3.192  0.00  0.00    -0.278 N 
ATOM      4  H   UNL     1      -5.978   1.376   3.754  0.00  0.00    +0.155 HD
ENDROOT
BRANCH   3   5
ATOM      5  C   UNL     1      -7.718   0.343   3.357  0.00  0.00    +0.038 A 
ATOM      6  C   UNL     1      -8.645   1.305   3.738  0.00  0.00    +0.027 A 
ATOM      7  C   UNL     1      -9.972   0.961   3.902  0.00  0.00    +0.051 A 
ATOM      8  C   UNL     1     -10.384  -0.344   3.686  0.00  0.00    +0.173 A 
ATOM      9  C   UNL     1      -9.458  -1.312   3.303  0.00  0.00    +0.174 A 
ATOM     10  C   UNL     1      -8.128  -0.965   3.133  0.00  0.00    +0.073 A 
ATOM     11  O   UNL     1     -10.107  -2.503   3.155  0.00  0.00    -0.395 OA
ATOM     12  C   UNL     1     -11.360  -2.347   3.847  0.00  0.00    +0.589 C 
ATOM     13  O   UNL     1     -11.614  -0.931   3.779  0.00  0.00    -0.395 OA
ATOM     14  F   UNL     1     -12.373  -3.060   3.196  0.00  0.00    -0.125 F 
ATOM     15  F   UNL     1     -11.243  -2.762   5.178  0.00  0.00    -0.125 F 
ENDBRANCH   3   5
BRANCH   1  17
ATOM     16  N   UNL     1      -3.421  -0.251   1.214  0.00  0.00    -0.309 N 
ATOM     17  C   UNL     1      -4.166   0.363   2.155  0.00  0.00    +0.299 C 
ATOM     18  O   UNL     1      -3.648   1.145   2.925  0.00  0.00    -0.265 OA
ATOM     19  H   UNL     1      -3.835  -0.876   0.599  0.00  0.00    +0.149 HD
BRANCH  16  20
ATOM     20  C   UNL     1      -1.985   0.027   1.121  0.00  0.00    +0.092 C 
BRANCH  20  21
ATOM     21  C   UNL     1      -1.359  -0.877   0.058  0.00  0.00    -0.051 C 
BRANCH  21  22
ATOM     22  N   UNL     1       0.047  -0.500  -0.140  0.00  0.00    +0.381 N 
ATOM     23  C   UNL     1       0.797  -0.740   1.101  0.00  0.00    -0.096 C 
ATOM     24  C   UNL     1       0.623  -1.307  -1.224  0.00  0.00    -0.096 C 
ATOM     25  H   UNL     1       0.102   0.478  -0.382  0.00  0.00    -0.082 HD
ENDBRANCH  21  22
BRANCH  21  27
ATOM     26  C   UNL     1      -2.901  -2.772   0.580  0.00  0.00    +0.002 C 
ATOM     27  C   UNL     1      -1.437  -2.334   0.518  0.00  0.00    -0.014 C 
ENDBRANCH  21  27
BRANCH  21  28
ATOM     28  C   UNL     1      -2.119  -0.718  -1.260  0.00  0.00    -0.014 C 
ATOM     29  C   UNL     1      -1.941   0.709  -1.782  0.00  0.00    +0.002 C 
ENDBRANCH  21  28
ENDBRANCH  20  21
ENDBRANCH  16  20
ENDBRANCH   1  17
TORSDOF 7
