REMARK  Name = ZINC15108685
REMARK  8 active torsions:
REMARK  status: ('A' for Active; 'I' for Inactive)
REMARK    1  A    between atoms: C_1  and  C_2
REMARK    2  A    between atoms: C_4  and  C_7
REMARK    3  A    between atoms: N_9  and  C_10
REMARK    4  A    between atoms: C_13  and  N_16
REMARK    5  A    between atoms: C_17  and  C_19
REMARK    6  A    between atoms: C_22  and  N_25
REMARK    7  A    between atoms: N_25  and  C_26
REMARK    8  A    between atoms: N_25  and  C_27
REMARK                            x       y       z     vdW  Elec       q    Type
REMARK                         _______ _______ _______ _____ _____    ______ ____
ROOT
ATOM      1  C   UNL     1      -4.902   1.956   0.072  0.00  0.00    +0.034 A 
ATOM      2  C   UNL     1      -5.178   0.597   0.145  0.00  0.00    +0.025 A 
ATOM      3  C   UNL     1      -6.483   0.163   0.254  0.00  0.00    +0.025 A 
ATOM      4  C   UNL     1      -7.522   1.085   0.280  0.00  0.00    +0.034 A 
ATOM      5  C   UNL     1      -7.246   2.443   0.202  0.00  0.00    +0.025 A 
ATOM      6  C   UNL     1      -5.940   2.878   0.098  0.00  0.00    +0.025 A 
ENDROOT
BRANCH   1   9
ATOM      7  C   UNL     1      -3.199   3.545   0.564  0.00  0.00    +0.251 C 
ATOM      8  O   UNL     1      -4.025   4.239   1.125  0.00  0.00    -0.270 OA
ATOM      9  N   UNL     1      -3.577   2.397  -0.034  0.00  0.00    -0.281 N 
ATOM     10  H   UNL     1      -2.931   1.877  -0.537  0.00  0.00    +0.155 HD
BRANCH   7  14
ATOM     11  C   UNL     1       1.131   6.146   1.280  0.00  0.00    +0.086 C 
ATOM     12  C   UNL     1       0.112   5.117   0.863  0.00  0.00    +0.103 A 
ATOM     13  C   UNL     1      -1.201   5.168   1.134  0.00  0.00    +0.057 A 
ATOM     14  C   UNL     1      -1.784   3.958   0.538  0.00  0.00    +0.075 A 
ATOM     15  C   UNL     1      -0.743   3.298  -0.048  0.00  0.00    +0.208 A 
ATOM     16  O   UNL     1       0.373   4.003   0.161  0.00  0.00    -0.467 OA
ENDBRANCH   7  14
ENDBRANCH   1   9
BRANCH   4  17
ATOM     17  N   UNL     1      -8.847   0.644   0.385  0.00  0.00    -0.282 N 
ATOM     18  C   UNL     1      -9.138  -0.444   1.126  0.00  0.00    +0.248 C 
ATOM     19  O   UNL     1      -8.243  -1.090   1.635  0.00  0.00    -0.270 OA
ATOM     20  H   UNL     1      -9.555   1.121  -0.076  0.00  0.00    +0.155 HD
BRANCH  18  21
ATOM     21  C   UNL     1     -10.543  -0.850   1.319  0.00  0.00    +0.037 A 
ATOM     22  C   UNL     1     -11.574  -0.104   0.739  0.00  0.00    +0.015 A 
ATOM     23  C   UNL     1     -12.883  -0.488   0.916  0.00  0.00    +0.024 A 
ATOM     24  C   UNL     1     -13.183  -1.612   1.682  0.00  0.00    +0.029 A 
ATOM     25  C   UNL     1     -12.159  -2.353   2.265  0.00  0.00    +0.024 A 
ATOM     26  C   UNL     1     -10.847  -1.977   2.087  0.00  0.00    +0.015 A 
BRANCH  24  27
ATOM     27  N   UNL     1     -14.507  -1.994   1.864  0.00  0.00    -0.336 N 
ATOM     28  C   UNL     1     -14.832  -3.105   2.762  0.00  0.00    +0.129 C 
ATOM     29  C   UNL     1     -15.578  -1.286   1.157  0.00  0.00    +0.129 C 
ENDBRANCH  24  27
ENDBRANCH  18  21
ENDBRANCH   4  17
TORSDOF 5
