REMARK  Name = ZINC06365663
REMARK  9 active torsions:
REMARK  status: ('A' for Active; 'I' for Inactive)
REMARK    1  A    between atoms: C_1  and  C_2
REMARK    2  A    between atoms: C_5  and  N_9
REMARK    3  A    between atoms: C_6  and  C_8
REMARK    4  A    between atoms: C_10  and  C_24
REMARK    5  A    between atoms: C_13  and  S_14
REMARK    6  A    between atoms: S_14  and  C_15
REMARK    7  A    between atoms: C_15  and  C_17
REMARK    8  A    between atoms: C_15  and  C_18
REMARK    9  A    between atoms: C_24  and  C_25
REMARK                            x       y       z     vdW  Elec       q    Type
REMARK                         _______ _______ _______ _____ _____    ______ ____
ROOT
ATOM      1  N   UNL     1       3.663   3.398  -2.199  0.00  0.00    -0.274 N 
ATOM      2  C   UNL     1       2.869   4.201  -1.424  0.00  0.00    +0.143 A 
ATOM      3  N   UNL     1       2.547   5.238  -2.144  0.00  0.00    -0.133 NA
ATOM      4  N   UNL     1       3.073   5.147  -3.313  0.00  0.00    -0.122 NA
ATOM      5  C   UNL     1       3.767   4.036  -3.405  0.00  0.00    +0.197 A 
ENDROOT
BRANCH   1  10
ATOM      6  C   UNL     1       6.022  -1.548  -0.719  0.00  0.00    +0.044 C 
ATOM      7  C   UNL     1       5.396  -0.235  -1.112  0.00  0.00    -0.050 A 
ATOM      8  C   UNL     1       4.138  -0.214  -1.686  0.00  0.00    +0.005 A 
ATOM      9  C   UNL     1       3.559   0.988  -2.042  0.00  0.00    +0.027 A 
ATOM     10  C   UNL     1       4.247   2.176  -1.834  0.00  0.00    +0.053 A 
ATOM     11  C   UNL     1       5.509   2.152  -1.258  0.00  0.00    -0.026 A 
ATOM     12  C   UNL     1       6.081   0.947  -0.899  0.00  0.00    +0.008 A 
ATOM     13  C   UNL     1       6.256   3.441  -1.025  0.00  0.00    +0.046 C 
ENDBRANCH   1  10
BRANCH   5  14
ATOM     14  S   UNL     1       4.667   3.476  -4.813  0.00  0.00    -0.073 S 
BRANCH  14  15
ATOM     15  C   UNL     1       4.329   4.833  -5.962  0.00  0.00    +0.137 C 
ATOM     16  C   UNL     1       2.835   4.865  -6.289  0.00  0.00    +0.029 C 
BRANCH  15  17
ATOM     17  C   UNL     1       5.117   4.626  -7.230  0.00  0.00    +0.233 C 
ATOM     18  O   UNL     1       5.459   3.509  -7.555  0.00  0.00    -0.274 OA
ATOM     19  N   UNL     1       5.440   5.681  -8.003  0.00  0.00    -0.239 N 
ATOM     20  C   UNL     1       6.144   5.496  -9.137  0.00  0.00    +0.303 C 
ATOM     21  O   UNL     1       6.487   4.376  -9.463  0.00  0.00    -0.253 OA
ATOM     22  N   UNL     1       6.468   6.551  -9.910  0.00  0.00    -0.313 N 
ATOM     23  H   UNL     1       5.166   6.575  -7.743  0.00  0.00    +0.159 HD
ATOM     24  H   UNL     1       6.194   7.445  -9.650  0.00  0.00    +0.146 HD
ATOM     25  H   UNL     1       6.975   6.418 -10.726  0.00  0.00    +0.146 HD
ENDBRANCH  15  17
ENDBRANCH  14  15
ENDBRANCH   5  14
BRANCH   2  26
ATOM     26  C   UNL     1       2.451   3.937  -0.001  0.00  0.00    +0.111 C 
BRANCH  26  27
ATOM     27  C   UNL     1       1.156   3.165   0.008  0.00  0.00    -0.040 A 
ATOM     28  C   UNL     1       1.175   1.783   0.000  0.00  0.00    +0.004 A 
ATOM     29  C   UNL     1      -0.013   1.076   0.008  0.00  0.00    +0.000 A 
ATOM     30  C   UNL     1      -1.219   1.751   0.017  0.00  0.00    +0.000 A 
ATOM     31  C   UNL     1      -1.238   3.133   0.030  0.00  0.00    +0.000 A 
ATOM     32  C   UNL     1      -0.050   3.840   0.023  0.00  0.00    +0.004 A 
ENDBRANCH  26  27
ENDBRANCH   2  26
TORSDOF 6
