REMARK  Name = ZINC13226378
REMARK  6 active torsions:
REMARK  status: ('A' for Active; 'I' for Inactive)
REMARK    1  A    between atoms: C_1  and  C_2
REMARK    2  A    between atoms: C_4  and  O_9
REMARK    3  A    between atoms: O_9  and  C_10
REMARK    4  A    between atoms: C_10  and  C_11
REMARK    5  A    between atoms: N_13  and  C_14
REMARK    6  A    between atoms: C_19  and  C_20
REMARK                            x       y       z     vdW  Elec       q    Type
REMARK                         _______ _______ _______ _____ _____    ______ ____
ROOT
ATOM      1  C   UNL     1       4.828   3.506   0.145  0.00  0.00    +0.255 C 
ATOM      2  O   UNL     1       5.811   2.889   0.499  0.00  0.00    -0.272 OA
ATOM      3  N   UNL     1       3.720   2.844  -0.242  0.00  0.00    -0.282 N 
ATOM      4  H   UNL     1       2.963   3.333  -0.600  0.00  0.00    +0.155 HD
ENDROOT
BRANCH   3   5
ATOM      5  C   UNL     1       3.662   1.456  -0.128  0.00  0.00    +0.051 A 
ATOM      6  C   UNL     1       4.758   0.683  -0.483  0.00  0.00    +0.073 A 
ATOM      7  C   UNL     1       4.694  -0.696  -0.374  0.00  0.00    +0.164 A 
ATOM      8  C   UNL     1       3.537  -1.313   0.095  0.00  0.00    +0.163 A 
ATOM      9  C   UNL     1       2.442  -0.558   0.457  0.00  0.00    +0.066 A 
ATOM     10  C   UNL     1       2.496   0.838   0.352  0.00  0.00    +0.088 A 
ATOM     11  O   UNL     1       3.492  -2.675   0.193  0.00  0.00    -0.488 OA
ATOM     12  C   UNL     1       4.333  -3.257   1.191  0.00  0.00    +0.232 C 
ATOM     13  C   UNL     1       5.744  -3.454   0.659  0.00  0.00    +0.082 C 
ATOM     14  C   UNL     1       6.432  -2.135   0.341  0.00  0.00    +0.232 C 
ATOM     15  O   UNL     1       5.766  -1.460  -0.727  0.00  0.00    -0.488 OA
BRANCH  10  16
ATOM     16  C   UNL     1       1.333   1.653   0.736  0.00  0.00    +0.388 C 
ATOM     17  O   UNL     1       1.395   2.865   0.677  0.00  0.00    -0.241 OA
ATOM     18  O   UNL     1       0.200   1.055   1.154  0.00  0.00    -0.241 OA
ENDBRANCH  10  16
ENDBRANCH   3   5
BRANCH   1  19
ATOM     19  C   UNL     1       4.847   5.013   0.138  0.00  0.00    +0.324 C 
BRANCH  19  20
ATOM     20  O   UNL     1       6.122   5.476   0.586  0.00  0.00    -0.483 OA
BRANCH  20  24
ATOM     21  C   UNL     1       9.025   9.271   1.580  0.00  0.00    +0.045 C 
ATOM     22  C   UNL     1       7.707   8.708   1.117  0.00  0.00    -0.029 A 
ATOM     23  C   UNL     1       7.521   7.340   1.064  0.00  0.00    +0.050 A 
ATOM     24  C   UNL     1       6.307   6.822   0.638  0.00  0.00    +0.122 A 
ATOM     25  C   UNL     1       5.283   7.678   0.261  0.00  0.00    +0.047 A 
ATOM     26  C   UNL     1       5.471   9.045   0.320  0.00  0.00    +0.024 A 
ATOM     27  C   UNL     1       6.683   9.561   0.745  0.00  0.00    +0.044 A 
ATOM     28 CL   UNL     1       6.918  11.279   0.813  0.00  0.00    -0.083 Cl
ENDBRANCH  20  24
ENDBRANCH  19  20
ENDBRANCH   1  19
TORSDOF 5
