REMARK  Name = ZINC29754838
REMARK  10 active torsions:
REMARK  status: ('A' for Active; 'I' for Inactive)
REMARK    1  A    between atoms: C_1  and  C_2
REMARK    2  A    between atoms: C_5  and  N_8
REMARK    3  A    between atoms: N_8  and  C_9
REMARK    4  A    between atoms: C_9  and  N_11
REMARK    5  A    between atoms: N_11  and  N_12
REMARK    6  A    between atoms: C_13  and  C_15
REMARK    7  A    between atoms: C_20  and  C_25
REMARK    8  A    between atoms: C_25  and  C_26
REMARK    9  A    between atoms: C_25  and  C_27
REMARK   10  A    between atoms: C_25  and  C_28
REMARK                            x       y       z     vdW  Elec       q    Type
REMARK                         _______ _______ _______ _____ _____    ______ ____
ROOT
ATOM      1  N   UNL     1      -6.102  -4.375   1.263  0.00  0.00    -0.230 N 
ATOM      2  C   UNL     1      -6.603  -3.124   1.256  0.00  0.00    +0.276 C 
ATOM      3  O   UNL     1      -7.756  -2.932   0.918  0.00  0.00    -0.267 OA
ATOM      4  H   UNL     1      -5.060  -4.549   1.569  0.00  0.00    +0.173 HD
ENDROOT
BRANCH   2   5
ATOM      5  C   UNL     1      -5.756  -1.991   1.657  0.00  0.00    +0.104 A 
ATOM      6  C   UNL     1      -6.145  -0.690   1.691  0.00  0.00    +0.041 A 
ATOM      7  C   UNL     1      -5.040   0.080   2.130  0.00  0.00    +0.000 A 
ATOM      8  C   UNL     1      -4.849   1.450   2.353  0.00  0.00    +0.010 A 
ATOM      9  C   UNL     1      -3.640   1.903   2.793  0.00  0.00    +0.005 A 
ATOM     10  C   UNL     1      -2.589   1.021   3.011  0.00  0.00    -0.040 A 
ATOM     11  C   UNL     1      -2.752  -0.330   2.798  0.00  0.00    +0.030 A 
ATOM     12  C   UNL     1      -3.978  -0.818   2.355  0.00  0.00    +0.047 A 
ATOM     13  N   UNL     1      -4.437  -2.080   2.060  0.00  0.00    -0.351 N 
ATOM     14  H   UNL     1      -3.939  -3.060   2.099  0.00  0.00    +0.166 HD
BRANCH  10  15
ATOM     15  C   UNL     1      -1.261   1.546   3.490  0.00  0.00    -0.013 C 
ATOM     16  C   UNL     1      -0.175   1.194   2.471  0.00  0.00    +0.015 C 
ATOM     17  C   UNL     1      -0.918   0.911   4.839  0.00  0.00    +0.015 C 
ATOM     18  C   UNL     1      -1.340   3.066   3.647  0.00  0.00    +0.015 C 
ENDBRANCH  10  15
ENDBRANCH   2   5
BRANCH   1  19
ATOM     19  N   UNL     1      -6.910  -5.455   0.880  0.00  0.00    -0.245 N 
ATOM     20  H   UNL     1      -7.952  -5.281   0.575  0.00  0.00    +0.172 HD
BRANCH  19  21
ATOM     21  C   UNL     1      -6.409  -6.706   0.887  0.00  0.00    +0.151 C 
ATOM     22  S   UNL     1      -7.395  -8.025   0.420  0.00  0.00    -0.017 S 
BRANCH  21  23
ATOM     23  N   UNL     1      -5.132  -6.919   1.262  0.00  0.00    -0.296 N 
ATOM     24  H   UNL     1      -4.477  -6.066   1.494  0.00  0.00    +0.154 HD
BRANCH  23  29
ATOM     25  C   UNL     1      -3.131 -12.214   1.640  0.00  0.00    +0.044 C 
ATOM     26  C   UNL     1      -3.663 -10.807   1.539  0.00  0.00    -0.050 A 
ATOM     27  C   UNL     1      -4.406 -10.428   0.437  0.00  0.00    +0.005 A 
ATOM     28  C   UNL     1      -4.895  -9.139   0.342  0.00  0.00    +0.023 A 
ATOM     29  C   UNL     1      -4.639  -8.225   1.355  0.00  0.00    +0.033 A 
ATOM     30  C   UNL     1      -3.887  -8.607   2.458  0.00  0.00    +0.023 A 
ATOM     31  C   UNL     1      -3.406  -9.899   2.550  0.00  0.00    +0.005 A 
ENDBRANCH  23  29
ENDBRANCH  21  23
ENDBRANCH  19  21
ENDBRANCH   1  19
TORSDOF 6
