REMARK  Name = ZINC26106924
REMARK  11 active torsions:
REMARK  status: ('A' for Active; 'I' for Inactive)
REMARK    1  A    between atoms: C_1  and  C_2
REMARK    2  A    between atoms: C_2  and  C_4
REMARK    3  A    between atoms: C_2  and  S_15
REMARK    4  A    between atoms: N_6  and  C_7
REMARK    5  A    between atoms: N_11  and  C_12
REMARK    6  A    between atoms: C_12  and  C_13
REMARK    7  A    between atoms: C_12  and  C_14
REMARK    8  A    between atoms: S_15  and  C_16
REMARK    9  A    between atoms: C_19  and  S_21
REMARK   10  A    between atoms: S_21  and  C_22
REMARK   11  A    between atoms: C_22  and  C_23
REMARK                            x       y       z     vdW  Elec       q    Type
REMARK                         _______ _______ _______ _____ _____    ______ ____
ROOT
ATOM      1  C   UNL     1      -0.019   1.526   0.010  0.00  0.00    +0.029 C 
ATOM      2  C   UNL     1       0.002  -0.004   0.002  0.00  0.00    +0.136 C 
ENDROOT
BRANCH   2   3
ATOM      3  C   UNL     1       0.707  -0.490  -1.238  0.00  0.00    +0.231 C 
ATOM      4  O   UNL     1       1.864  -0.849  -1.176  0.00  0.00    -0.274 OA
ATOM      5  N   UNL     1       0.053  -0.526  -2.415  0.00  0.00    -0.270 N 
ATOM      6  H   UNL     1      -0.873  -0.239  -2.465  0.00  0.00    +0.156 HD
BRANCH   5   7
ATOM      7  C   UNL     1       0.706  -0.976  -3.563  0.00  0.00    +0.123 A 
ATOM      8  C   UNL     1       1.993  -1.411  -3.637  0.00  0.00    +0.065 A 
ATOM      9  C   UNL     1       2.248  -1.769  -4.964  0.00  0.00    +0.136 A 
ATOM     10  N   UNL     1       1.161  -1.559  -5.662  0.00  0.00    -0.178 NA
ATOM     11  N   UNL     1       0.172  -1.064  -4.803  0.00  0.00    -0.248 N 
BRANCH  11  12
ATOM     12  C   UNL     1      -1.196  -0.703  -5.181  0.00  0.00    +0.103 C 
ATOM     13  C   UNL     1      -1.158   0.402  -6.239  0.00  0.00    +0.032 C 
ATOM     14  C   UNL     1      -1.909  -1.931  -5.750  0.00  0.00    +0.032 C 
ENDBRANCH  11  12
ENDBRANCH   5   7
ENDBRANCH   2   3
BRANCH   2  15
ATOM     15  S   UNL     1       0.879  -0.605   1.472  0.00  0.00    -0.084 S 
BRANCH  15  16
ATOM     16  C   UNL     1      -0.136  -0.087   2.816  0.00  0.00    +0.160 A 
ATOM     17  N   UNL     1      -1.275   0.577   2.795  0.00  0.00    -0.134 NA
ATOM     18  N   UNL     1      -1.911   0.882   3.976  0.00  0.00    -0.134 NA
ATOM     19  C   UNL     1      -1.378   0.510   5.124  0.00  0.00    +0.160 A 
ATOM     20  S   UNL     1       0.100  -0.327   4.570  0.00  0.00    -0.033 S 
BRANCH  19  21
ATOM     21  S   UNL     1      -1.969   0.764   6.764  0.00  0.00    -0.088 S 
BRANCH  21  22
ATOM     22  C   UNL     1      -3.519   1.677   6.535  0.00  0.00    +0.171 C 
BRANCH  22  23
ATOM     23  C   UNL     1      -4.137   1.963   7.880  0.00  0.00    +0.221 C 
ATOM     24  O   UNL     1      -3.586   1.588   8.893  0.00  0.00    -0.275 OA
ATOM     25  N   UNL     1      -5.302   2.636   7.957  0.00  0.00    -0.329 N 
ATOM     26  H   UNL     1      -5.743   2.936   7.147  0.00  0.00    +0.145 HD
ATOM     27  H   UNL     1      -5.700   2.820   8.822  0.00  0.00    +0.145 HD
ENDBRANCH  22  23
ENDBRANCH  21  22
ENDBRANCH  19  21
ENDBRANCH  15  16
ENDBRANCH   2  15
TORSDOF 8
