REMARK  Name = ZINC19714932
REMARK  7 active torsions:
REMARK  status: ('A' for Active; 'I' for Inactive)
REMARK    1  A    between atoms: C_1  and  C_2
REMARK    2  A    between atoms: C_2  and  C_3
REMARK    3  A    between atoms: N_10  and  C_13
REMARK    4  A    between atoms: C_13  and  C_14
REMARK    5  A    between atoms: N_16  and  C_17
REMARK    6  A    between atoms: C_19  and  C_24
REMARK    7  A    between atoms: C_22  and  C_23
REMARK                            x       y       z     vdW  Elec       q    Type
REMARK                         _______ _______ _______ _____ _____    ______ ____
ROOT
ATOM      1  C   UNL     1      -4.976   0.238   0.240  0.00  0.00    +0.237 C 
ATOM      2  O   UNL     1      -3.957  -0.420   0.232  0.00  0.00    -0.274 OA
ATOM      3  N   UNL     1      -4.908   1.585   0.245  0.00  0.00    -0.284 N 
ATOM      4  H   UNL     1      -5.827   2.181   0.344  0.00  0.00    +0.155 HD
ENDROOT
BRANCH   3   5
ATOM      5  C   UNL     1      -3.669   2.224   0.126  0.00  0.00    +0.037 A 
ATOM      6  C   UNL     1      -2.611   1.575  -0.494  0.00  0.00    +0.033 A 
ATOM      7  C   UNL     1      -1.379   2.213  -0.606  0.00  0.00    +0.004 A 
ATOM      8  C   UNL     1      -1.218   3.503  -0.103  0.00  0.00    +0.010 A 
ATOM      9  C   UNL     1      -2.277   4.144   0.507  0.00  0.00    +0.006 A 
ATOM     10  C   UNL     1      -3.500   3.510   0.623  0.00  0.00    -0.029 A 
ATOM     11  C   UNL     1      -4.652   4.215   1.291  0.00  0.00    +0.045 C 
BRANCH   7  12
ATOM     12  C   UNL     1      -0.241   1.523  -1.263  0.00  0.00    +0.102 A 
ATOM     13  C   UNL     1       1.023   2.054  -1.328  0.00  0.00    +0.097 A 
ATOM     14  S   UNL     1       1.861   0.812  -2.197  0.00  0.00    +0.029 S 
ATOM     15  N   UNL     1       0.671  -0.205  -2.402  0.00  0.00    -0.110 NA
ATOM     16  N   UNL     1      -0.351   0.339  -1.845  0.00  0.00    -0.141 NA
ENDBRANCH   7  12
ENDBRANCH   3   5
BRANCH   1  17
ATOM     17  C   UNL     1      -6.317  -0.449   0.243  0.00  0.00    +0.222 C 
BRANCH  17  25
ATOM     18  C   UNL     1      -5.551  -6.193  -1.819  0.00  0.00    -0.008 A 
ATOM     19  C   UNL     1      -5.729  -4.884  -2.058  0.00  0.00    +0.026 A 
ATOM     20  C   UNL     1      -5.848  -3.969  -0.939  0.00  0.00    +0.072 A 
ATOM     21  C   UNL     1      -5.762  -4.569   0.331  0.00  0.00    +0.115 A 
ATOM     22  S   UNL     1      -5.531  -6.289  -0.039  0.00  0.00    -0.073 S 
ATOM     23  N   UNL     1      -5.853  -3.859   1.452  0.00  0.00    -0.230 NA
ATOM     24  C   UNL     1      -6.027  -2.565   1.416  0.00  0.00    +0.203 A 
ATOM     25  N   UNL     1      -6.122  -1.901   0.236  0.00  0.00    -0.290 N 
ATOM     26  C   UNL     1      -6.044  -2.550  -0.941  0.00  0.00    +0.263 A 
ATOM     27  O   UNL     1      -6.136  -1.939  -1.992  0.00  0.00    -0.267 OA
BRANCH  18  29
ATOM     28  C   UNL     1      -3.923  -7.499  -3.159  0.00  0.00    +0.009 C 
ATOM     29  C   UNL     1      -5.402  -7.313  -2.817  0.00  0.00    +0.039 C 
ENDBRANCH  18  29
ENDBRANCH  17  25
ENDBRANCH   1  17
TORSDOF 5
