REMARK  Name = ZINC15733312
REMARK  8 active torsions:
REMARK  status: ('A' for Active; 'I' for Inactive)
REMARK    1  A    between atoms: C_1  and  C_2
REMARK    2  A    between atoms: C_2  and  N_50
REMARK    3  A    between atoms: C_3  and  C_4
REMARK    4  A    between atoms: C_3  and  N_50
REMARK    5  A    between atoms: C_4  and  N_5
REMARK    6  A    between atoms: C_6  and  C_8
REMARK    7  A    between atoms: C_20  and  C_21
REMARK    8  A    between atoms: C_20  and  N_50
REMARK                            x       y       z     vdW  Elec       q    Type
REMARK                         _______ _______ _______ _____ _____    ______ ____
ROOT
ATOM      1  N   UNL     1      -2.539  -2.652  -0.421  0.00  0.00    -0.312 N 
ATOM      2  C   UNL     1      -1.196  -2.767  -0.422  0.00  0.00    +0.266 C 
ATOM      3  O   UNL     1      -0.680  -3.866  -0.383  0.00  0.00    -0.268 OA
ATOM      4  H   UNL     1      -2.951  -1.775  -0.452  0.00  0.00    +0.149 HD
ENDROOT
BRANCH   2   5
ATOM      5  C   UNL     1      -0.348  -1.551  -0.470  0.00  0.00    +0.171 A 
ATOM      6  C   UNL     1       1.054  -1.500  -0.477  0.00  0.00    +0.032 A 
ATOM      7  C   UNL     1       1.331  -0.153  -0.553  0.00  0.00    +0.172 A 
ATOM      8  O   UNL     1       0.173   0.484  -0.552  0.00  0.00    -0.354 OA
ATOM      9  N   UNL     1      -0.759  -0.299  -0.516  0.00  0.00    -0.073 NA
ATOM     10  C   UNL     1       2.746   0.292  -0.626  0.00  0.00    +0.030 A 
ATOM     11  C   UNL     1       3.244   1.584  -0.457  0.00  0.00    +0.019 A 
ATOM     12  C   UNL     1       4.580   1.771  -0.529  0.00  0.00    +0.046 A 
ATOM     13  S   UNL     1       5.183   0.121  -0.848  0.00  0.00    -0.101 S 
ATOM     14  C   UNL     1       3.676  -0.702  -0.883  0.00  0.00    +0.001 A 
ATOM     15  C   UNL     1       3.374  -2.143  -1.132  0.00  0.00    +0.048 C 
ATOM     16  C   UNL     1       2.093  -2.577  -0.411  0.00  0.00    +0.046 C 
ENDBRANCH   2   5
BRANCH   1  17
ATOM     17  C   UNL     1      -3.377  -3.853  -0.373  0.00  0.00    +0.086 C 
BRANCH  17  18
ATOM     18  C   UNL     1      -4.852  -3.447  -0.382  0.00  0.00    -0.059 C 
BRANCH  18  19
ATOM     19  N   UNL     1      -5.683  -4.669  -0.355  0.00  0.00    +0.383 N 
ATOM     20  H   UNL     1      -5.372  -5.300  -1.103  0.00  0.00    -0.081 HD
BRANCH  19  22
ATOM     21  C   UNL     1      -6.078  -6.777   0.817  0.00  0.00    -0.017 C 
ATOM     22  C   UNL     1      -5.531  -5.354   0.945  0.00  0.00    -0.082 C 
ENDBRANCH  19  22
BRANCH  19  23
ATOM     23  C   UNL     1      -7.102  -4.319  -0.580  0.00  0.00    -0.043 C 
BRANCH  23  24
ATOM     24  C   UNL     1      -7.306  -4.050  -2.048  0.00  0.00    -0.064 A 
ATOM     25  C   UNL     1      -7.285  -2.752  -2.522  0.00  0.00    +0.002 A 
ATOM     26  C   UNL     1      -7.467  -2.506  -3.870  0.00  0.00    +0.000 A 
ATOM     27  C   UNL     1      -7.682  -3.556  -4.742  0.00  0.00    +0.000 A 
ATOM     28  C   UNL     1      -7.709  -4.854  -4.267  0.00  0.00    +0.000 A 
ATOM     29  C   UNL     1      -7.521  -5.101  -2.920  0.00  0.00    +0.002 A 
ENDBRANCH  23  24
ENDBRANCH  19  23
ENDBRANCH  18  19
ENDBRANCH  17  18
ENDBRANCH   1  17
TORSDOF 7
