REMARK  Name = ZINC14012443
REMARK  5 active torsions:
REMARK  status: ('A' for Active; 'I' for Inactive)
REMARK    1  A    between atoms: C_6  and  N_7
REMARK    2  A    between atoms: C_19  and  C_21
REMARK    3  A    between atoms: C_21  and  C_22
REMARK    4  A    between atoms: N_24  and  C_25
REMARK    5  A    between atoms: C_25  and  C_26
REMARK                            x       y       z     vdW  Elec       q    Type
REMARK                         _______ _______ _______ _____ _____    ______ ____
ROOT
ATOM      1  N   UNL     1      11.371  -1.610  -3.515  0.00  0.00    -0.214 N 
ATOM      2  C   UNL     1      10.882  -0.355  -3.713  0.00  0.00    +0.171 A 
ATOM      3  C   UNL     1      10.199   0.005  -2.539  0.00  0.00    +0.103 A 
ATOM      4  C   UNL     1      10.308  -1.086  -1.650  0.00  0.00    +0.150 A 
ATOM      5  N   UNL     1      10.997  -2.027  -2.232  0.00  0.00    -0.172 NA
ATOM      6  C   UNL     1       9.586   1.274  -2.470  0.00  0.00    +0.266 A 
ATOM      7  O   UNL     1       8.988   1.609  -1.462  0.00  0.00    -0.267 OA
ATOM      8  N   UNL     1       9.664   2.130  -3.540  0.00  0.00    -0.283 N 
ATOM      9  C   UNL     1      10.348   1.698  -4.640  0.00  0.00    +0.174 A 
ATOM     10  N   UNL     1      10.925   0.520  -4.723  0.00  0.00    -0.203 NA
ATOM     11  S   UNL     1      10.273   3.011  -5.840  0.00  0.00    -0.085 S 
ATOM     12  C   UNL     1       9.293   4.229  -4.887  0.00  0.00    +0.103 C 
ATOM     13  C   UNL     1       9.066   3.464  -3.575  0.00  0.00    +0.112 C 
ENDROOT
BRANCH   1  19
ATOM     14  C   UNL     1      11.849  -2.255  -5.794  0.00  0.00    +0.030 A 
ATOM     15  C   UNL     1      12.591  -2.987  -6.701  0.00  0.00    +0.040 A 
ATOM     16  C   UNL     1      13.597  -3.828  -6.255  0.00  0.00    +0.124 A 
ATOM     17  C   UNL     1      13.864  -3.934  -4.900  0.00  0.00    +0.040 A 
ATOM     18  C   UNL     1      13.128  -3.200  -3.991  0.00  0.00    +0.030 A 
ATOM     19  C   UNL     1      12.119  -2.356  -4.436  0.00  0.00    +0.068 A 
ATOM     20  F   UNL     1      14.318  -4.546  -7.143  0.00  0.00    -0.205 F 
ENDBRANCH   1  19
BRANCH  13  21
ATOM     21  C   UNL     1       7.560   3.327  -3.348  0.00  0.00    +0.121 C 
BRANCH  21  22
ATOM     22  C   UNL     1       6.943   4.697  -3.229  0.00  0.00    +0.215 C 
ATOM     23  O   UNL     1       7.651   5.681  -3.208  0.00  0.00    -0.276 OA
ATOM     24  N   UNL     1       5.604   4.828  -3.146  0.00  0.00    -0.311 N 
ATOM     25  H   UNL     1       5.037   4.041  -3.163  0.00  0.00    +0.149 HD
BRANCH  24  26
ATOM     26  C   UNL     1       5.004   6.160  -3.031  0.00  0.00    +0.139 C 
BRANCH  26  27
ATOM     27  C   UNL     1       3.505   6.030  -2.956  0.00  0.00    -0.027 A 
ATOM     28  C   UNL     1       2.752   6.044  -4.115  0.00  0.00    +0.009 A 
ATOM     29  C   UNL     1       1.376   5.926  -4.051  0.00  0.00    +0.050 A 
ATOM     30  C   UNL     1       0.748   5.793  -2.823  0.00  0.00    +0.166 A 
ATOM     31  C   UNL     1       1.506   5.779  -1.655  0.00  0.00    +0.167 A 
ATOM     32  C   UNL     1       2.885   5.898  -1.727  0.00  0.00    +0.054 A 
ATOM     33  O   UNL     1       0.664   5.639  -0.590  0.00  0.00    -0.453 OA
ATOM     34  C   UNL     1      -0.644   5.978  -1.087  0.00  0.00    +0.466 C 
ATOM     35  O   UNL     1      -0.569   5.662  -2.490  0.00  0.00    -0.453 OA
ENDBRANCH  26  27
ENDBRANCH  24  26
ENDBRANCH  21  22
ENDBRANCH  13  21
TORSDOF 5
