REMARK  Name = ZINC10968697
REMARK  7 active torsions:
REMARK  status: ('A' for Active; 'I' for Inactive)
REMARK    1  A    between atoms: C_1  and  C_2
REMARK    2  A    between atoms: C_6  and  C_8
REMARK    3  A    between atoms: C_8  and  N_9
REMARK    4  A    between atoms: N_12  and  C_19
REMARK    5  A    between atoms: N_15  and  C_18
REMARK    6  A    between atoms: C_24  and  C_25
REMARK    7  A    between atoms: C_29  and  O_31
REMARK                            x       y       z     vdW  Elec       q    Type
REMARK                         _______ _______ _______ _____ _____    ______ ____
ROOT
ATOM      1  N   UNL     1      -1.585   8.201  -1.638  0.00  0.00    -0.298 N 
ATOM      2  C   UNL     1      -2.739   7.441  -1.437  0.00  0.00    +0.152 A 
ATOM      3  C   UNL     1      -2.362   6.133  -1.326  0.00  0.00    +0.155 A 
ATOM      4  N   UNL     1      -3.327   5.170  -1.121  0.00  0.00    -0.281 N 
ATOM      5  C   UNL     1      -4.625   5.515  -1.031  0.00  0.00    +0.333 A 
ATOM      6  O   UNL     1      -5.460   4.650  -0.850  0.00  0.00    -0.246 OA
ATOM      7  N   UNL     1      -5.015   6.798  -1.138  0.00  0.00    -0.262 N 
ATOM      8  C   UNL     1      -4.109   7.776  -1.339  0.00  0.00    +0.282 A 
ATOM      9  O   UNL     1      -4.467   8.936  -1.435  0.00  0.00    -0.265 OA
ATOM     10  C   UNL     1      -6.437   7.135  -1.035  0.00  0.00    +0.157 C 
ATOM     11  C   UNL     1      -2.938   3.763  -1.000  0.00  0.00    +0.155 C 
ATOM     12  N   UNL     1      -0.996   6.071  -1.455  0.00  0.00    -0.244 N 
ATOM     13  C   UNL     1      -0.516   7.337  -1.646  0.00  0.00    +0.239 A 
ATOM     14  N   UNL     1       0.791   7.243  -1.766  0.00  0.00    -0.110 NA
ATOM     15  N   UNL     1       1.157   6.016  -1.657  0.00  0.00    -0.127 NA
ATOM     16  C   UNL     1       0.107   5.247  -1.471  0.00  0.00    +0.171 A 
ENDROOT
BRANCH  16  17
ATOM     17  C   UNL     1       0.111   3.779  -1.304  0.00  0.00    +0.023 A 
ATOM     18  C   UNL     1      -0.488   3.200  -0.183  0.00  0.00    +0.012 A 
ATOM     19  C   UNL     1      -0.487   1.828  -0.033  0.00  0.00    +0.004 A 
ATOM     20  C   UNL     1       0.115   1.025  -0.985  0.00  0.00    +0.045 A 
ATOM     21  C   UNL     1       0.712   1.592  -2.103  0.00  0.00    +0.118 A 
ATOM     22  C   UNL     1       0.712   2.967  -2.266  0.00  0.00    +0.057 A 
BRANCH  21  23
ATOM     23  O   UNL     1       1.297   0.797  -3.037  0.00  0.00    -0.507 OA
ATOM     24  H   UNL     1       0.699   0.515  -3.743  0.00  0.00    +0.292 HD
ENDBRANCH  21  23
ENDBRANCH  16  17
BRANCH   1  25
ATOM     25  C   UNL     1      -1.525   9.655  -1.810  0.00  0.00    +0.160 C 
BRANCH  25  31
ATOM     26  C   UNL     1      -4.355  10.759  -5.787  0.00  0.00    +0.044 C 
ATOM     27  C   UNL     1      -2.998  10.521  -5.177  0.00  0.00    -0.050 A 
ATOM     28  C   UNL     1      -1.861  10.615  -5.959  0.00  0.00    +0.003 A 
ATOM     29  C   UNL     1      -0.617  10.397  -5.399  0.00  0.00    +0.001 A 
ATOM     30  C   UNL     1      -0.508  10.092  -4.055  0.00  0.00    +0.005 A 
ATOM     31  C   UNL     1      -1.644   9.993  -3.274  0.00  0.00    -0.027 A 
ATOM     32  C   UNL     1      -2.889  10.211  -3.834  0.00  0.00    +0.008 A 
ENDBRANCH  25  31
ENDBRANCH   1  25
TORSDOF 4
