REMARK  Name = ZINC59459427
REMARK  6 active torsions:
REMARK  status: ('A' for Active; 'I' for Inactive)
REMARK    1  A    between atoms: C_1  and  C_2
REMARK    2  A    between atoms: C_5  and  C_29
REMARK    3  A    between atoms: C_6  and  N_8
REMARK    4  A    between atoms: C_14  and  C_15
REMARK    5  A    between atoms: C_17  and  N_25
REMARK    6  A    between atoms: C_19  and  N_22
REMARK                            x       y       z     vdW  Elec       q    Type
REMARK                         _______ _______ _______ _____ _____    ______ ____
ROOT
ATOM      1  N   UNL     1      -0.891  -2.971   2.387  0.00  0.00    -0.225 NA
ATOM      2  C   UNL     1      -0.679  -2.364   3.548  0.00  0.00    +0.166 C 
ATOM      3  N   UNL     1      -0.579  -2.945   4.781  0.00  0.00    -0.260 N 
ATOM      4  C   UNL     1      -0.362  -2.152   5.825  0.00  0.00    +0.256 C 
ATOM      5  O   UNL     1      -0.257  -2.568   6.962  0.00  0.00    -0.269 OA
ATOM      6  C   UNL     1      -0.261  -0.716   5.479  0.00  0.00    +0.078 C 
ATOM      7  C   UNL     1      -0.038   0.378   6.332  0.00  0.00    +0.032 C 
ATOM      8  S   UNL     1      -0.470  -0.722   3.813  0.00  0.00    -0.049 S 
ATOM      9  H   UNL     1      -0.663  -3.905   4.891  0.00  0.00    +0.157 HD
ENDROOT
BRANCH   1  15
ATOM     10  C   UNL     1       1.289   0.274  -0.522  0.00  0.00    +0.044 C 
ATOM     11  C   UNL     1       0.154  -0.664  -0.204  0.00  0.00    -0.048 A 
ATOM     12  C   UNL     1      -0.905  -0.796  -1.094  0.00  0.00    +0.004 A 
ATOM     13  C   UNL     1      -1.959  -1.657  -0.816  0.00  0.00    +0.006 A 
ATOM     14  C   UNL     1      -1.967  -2.386   0.338  0.00  0.00    -0.025 A 
ATOM     15  C   UNL     1      -0.896  -2.262   1.252  0.00  0.00    +0.070 A 
ATOM     16  C   UNL     1       0.173  -1.385   0.954  0.00  0.00    +0.031 A 
ATOM     17  C   UNL     1      -3.112  -3.318   0.636  0.00  0.00    +0.046 C 
ENDBRANCH   1  15
BRANCH   7  18
ATOM     18  C   UNL     1      -0.181   1.688   5.846  0.00  0.00    +0.027 A 
ATOM     19  C   UNL     1      -0.913   1.935   4.664  0.00  0.00    +0.044 A 
ATOM     20  C   UNL     1      -1.046   3.208   4.201  0.00  0.00    +0.129 A 
ATOM     21  C   UNL     1      -0.465   4.275   4.882  0.00  0.00    +0.069 A 
ATOM     22  C   UNL     1       0.256   4.064   6.040  0.00  0.00    +0.175 A 
ATOM     23  C   UNL     1       0.405   2.779   6.541  0.00  0.00    +0.216 A 
ATOM     24  O   UNL     1       1.107   2.567   7.678  0.00  0.00    -0.285 OA
BRANCH  22  25
ATOM     25  N   UNL     1       0.867   5.210   6.750  0.00  0.00    +0.060 N 
ATOM     26  O   UNL     1       0.722   6.430   6.277  0.00  0.00    -0.126 OA
ATOM     27  O   UNL     1       1.556   5.009   7.854  0.00  0.00    -0.126 OA
ENDBRANCH  22  25
BRANCH  20  28
ATOM     28  N   UNL     1      -1.815   3.460   2.962  0.00  0.00    +0.057 N 
ATOM     29  O   UNL     1      -2.450   2.471   2.367  0.00  0.00    -0.126 OA
ATOM     30  O   UNL     1      -1.865   4.674   2.453  0.00  0.00    -0.126 OA
ENDBRANCH  20  28
ENDBRANCH   7  18
TORSDOF 4
