REMARK  Name = ZINC23347927
REMARK  7 active torsions:
REMARK  status: ('A' for Active; 'I' for Inactive)
REMARK    1  A    between atoms: C_3  and  C_6
REMARK    2  A    between atoms: C_9  and  S_15
REMARK    3  A    between atoms: N_10  and  C_11
REMARK    4  A    between atoms: C_11  and  C_12
REMARK    5  A    between atoms: S_15  and  C_16
REMARK    6  A    between atoms: C_16  and  C_17
REMARK    7  A    between atoms: N_19  and  C_20
REMARK                            x       y       z     vdW  Elec       q    Type
REMARK                         _______ _______ _______ _____ _____    ______ ____
ROOT
ATOM      1  C   UNL     1      -1.177  -0.884   0.009  0.00  0.00    +0.201 A 
ATOM      2  N   UNL     1      -1.196  -2.168  -0.277  0.00  0.00    -0.125 NA
ATOM      3  N   UNL     1      -2.393  -2.623  -0.168  0.00  0.00    -0.122 NA
ATOM      4  C   UNL     1      -3.214  -1.659   0.184  0.00  0.00    +0.193 A 
ATOM      5  N   UNL     1      -2.471  -0.518   0.309  0.00  0.00    -0.291 N 
ENDROOT
BRANCH   1   8
ATOM      6  C   UNL     1       2.091   0.758  -0.014  0.00  0.00    +0.042 A 
ATOM      7  C   UNL     1       1.303  -0.409  -0.013  0.00  0.00    +0.053 A 
ATOM      8  C   UNL     1       0.002  -0.004   0.002  0.00  0.00    +0.172 A 
ATOM      9  O   UNL     1      -0.016   1.343   0.009  0.00  0.00    -0.460 OA
ATOM     10  C   UNL     1       1.245   1.807  -0.000  0.00  0.00    +0.196 A 
ENDBRANCH   1   8
BRANCH   5  11
ATOM     11  C   UNL     1      -2.950   0.814   0.684  0.00  0.00    +0.221 C 
BRANCH  11  12
ATOM     12  C   UNL     1      -3.347   1.573  -0.556  0.00  0.00    +0.230 C 
ATOM     13  O   UNL     1      -3.240   1.051  -1.646  0.00  0.00    -0.274 OA
ATOM     14  N   UNL     1      -3.821   2.830  -0.454  0.00  0.00    -0.328 N 
ATOM     15  H   UNL     1      -4.111   3.384  -1.359  0.00  0.00    +0.145 HD
ATOM     16  H   UNL     1      -3.918   3.303   0.534  0.00  0.00    +0.145 HD
ENDBRANCH  11  12
ENDBRANCH   5  11
BRANCH   4  17
ATOM     17  S   UNL     1      -4.950  -1.808   0.446  0.00  0.00    -0.077 S 
BRANCH  17  18
ATOM     18  C   UNL     1      -5.170  -3.570   0.095  0.00  0.00    +0.173 C 
BRANCH  18  19
ATOM     19  C   UNL     1      -6.622  -3.938   0.261  0.00  0.00    +0.224 C 
ATOM     20  O   UNL     1      -7.429  -3.092   0.584  0.00  0.00    -0.275 OA
ATOM     21  N   UNL     1      -7.024  -5.207   0.050  0.00  0.00    -0.309 N 
ATOM     22  H   UNL     1      -6.293  -5.974  -0.243  0.00  0.00    +0.149 HD
BRANCH  21  23
ATOM     23  C   UNL     1      -8.436  -5.564   0.211  0.00  0.00    +0.035 C 
ATOM     24  C   UNL     1      -8.876  -5.271   1.647  0.00  0.00    +0.029 C 
ATOM     25  C   UNL     1     -10.350  -5.644   1.815  0.00  0.00    -0.008 C 
ATOM     26  C   UNL     1     -10.536  -7.133   1.518  0.00  0.00    +0.007 C 
ATOM     27  C   UNL     1     -10.096  -7.427   0.083  0.00  0.00    -0.008 C 
ATOM     28  C   UNL     1      -8.622  -7.053  -0.086  0.00  0.00    +0.029 C 
ATOM     29  C   UNL     1     -10.945  -6.604  -0.889  0.00  0.00    +0.007 C 
ATOM     30  C   UNL     1     -10.758  -5.114  -0.593  0.00  0.00    -0.008 C 
ATOM     31  C   UNL     1     -11.198  -4.821   0.843  0.00  0.00    +0.007 C 
ATOM     32  C   UNL     1      -9.284  -4.741  -0.761  0.00  0.00    +0.029 C 
ENDBRANCH  21  23
ENDBRANCH  18  19
ENDBRANCH  17  18
ENDBRANCH   4  17
TORSDOF 7
