REMARK  Name = ZINC37151764
REMARK  3 active torsions:
REMARK  status: ('A' for Active; 'I' for Inactive)
REMARK    1  A    between atoms: C_9  and  O_11
REMARK    2  A    between atoms: O_11  and  C_12
REMARK    3  A    between atoms: C_19  and  C_21
REMARK                            x       y       z     vdW  Elec       q    Type
REMARK                         _______ _______ _______ _____ _____    ______ ____
ROOT
ATOM      1  C   UNL     1      -0.043   1.322  -0.639  0.00  0.00    +0.004 A 
ATOM      2  C   UNL     1       1.105   2.054  -0.658  0.00  0.00    +0.010 A 
ATOM      3  C   UNL     1       2.340   1.417  -0.460  0.00  0.00    +0.004 A 
ATOM      4  C   UNL     1       3.548   2.140  -0.473  0.00  0.00    +0.011 A 
ATOM      5  C   UNL     1       4.712   1.453  -0.272  0.00  0.00    +0.020 A 
ATOM      6  C   UNL     1       4.680   0.076  -0.063  0.00  0.00    +0.111 A 
ATOM      7  N   UNL     1       3.553  -0.593  -0.052  0.00  0.00    -0.251 NA
ATOM      8  C   UNL     1       2.380   0.018  -0.241  0.00  0.00    +0.112 A 
ATOM      9  C   UNL     1       1.170  -0.708  -0.228  0.00  0.00    +0.147 A 
ATOM     10  C   UNL     1      -0.012  -0.053  -0.424  0.00  0.00    +0.048 A 
ENDROOT
BRANCH   9  11
ATOM     11  O   UNL     1       1.181  -2.050  -0.021  0.00  0.00    -0.485 OA
BRANCH  11  12
ATOM     12  C   UNL     1      -0.087  -2.699   0.098  0.00  0.00    +0.190 C 
ATOM     13  C   UNL     1      -0.611  -3.038  -1.271  0.00  0.00    +0.046 C 
ATOM     14  C   UNL     1      -2.147  -2.942  -1.354  0.00  0.00    +0.004 C 
ATOM     15  C   UNL     1      -2.850  -3.525  -0.114  0.00  0.00    +0.000 C 
ATOM     16  C   UNL     1      -2.221  -4.809   0.354  0.00  0.00    +0.001 C 
ATOM     17  C   UNL     1      -1.188  -4.478   1.451  0.00  0.00    +0.022 C 
ATOM     18  C   UNL     1       0.073  -4.004   0.904  0.00  0.00    +0.132 C 
BRANCH  18  19
ATOM     19  C   UNL     1       1.016  -3.769   2.010  0.00  0.00    +0.070 C 
ATOM     20  N   UNL     1       1.744  -3.588   2.862  0.00  0.00    -0.196 NA
ENDBRANCH  18  19
ENDBRANCH  11  12
ENDBRANCH   9  11
TORSDOF 3
