REMARK  Name = ZINC27520951
REMARK  11 active torsions:
REMARK  status: ('A' for Active; 'I' for Inactive)
REMARK    1  A    between atoms: C_1  and  C_2
REMARK    2  A    between atoms: C_2  and  O_3
REMARK    3  A    between atoms: O_3  and  C_4
REMARK    4  A    between atoms: C_4  and  C_6
REMARK    5  A    between atoms: C_7  and  C_35
REMARK    6  A    between atoms: C_8  and  C_34
REMARK    7  A    between atoms: C_10  and  N_11
REMARK    8  A    between atoms: C_13  and  C_24
REMARK    9  A    between atoms: C_19  and  O_22
REMARK   10  A    between atoms: O_22  and  C_23
REMARK   11  A    between atoms: N_26  and  C_27
REMARK                            x       y       z     vdW  Elec       q    Type
REMARK                         _______ _______ _______ _____ _____    ______ ____
ROOT
ATOM      1  N   UNL     1       2.620   0.113   0.983  0.00  0.00    -0.319 N 
ATOM      2  C   UNL     1       2.539   1.256   0.325  0.00  0.00    +0.212 A 
ATOM      3  C   UNL     1       1.248   1.947   0.162  0.00  0.00    +0.098 A 
ATOM      4  C   UNL     1       1.285   3.326  -0.011  0.00  0.00    +0.030 A 
ATOM      5  C   UNL     1       2.600   3.969  -0.005  0.00  0.00    +0.022 A 
ATOM      6  C   UNL     1       2.720   5.361   0.101  0.00  0.00    +0.012 A 
ATOM      7  C   UNL     1       3.958   5.938   0.109  0.00  0.00    +0.004 A 
ATOM      8  C   UNL     1       5.102   5.158   0.012  0.00  0.00    +0.049 A 
ATOM      9  C   UNL     1       5.008   3.781  -0.097  0.00  0.00    +0.163 A 
ATOM     10  C   UNL     1       3.756   3.173  -0.109  0.00  0.00    +0.179 A 
ATOM     11  O   UNL     1       3.641   1.827  -0.221  0.00  0.00    -0.435 OA
ATOM     12  H   UNL     1       1.716  -0.336   1.419  0.00  0.00    +0.169 HD
ENDROOT
BRANCH   1  17
ATOM     13  C   UNL     1       4.110  -1.708   1.774  0.00  0.00    +0.093 A 
ATOM     14  C   UNL     1       5.490  -2.125   1.758  0.00  0.00    -0.024 A 
ATOM     15  C   UNL     1       6.389  -1.349   1.129  0.00  0.00    -0.008 A 
ATOM     16  S   UNL     1       5.409   0.004   0.510  0.00  0.00    -0.075 S 
ATOM     17  C   UNL     1       3.811  -0.501   1.120  0.00  0.00    +0.095 A 
ATOM     18  C   UNL     1       7.872  -1.571   0.979  0.00  0.00    +0.052 C 
ATOM     19  C   UNL     1       5.915  -3.405   2.432  0.00  0.00    +0.045 C 
BRANCH  13  20
ATOM     20  C   UNL     1       3.106  -2.477   2.417  0.00  0.00    +0.342 C 
ATOM     21  O   UNL     1       2.506  -3.334   1.796  0.00  0.00    -0.245 OA
BRANCH  20  22
ATOM     22  O   UNL     1       2.817  -2.257   3.717  0.00  0.00    -0.461 OA
BRANCH  22  24
ATOM     23  C   UNL     1       1.609  -2.677   5.768  0.00  0.00    +0.048 C 
ATOM     24  C   UNL     1       1.795  -3.068   4.300  0.00  0.00    +0.229 C 
ENDBRANCH  22  24
ENDBRANCH  20  22
ENDBRANCH  13  20
ENDBRANCH   1  17
BRANCH   3  25
ATOM     25  C   UNL     1      -0.027   1.209   0.175  0.00  0.00    +0.253 C 
ATOM     26  O   UNL     1      -0.029   0.002   0.324  0.00  0.00    -0.270 OA
ATOM     27  N   UNL     1      -1.191   1.870   0.018  0.00  0.00    -0.281 N 
ATOM     28  H   UNL     1      -1.197   2.969  -0.029  0.00  0.00    +0.155 HD
BRANCH  27  29
ATOM     29  C   UNL     1      -2.391   1.159  -0.086  0.00  0.00    +0.034 A 
ATOM     30  C   UNL     1      -2.411  -0.085  -0.704  0.00  0.00    +0.026 A 
ATOM     31  C   UNL     1      -3.596  -0.788  -0.801  0.00  0.00    +0.040 A 
ATOM     32  C   UNL     1      -4.766  -0.248  -0.292  0.00  0.00    +0.124 A 
ATOM     33  C   UNL     1      -4.749   0.994   0.320  0.00  0.00    +0.040 A 
ATOM     34  C   UNL     1      -3.565   1.698   0.424  0.00  0.00    +0.026 A 
ATOM     35  F   UNL     1      -5.925  -0.935  -0.392  0.00  0.00    -0.205 F 
ENDBRANCH  27  29
ENDBRANCH   3  25
BRANCH   9  36
ATOM     36  O   UNL     1       6.135   3.025  -0.192  0.00  0.00    -0.491 OA
ATOM     37  C   UNL     1       7.385   3.719  -0.172  0.00  0.00    +0.277 C 
ENDBRANCH   9  36
TORSDOF 7
