REMARK  Name = ZINC13737500
REMARK  6 active torsions:
REMARK  status: ('A' for Active; 'I' for Inactive)
REMARK    1  A    between atoms: C_7  and  C_16
REMARK    2  A    between atoms: N_9  and  C_10
REMARK    3  A    between atoms: C_10  and  C_11
REMARK    4  A    between atoms: C_11  and  N_12
REMARK    5  A    between atoms: C_16  and  C_18
REMARK    6  A    between atoms: C_22  and  C_25
REMARK                            x       y       z     vdW  Elec       q    Type
REMARK                         _______ _______ _______ _____ _____    ______ ____
ROOT
ATOM      1  C   UNL     1       0.271   1.359   0.087  0.00  0.00    +0.001 A 
ATOM      2  C   UNL     1       1.479   2.037   0.016  0.00  0.00    +0.002 A 
ATOM      3  C   UNL     1       2.668   1.347  -0.080  0.00  0.00    +0.026 A 
ATOM      4  C   UNL     1       2.663  -0.044  -0.105  0.00  0.00    +0.050 A 
ATOM      5  C   UNL     1       1.440  -0.729  -0.032  0.00  0.00    +0.010 A 
ATOM      6  C   UNL     1       0.246  -0.019   0.064  0.00  0.00    +0.011 A 
ATOM      7  C   UNL     1       1.778  -2.165  -0.082  0.00  0.00    +0.044 A 
ATOM      8  C   UNL     1       3.151  -2.233  -0.178  0.00  0.00    +0.098 A 
ATOM      9  N   UNL     1       3.666  -0.989  -0.192  0.00  0.00    -0.344 N 
ENDROOT
BRANCH   7  10
ATOM     10  C   UNL     1       0.872  -3.254  -0.038  0.00  0.00    +0.183 C 
ATOM     11  O   UNL     1      -0.321  -3.049   0.049  0.00  0.00    -0.290 OA
BRANCH  10  12
ATOM     12  C   UNL     1       1.391  -4.668  -0.100  0.00  0.00    +0.136 C 
ATOM     13  C   UNL     1       1.888  -4.946  -1.539  0.00  0.00    +0.097 C 
ATOM     14  S   UNL     1       1.346  -6.703  -1.733  0.00  0.00    -0.135 S 
ATOM     15  C   UNL     1      -0.116  -6.595  -0.609  0.00  0.00    +0.145 C 
ATOM     16  N   UNL     1       0.338  -5.567   0.354  0.00  0.00    -0.291 NA
ATOM     17  H   UNL     1       0.578  -5.987   1.240  0.00  0.00    +0.124 HD
BRANCH  15  18
ATOM     18  C   UNL     1      -0.370  -7.912   0.078  0.00  0.00    -0.002 A 
ATOM     19  C   UNL     1       0.564  -8.435   0.959  0.00  0.00    +0.009 A 
ATOM     20  C   UNL     1       0.288  -9.650   1.568  0.00  0.00    +0.020 A 
ATOM     21  C   UNL     1      -0.900 -10.294   1.278  0.00  0.00    +0.111 A 
ATOM     22  N   UNL     1      -1.765  -9.767   0.434  0.00  0.00    -0.263 NA
ATOM     23  C   UNL     1      -1.538  -8.610  -0.158  0.00  0.00    +0.116 A 
ENDBRANCH  15  18
ENDBRANCH  10  12
ENDBRANCH   7  10
BRANCH   9  24
ATOM     24  C   UNL     1       5.095  -0.679  -0.286  0.00  0.00    +0.140 C 
BRANCH  24  25
ATOM     25  C   UNL     1       5.666  -0.474   1.118  0.00  0.00    +0.127 C 
BRANCH  25  26
ATOM     26  N   UNL     1       7.095  -0.165   1.024  0.00  0.00    -0.298 N 
ATOM     27  C   UNL     1       7.812   0.056   2.143  0.00  0.00    +0.297 C 
ATOM     28  O   UNL     1       7.273  -0.001   3.232  0.00  0.00    -0.253 OA
ATOM     29  N   UNL     1       9.127   0.341   2.056  0.00  0.00    -0.313 N 
ATOM     30  H   UNL     1       7.525  -0.119   0.155  0.00  0.00    +0.150 HD
ATOM     31  H   UNL     1       9.557   0.386   1.188  0.00  0.00    +0.146 HD
ATOM     32  H   UNL     1       9.643   0.500   2.862  0.00  0.00    +0.146 HD
ENDBRANCH  25  26
ENDBRANCH  24  25
ENDBRANCH   9  24
TORSDOF 6
