REMARK  Name = ZINC45919090
REMARK  9 active torsions:
REMARK  status: ('A' for Active; 'I' for Inactive)
REMARK    1  A    between atoms: C_1  and  C_2
REMARK    2  A    between atoms: C_3  and  C_16
REMARK    3  A    between atoms: C_9  and  O_15
REMARK    4  A    between atoms: C_10  and  C_13
REMARK    5  A    between atoms: C_13  and  O_14
REMARK    6  A    between atoms: C_19  and  O_24
REMARK    7  A    between atoms: C_20  and  O_22
REMARK    8  A    between atoms: O_22  and  C_23
REMARK    9  A    between atoms: O_24  and  C_25
REMARK                            x       y       z     vdW  Elec       q    Type
REMARK                         _______ _______ _______ _____ _____    ______ ____
ROOT
ATOM      1  C   UNL     1      -0.018   1.503   0.010  0.00  0.00    +0.087 C 
ATOM      2  C   UNL     1       0.002  -0.004   0.002  0.00  0.00    +0.114 A 
ATOM      3  C   UNL     1      -1.182  -0.671   0.004  0.00  0.00    +0.067 A 
ATOM      4  C   UNL     1      -1.150  -2.146   0.013  0.00  0.00    +0.200 A 
ATOM      5  O   UNL     1      -2.144  -2.815  -0.209  0.00  0.00    -0.286 OA
ATOM      6  C   UNL     1       0.158  -2.762   0.307  0.00  0.00    +0.065 A 
ATOM      7  C   UNL     1       0.273  -4.122   0.597  0.00  0.00    +0.019 A 
ATOM      8  C   UNL     1       1.501  -4.653   0.870  0.00  0.00    +0.047 A 
ATOM      9  C   UNL     1       2.635  -3.844   0.861  0.00  0.00    +0.126 A 
ATOM     10  C   UNL     1       2.536  -2.493   0.572  0.00  0.00    +0.062 A 
ATOM     11  C   UNL     1       1.296  -1.937   0.289  0.00  0.00    +0.148 A 
ATOM     12  O   UNL     1       1.182  -0.627  -0.013  0.00  0.00    -0.459 OA
ENDROOT
BRANCH   3  13
ATOM     13  C   UNL     1      -2.470   0.064  -0.002  0.00  0.00    -0.007 A 
ATOM     14  C   UNL     1      -2.823   0.863   1.084  0.00  0.00    +0.012 A 
ATOM     15  C   UNL     1      -4.022   1.546   1.078  0.00  0.00    +0.050 A 
ATOM     16  C   UNL     1      -4.878   1.439  -0.007  0.00  0.00    +0.162 A 
ATOM     17  C   UNL     1      -4.531   0.643  -1.095  0.00  0.00    +0.162 A 
ATOM     18  C   UNL     1      -3.328  -0.040  -1.096  0.00  0.00    +0.058 A 
BRANCH  17  19
ATOM     19  O   UNL     1      -5.372   0.539  -2.159  0.00  0.00    -0.491 OA
ATOM     20  C   UNL     1      -4.952  -0.295  -3.240  0.00  0.00    +0.277 C 
ENDBRANCH  17  19
BRANCH  16  21
ATOM     21  O   UNL     1      -6.060   2.114  -0.009  0.00  0.00    -0.491 OA
ATOM     22  C   UNL     1      -6.353   2.912   1.139  0.00  0.00    +0.277 C 
ENDBRANCH  16  21
ENDBRANCH   3  13
BRANCH   9  23
ATOM     23  O   UNL     1       3.849  -4.384   1.137  0.00  0.00    -0.506 OA
ATOM     24  H   UNL     1       4.319  -4.715   0.359  0.00  0.00    +0.292 HD
ENDBRANCH   9  23
BRANCH  10  25
ATOM     25  C   UNL     1       3.771  -1.629   0.566  0.00  0.00    +0.198 C 
BRANCH  25  26
ATOM     26  O   UNL     1       4.341  -1.623  -0.745  0.00  0.00    -0.390 OA
ATOM     27  H   UNL     1       5.141  -1.085  -0.823  0.00  0.00    +0.210 HD
ENDBRANCH  25  26
ENDBRANCH  10  25
TORSDOF 6
