REMARK  Name = ZINC30822904
REMARK  2 active torsions:
REMARK  status: ('A' for Active; 'I' for Inactive)
REMARK    1  A    between atoms: C_1  and  C_2
REMARK    2  A    between atoms: N_8  and  C_9
REMARK                            x       y       z     vdW  Elec       q    Type
REMARK                         _______ _______ _______ _____ _____    ______ ____
ROOT
ATOM      1  C   UNL     1      -0.465   1.461   0.075  0.00  0.00    +0.064 C 
ATOM      2  C   UNL     1      -0.211  -0.024   0.033  0.00  0.00    +0.034 A 
ATOM      3  C   UNL     1      -0.316  -0.703  -1.154  0.00  0.00    +0.085 A 
ATOM      4  C   UNL     1      -0.065  -2.152  -1.175  0.00  0.00    +0.075 A 
ATOM      5  C   UNL     1       0.269  -2.774   0.008  0.00  0.00    +0.098 A 
ATOM      6  C   UNL     1       0.354  -2.005   1.175  0.00  0.00    +0.254 A 
ATOM      7  O   UNL     1       0.650  -2.548   2.228  0.00  0.00    -0.268 OA
ATOM      8  N   UNL     1       0.124  -0.682   1.161  0.00  0.00    -0.309 N 
ATOM      9  N   UNL     1      -0.238  -2.561  -2.474  0.00  0.00    -0.288 N 
ATOM     10  H   UNL     1      -0.137  -3.473  -2.790  0.00  0.00    +0.188 HD
ATOM     11  N   UNL     1      -0.582  -1.468  -3.275  0.00  0.00    -0.194 N 
ATOM     12  C   UNL     1      -0.642  -0.340  -2.539  0.00  0.00    +0.283 A 
ATOM     13  O   UNL     1      -0.917   0.773  -2.947  0.00  0.00    -0.265 OA
ATOM     14  C   UNL     1      -0.828  -1.535  -4.635  0.00  0.00    +0.196 A 
ATOM     15  N   UNL     1      -1.149  -0.568  -5.463  0.00  0.00    -0.221 NA
ATOM     16  C   UNL     1      -1.361  -0.779  -6.780  0.00  0.00    +0.081 A 
ATOM     17  C   UNL     1      -1.710   0.167  -7.771  0.00  0.00    +0.029 A 
ATOM     18  C   UNL     1      -1.890  -0.218  -9.074  0.00  0.00    +0.002 A 
ATOM     19  C   UNL     1      -1.739  -1.540  -9.467  0.00  0.00    +0.001 A 
ATOM     20  C   UNL     1      -1.399  -2.492  -8.524  0.00  0.00    +0.017 A 
ATOM     21  C   UNL     1      -1.216  -2.116  -7.216  0.00  0.00    +0.041 A 
ATOM     22  S   UNL     1      -0.782  -2.959  -5.714  0.00  0.00    -0.048 S 
ENDROOT
BRANCH   8  23
ATOM     23  C   UNL     1       0.235   0.070   2.414  0.00  0.00    +0.090 C 
ATOM     24  C   UNL     1       1.652  -0.126   2.991  0.00  0.00    +0.025 C 
ATOM     25  C   UNL     1       1.938   1.000   3.947  0.00  0.00    +0.002 C 
ATOM     26  C   UNL     1       1.604   0.633   5.406  0.00  0.00    +0.000 C 
ATOM     27  C   UNL     1       0.282  -0.146   5.538  0.00  0.00    +0.000 C 
ATOM     28  C   UNL     1      -0.803   0.406   4.654  0.00  0.00    +0.002 C 
ATOM     29  C   UNL     1      -0.804  -0.383   3.328  0.00  0.00    +0.025 C 
ENDBRANCH   8  23
TORSDOF 1
