REMARK  Name = ZINC07983615
REMARK  4 active torsions:
REMARK  status: ('A' for Active; 'I' for Inactive)
REMARK    1  A    between atoms: C_3  and  O_8
REMARK    2  A    between atoms: O_8  and  C_9
REMARK    3  A    between atoms: C_12  and  C_18
REMARK    4  A    between atoms: C_14  and  N_15
REMARK                            x       y       z     vdW  Elec       q    Type
REMARK                         _______ _______ _______ _____ _____    ______ ____
ROOT
ATOM      1  C   UNL     1       1.189   1.797  -0.002  0.00  0.00    +0.159 A 
ATOM      2  C   UNL     1      -0.006   1.106   0.161  0.00  0.00    +0.049 A 
ATOM      3  C   UNL     1      -1.203   1.787   0.169  0.00  0.00    +0.017 A 
ATOM      4  C   UNL     1      -1.214   3.177   0.024  0.00  0.00    +0.039 A 
ATOM      5  C   UNL     1      -0.011   3.869  -0.139  0.00  0.00    +0.049 A 
ATOM      6  C   UNL     1       1.181   3.179  -0.152  0.00  0.00    +0.169 A 
ENDROOT
BRANCH   4   7
ATOM      7  C   UNL     1      -2.494   3.913   0.039  0.00  0.00    +0.242 C 
ATOM      8  O   UNL     1      -2.502   5.121  -0.092  0.00  0.00    -0.270 OA
ATOM      9  N   UNL     1      -3.653   3.244   0.196  0.00  0.00    -0.325 N 
ATOM     10  H   UNL     1      -3.647   2.280   0.300  0.00  0.00    +0.145 HD
ATOM     11  H   UNL     1      -4.494   3.727   0.206  0.00  0.00    +0.145 HD
ENDBRANCH   4   7
BRANCH   6  12
ATOM     12  N   UNL     1       2.457   3.910  -0.325  0.00  0.00    +0.060 N 
ATOM     13  O   UNL     1       2.451   5.121  -0.456  0.00  0.00    -0.126 OA
ATOM     14  O   UNL     1       3.511   3.301  -0.336  0.00  0.00    -0.126 OA
ENDBRANCH   6  12
BRANCH   1  15
ATOM     15  O   UNL     1       2.365   1.121  -0.015  0.00  0.00    -0.454 OA
BRANCH  15  18
ATOM     16  C   UNL     1       3.142   1.283   3.536  0.00  0.00    +0.005 A 
ATOM     17  C   UNL     1       2.461   1.429   2.343  0.00  0.00    +0.046 A 
ATOM     18  C   UNL     1       3.035   0.984   1.160  0.00  0.00    +0.130 A 
ATOM     19  C   UNL     1       4.295   0.404   1.178  0.00  0.00    +0.060 A 
ATOM     20  C   UNL     1       4.973   0.265   2.373  0.00  0.00    +0.017 A 
ATOM     21  C   UNL     1       4.397   0.704   3.552  0.00  0.00    +0.014 A 
ATOM     22  I   UNL     1       6.877  -0.610   2.402  0.00  0.00    -0.044 I 
ENDBRANCH  15  18
ENDBRANCH   1  15
TORSDOF 4
