REMARK  Name = ZINC48374036
REMARK  9 active torsions:
REMARK  status: ('A' for Active; 'I' for Inactive)
REMARK    1  A    between atoms: C_1  and  C_2
REMARK    2  A    between atoms: C_2  and  N_3
REMARK    3  A    between atoms: N_3  and  C_4
REMARK    4  A    between atoms: N_3  and  C_19
REMARK    5  A    between atoms: C_4  and  C_5
REMARK    6  A    between atoms: C_19  and  C_21
REMARK    7  A    between atoms: C_19  and  C_22
REMARK    8  A    between atoms: C_26  and  O_28
REMARK    9  A    between atoms: O_28  and  C_29
REMARK                            x       y       z     vdW  Elec       q    Type
REMARK                         _______ _______ _______ _____ _____    ______ ____
ROOT
ATOM      1  C   UNL     1      -0.083  -1.075  -0.618  0.00  0.00    +0.159 C 
ENDROOT
BRANCH   1   2
ATOM      2  C   UNL     1      -1.556  -1.141  -0.929  0.00  0.00    +0.125 A 
ATOM      3  N   UNL     1      -2.323  -2.085  -0.326  0.00  0.00    -0.309 N 
ATOM      4  H   UNL     1      -1.912  -2.705   0.297  0.00  0.00    +0.170 HD
ATOM      5  C   UNL     1      -3.643  -2.179  -0.575  0.00  0.00    +0.260 A 
ATOM      6  O   UNL     1      -4.320  -3.032  -0.027  0.00  0.00    -0.267 OA
ATOM      7  C   UNL     1      -4.238  -1.257  -1.497  0.00  0.00    +0.075 A 
ATOM      8  C   UNL     1      -5.646  -1.175  -1.916  0.00  0.00    -0.023 A 
ATOM      9  C   UNL     1      -5.960  -0.214  -2.802  0.00  0.00    -0.004 A 
ATOM     10  S   UNL     1      -4.429   0.629  -3.128  0.00  0.00    -0.073 S 
ATOM     11  C   UNL     1      -3.369  -0.319  -2.069  0.00  0.00    +0.116 A 
ATOM     12  N   UNL     1      -2.073  -0.284  -1.769  0.00  0.00    -0.225 NA
ATOM     13  C   UNL     1      -7.422  -0.228  -3.160  0.00  0.00    +0.043 C 
ATOM     14  C   UNL     1      -7.921  -1.615  -2.699  0.00  0.00    +0.010 C 
ATOM     15  C   UNL     1      -6.921  -1.950  -1.575  0.00  0.00    +0.037 C 
ENDBRANCH   1   2
BRANCH   1  16
ATOM     16  N   UNL     1       0.529   0.022  -1.379  0.00  0.00    -0.289 NA
BRANCH  16  18
ATOM     17  C   UNL     1       0.558   2.441  -1.761  0.00  0.00    +0.020 C 
ATOM     18  C   UNL     1       0.210   1.323  -0.776  0.00  0.00    +0.082 C 
ENDBRANCH  16  18
BRANCH  16  19
ATOM     19  C   UNL     1       1.982  -0.163  -1.493  0.00  0.00    +0.084 C 
ATOM     20  C   UNL     1       2.273  -1.461  -2.250  0.00  0.00    +0.029 C 
BRANCH  19  21
ATOM     21  C   UNL     1       2.588  -0.239  -0.115  0.00  0.00    -0.027 A 
ATOM     22  C   UNL     1       2.290  -1.305   0.713  0.00  0.00    +0.005 A 
ATOM     23  C   UNL     1       2.845  -1.377   1.978  0.00  0.00    +0.004 A 
ATOM     24  C   UNL     1       3.699  -0.384   2.416  0.00  0.00    +0.045 A 
ATOM     25  C   UNL     1       3.999   0.687   1.587  0.00  0.00    +0.120 A 
ATOM     26  C   UNL     1       3.446   0.754   0.316  0.00  0.00    +0.050 A 
BRANCH  25  27
ATOM     27  O   UNL     1       4.839   1.665   2.016  0.00  0.00    -0.495 OA
ATOM     28  C   UNL     1       5.376   1.528   3.334  0.00  0.00    +0.277 C 
ENDBRANCH  25  27
ENDBRANCH  19  21
ENDBRANCH  16  19
ENDBRANCH   1  16
TORSDOF 6
