REMARK  Name = ZINC39324450
REMARK  6 active torsions:
REMARK  status: ('A' for Active; 'I' for Inactive)
REMARK    1  A    between atoms: C_1  and  C_2
REMARK    2  A    between atoms: C_2  and  C_3
REMARK    3  A    between atoms: C_7  and  C_8
REMARK    4  A    between atoms: C_18  and  C_26
REMARK    5  A    between atoms: C_20  and  C_24
REMARK    6  A    between atoms: C_21  and  N_23
REMARK                            x       y       z     vdW  Elec       q    Type
REMARK                         _______ _______ _______ _____ _____    ______ ____
ROOT
ATOM      1  C   UNL     1      -1.621  -0.603   0.309  0.00  0.00    -0.003 C 
ATOM      2  C   UNL     1      -2.187  -0.036  -1.001  0.00  0.00    +0.042 C 
ATOM      3  C   UNL     1      -3.563  -0.637  -1.183  0.00  0.00    -0.004 C 
ATOM      4  C   UNL     1      -4.591   0.111  -1.620  0.00  0.00    +0.018 C 
ATOM      5  C   UNL     1      -3.747  -2.068  -0.867  0.00  0.00    +0.133 C 
ATOM      6  C   UNL     1      -2.793  -2.752  -0.236  0.00  0.00    -0.014 C 
ATOM      7  C   UNL     1      -1.490  -2.116   0.177  0.00  0.00    +0.039 C 
ATOM      8  C   UNL     1      -2.995  -4.214   0.092  0.00  0.00    +0.097 C 
ATOM      9  C   UNL     1      -4.452  -4.570   0.032  0.00  0.00    +0.098 C 
ATOM     10  C   UNL     1      -5.330  -3.775  -0.629  0.00  0.00    +0.199 C 
ATOM     11  O   UNL     1      -4.914  -2.654  -1.241  0.00  0.00    -0.441 OA
ENDROOT
BRANCH   4  12
ATOM     12  C   UNL     1      -4.354   1.487  -2.087  0.00  0.00    +0.011 A 
ATOM     13  C   UNL     1      -3.179   1.804  -2.775  0.00  0.00    +0.011 A 
ATOM     14  C   UNL     1      -2.965   3.095  -3.209  0.00  0.00    +0.001 A 
ATOM     15  C   UNL     1      -3.908   4.078  -2.966  0.00  0.00    +0.003 A 
ATOM     16  C   UNL     1      -5.074   3.775  -2.286  0.00  0.00    +0.039 A 
ATOM     17  C   UNL     1      -5.307   2.485  -1.849  0.00  0.00    +0.131 A 
ATOM     18  F   UNL     1      -6.448   2.188  -1.189  0.00  0.00    -0.205 F 
ENDBRANCH   4  12
BRANCH   8  19
ATOM     19  C   UNL     1      -2.236  -5.056  -0.900  0.00  0.00    +0.000 A 
ATOM     20  C   UNL     1      -2.526  -4.966  -2.248  0.00  0.00    +0.007 A 
ATOM     21  C   UNL     1      -1.830  -5.739  -3.159  0.00  0.00    +0.000 A 
ATOM     22  C   UNL     1      -0.842  -6.602  -2.722  0.00  0.00    +0.003 A 
ATOM     23  C   UNL     1      -0.550  -6.693  -1.375  0.00  0.00    +0.038 A 
ATOM     24  C   UNL     1      -1.243  -5.916  -0.462  0.00  0.00    +0.127 A 
ATOM     25  F   UNL     1      -0.955  -6.001   0.855  0.00  0.00    -0.205 F 
ENDBRANCH   8  19
BRANCH  10  26
ATOM     26  N   UNL     1      -6.658  -4.120  -0.674  0.00  0.00    -0.328 N 
ATOM     27  H   UNL     1      -6.965  -4.928  -0.234  0.00  0.00    +0.145 HD
ATOM     28  H   UNL     1      -7.290  -3.554  -1.145  0.00  0.00    +0.145 HD
ENDBRANCH  10  26
BRANCH   1  30
ATOM     29  C   UNL     1      -0.395   1.512   0.830  0.00  0.00    +0.004 C 
ATOM     30  C   UNL     1      -0.245   0.009   0.581  0.00  0.00    +0.001 C 
ENDBRANCH   1  30
BRANCH   9  31
ATOM     31  C   UNL     1      -4.919  -5.761   0.677  0.00  0.00    +0.101 C 
ATOM     32  N   UNL     1      -5.290  -6.705   1.189  0.00  0.00    -0.191 NA
ENDBRANCH   9  31
TORSDOF 5
