REMARK  Name = ZINC12682248
REMARK  8 active torsions:
REMARK  status: ('A' for Active; 'I' for Inactive)
REMARK    1  A    between atoms: C_1  and  C_2
REMARK    2  A    between atoms: C_2  and  C_4
REMARK    3  A    between atoms: C_2  and  N_55
REMARK    4  A    between atoms: N_6  and  C_7
REMARK    5  A    between atoms: C_8  and  C_12
REMARK    6  A    between atoms: C_20  and  C_22
REMARK    7  A    between atoms: C_25  and  O_28
REMARK    8  A    between atoms: O_28  and  C_29
REMARK                            x       y       z     vdW  Elec       q    Type
REMARK                         _______ _______ _______ _____ _____    ______ ____
ROOT
ATOM      1  C   UNL     1       4.978   1.211  -2.873  0.00  0.00    -0.004 C 
ATOM      2  C   UNL     1       3.854   0.731  -1.953  0.00  0.00    +0.017 C 
ENDROOT
BRANCH   2   9
ATOM      3  C   UNL     1       5.340  -1.075  -1.293  0.00  0.00    -0.077 C 
ATOM      4  C   UNL     1       5.739  -2.069  -0.188  0.00  0.00    -0.019 C 
ATOM      5  C   UNL     1       6.053  -1.395   1.121  0.00  0.00    -0.002 C 
ATOM      6  C   UNL     1       4.765  -1.332   1.972  0.00  0.00    -0.001 C 
ATOM      7  C   UNL     1       3.870  -0.274   1.517  0.00  0.00    -0.011 C 
ATOM      8  C   UNL     1       3.395  -0.481   0.067  0.00  0.00    -0.037 C 
ATOM      9  N   UNL     1       4.455   0.035  -0.815  0.00  0.00    +0.392 N 
ATOM     10  H   UNL     1       5.026   0.703  -0.285  0.00  0.00    -0.080 HD
BRANCH   8  11
ATOM     11  C   UNL     1       2.127   0.299  -0.169  0.00  0.00    -0.061 A 
ATOM     12  C   UNL     1       0.975  -0.359  -0.557  0.00  0.00    +0.005 A 
ATOM     13  C   UNL     1      -0.189   0.354  -0.774  0.00  0.00    +0.046 A 
ATOM     14  C   UNL     1      -0.200   1.731  -0.602  0.00  0.00    +0.120 A 
ATOM     15  C   UNL     1       0.958   2.388  -0.212  0.00  0.00    +0.046 A 
ATOM     16  C   UNL     1       2.119   1.671   0.003  0.00  0.00    +0.005 A 
BRANCH  14  17
ATOM     17  O   UNL     1      -1.342   2.435  -0.819  0.00  0.00    -0.495 OA
ATOM     18  C   UNL     1      -1.280   3.849  -0.622  0.00  0.00    +0.277 C 
ENDBRANCH  14  17
ENDBRANCH   8  11
ENDBRANCH   2   9
BRANCH   2  19
ATOM     19  C   UNL     1       2.926  -0.173  -2.724  0.00  0.00    +0.204 C 
ATOM     20  O   UNL     1       2.948  -1.370  -2.533  0.00  0.00    -0.277 OA
ATOM     21  N   UNL     1       2.071   0.350  -3.625  0.00  0.00    -0.281 N 
ATOM     22  H   UNL     1       2.053   1.308  -3.778  0.00  0.00    +0.155 HD
BRANCH  21  23
ATOM     23  C   UNL     1       1.217  -0.481  -4.335  0.00  0.00    +0.084 A 
ATOM     24  C   UNL     1       0.271  -0.133  -5.291  0.00  0.00    +0.065 A 
ATOM     25  C   UNL     1      -0.486  -1.213  -5.879  0.00  0.00    +0.022 A 
ATOM     26  C   UNL     1      -0.218  -2.458  -5.444  0.00  0.00    +0.048 A 
ATOM     27  S   UNL     1       1.066  -2.203  -4.237  0.00  0.00    -0.081 S 
BRANCH  24  28
ATOM     28  C   UNL     1       0.055   1.262  -5.688  0.00  0.00    +0.244 C 
ATOM     29  O   UNL     1       0.712   2.149  -5.175  0.00  0.00    -0.270 OA
ATOM     30  N   UNL     1      -0.872   1.562  -6.619  0.00  0.00    -0.325 N 
ATOM     31  H   UNL     1      -1.395   0.855  -7.028  0.00  0.00    +0.145 HD
ATOM     32  H   UNL     1      -1.015   2.485  -6.881  0.00  0.00    +0.145 HD
ENDBRANCH  24  28
ENDBRANCH  21  23
ENDBRANCH   2  19
TORSDOF 6
