REMARK  Name = ZINC22152296
REMARK  10 active torsions:
REMARK  status: ('A' for Active; 'I' for Inactive)
REMARK    1  A    between atoms: C_1  and  C_2
REMARK    2  A    between atoms: C_3  and  C_7
REMARK    3  A    between atoms: C_10  and  S_13
REMARK    4  A    between atoms: N_11  and  N_12
REMARK    5  A    between atoms: S_13  and  C_14
REMARK    6  A    between atoms: C_14  and  C_15
REMARK    7  A    between atoms: N_17  and  C_18
REMARK    8  A    between atoms: C_23  and  S_24
REMARK    9  A    between atoms: S_24  and  C_25
REMARK   10  A    between atoms: C_25  and  C_26
REMARK                            x       y       z     vdW  Elec       q    Type
REMARK                         _______ _______ _______ _____ _____    ______ ____
ROOT
ATOM      1  S   UNL     1      -0.024   1.806  -0.013  0.00  0.00    -0.075 S 
ENDROOT
BRANCH   1   5
ATOM      2  C   UNL     1       3.651   3.132  -0.072  0.00  0.00    +0.185 A 
ATOM      3  N   UNL     1       3.813   1.830  -0.077  0.00  0.00    -0.127 NA
ATOM      4  N   UNL     1       2.669   1.245  -0.059  0.00  0.00    -0.121 NA
ATOM      5  C   UNL     1       1.706   2.137  -0.042  0.00  0.00    +0.209 A 
ATOM      6  N   UNL     1       2.296   3.370  -0.055  0.00  0.00    -0.224 N 
BRANCH   2   9
ATOM      7  C   UNL     1       6.737   2.584  -0.111  0.00  0.00    +0.087 C 
ATOM      8  C   UNL     1       6.065   3.932  -0.105  0.00  0.00    +0.112 A 
ATOM      9  C   UNL     1       4.722   4.152  -0.088  0.00  0.00    +0.061 A 
ATOM     10  C   UNL     1       4.558   5.611  -0.082  0.00  0.00    +0.053 A 
ATOM     11  C   UNL     1       5.799   6.124  -0.101  0.00  0.00    +0.196 A 
ATOM     12  O   UNL     1       6.688   5.120  -0.117  0.00  0.00    -0.467 OA
ENDBRANCH   2   9
BRANCH   6  13
ATOM     13  N   UNL     1       1.671   4.585  -0.049  0.00  0.00    -0.295 N 
ATOM     14  H   UNL     1       0.573   4.638  -0.035  0.00  0.00    +0.163 HD
ATOM     15  H   UNL     1       2.267   5.510  -0.059  0.00  0.00    +0.163 HD
ENDBRANCH   6  13
ENDBRANCH   1   5
BRANCH   1  16
ATOM     16  C   UNL     1       0.001  -0.003  -0.017  0.00  0.00    +0.173 C 
BRANCH  16  17
ATOM     17  C   UNL     1      -1.412  -0.526   0.006  0.00  0.00    +0.228 C 
ATOM     18  O   UNL     1      -2.345   0.250   0.023  0.00  0.00    -0.275 OA
ATOM     19  N   UNL     1      -1.640  -1.854   0.008  0.00  0.00    -0.284 N 
ATOM     20  H   UNL     1      -0.798  -2.556  -0.082  0.00  0.00    +0.155 HD
BRANCH  19  21
ATOM     21  C   UNL     1      -2.949  -2.340   0.123  0.00  0.00    +0.047 A 
ATOM     22  C   UNL     1      -4.002  -1.647  -0.453  0.00  0.00    +0.024 A 
ATOM     23  C   UNL     1      -5.292  -2.131  -0.342  0.00  0.00    +0.002 A 
ATOM     24  C   UNL     1      -5.539  -3.302   0.352  0.00  0.00    +0.001 A 
ATOM     25  C   UNL     1      -4.497  -3.997   0.934  0.00  0.00    +0.016 A 
ATOM     26  C   UNL     1      -3.197  -3.521   0.824  0.00  0.00    +0.030 A 
BRANCH  26  27
ATOM     27  S   UNL     1      -1.866  -4.405   1.566  0.00  0.00    -0.108 S 
BRANCH  27  28
ATOM     28  C   UNL     1      -2.668  -5.835   2.342  0.00  0.00    +0.192 C 
BRANCH  28  29
ATOM     29  C   UNL     1      -1.651  -6.667   3.007  0.00  0.00    +0.074 C 
ATOM     30  N   UNL     1      -0.867  -7.309   3.519  0.00  0.00    -0.196 NA
ENDBRANCH  28  29
ENDBRANCH  27  28
ENDBRANCH  26  27
ENDBRANCH  19  21
ENDBRANCH  16  17
ENDBRANCH   1  16
TORSDOF 9
