REMARK  Name = ZINC39976456
REMARK  6 active torsions:
REMARK  status: ('A' for Active; 'I' for Inactive)
REMARK    1  A    between atoms: C_1  and  N_2
REMARK    2  A    between atoms: C_3  and  C_23
REMARK    3  A    between atoms: C_7  and  S_9
REMARK    4  A    between atoms: S_9  and  C_10
REMARK    5  A    between atoms: C_10  and  C_11
REMARK    6  A    between atoms: C_17  and  C_19
REMARK                            x       y       z     vdW  Elec       q    Type
REMARK                         _______ _______ _______ _____ _____    ______ ____
ROOT
ATOM      1  S   UNL     1      -0.302  -0.814   2.515  0.00  0.00    -0.116 S 
ENDROOT
BRANCH   1   7
ATOM      2  C   UNL     1       0.073   1.541  -0.070  0.00  0.00    +0.109 C 
ATOM      3  N   UNL     1       0.024   0.074  -0.021  0.00  0.00    -0.260 NA
ATOM      4  C   UNL     1       0.691  -0.521  -1.210  0.00  0.00    +0.171 C 
ATOM      5  N   UNL     1       1.061  -1.880  -0.736  0.00  0.00    -0.233 NA
ATOM      6  N   UNL     1       1.462  -1.684   0.660  0.00  0.00    -0.229 NA
ATOM      7  C   UNL     1       0.805  -0.446   1.125  0.00  0.00    +0.200 C 
ATOM      8  H   UNL     1       1.821  -2.259  -1.280  0.00  0.00    +0.143 HD
ATOM      9  H   UNL     1       2.465  -1.613   0.742  0.00  0.00    +0.143 HD
BRANCH   4  10
ATOM     10  C   UNL     1      -0.264  -0.600  -2.374  0.00  0.00    -0.012 A 
ATOM     11  C   UNL     1       0.026   0.030  -3.574  0.00  0.00    +0.026 A 
ATOM     12  C   UNL     1      -0.873  -0.064  -4.619  0.00  0.00    +0.111 A 
ATOM     13  N   UNL     1      -1.996  -0.742  -4.483  0.00  0.00    -0.263 NA
ATOM     14  C   UNL     1      -2.305  -1.353  -3.356  0.00  0.00    +0.111 A 
ATOM     15  C   UNL     1      -1.452  -1.308  -2.271  0.00  0.00    +0.026 A 
ENDBRANCH   4  10
ENDBRANCH   1   7
BRANCH   1  16
ATOM     16  C   UNL     1      -1.440  -2.060   1.851  0.00  0.00    +0.168 C 
BRANCH  16  17
ATOM     17  C   UNL     1      -2.426  -2.459   2.919  0.00  0.00    +0.229 C 
ATOM     18  O   UNL     1      -2.367  -1.952   4.019  0.00  0.00    -0.275 OA
ATOM     19  N   UNL     1      -3.374  -3.379   2.651  0.00  0.00    -0.263 N 
ATOM     20  C   UNL     1      -4.284  -3.747   3.636  0.00  0.00    +0.188 A 
ATOM     21  N   UNL     1      -4.388  -3.313   4.876  0.00  0.00    -0.125 NA
ATOM     22  N   UNL     1      -5.276  -3.745   5.664  0.00  0.00    -0.136 NA
ATOM     23  C   UNL     1      -6.125  -4.657   5.233  0.00  0.00    +0.206 A 
ATOM     24  S   UNL     1      -5.548  -4.859   3.554  0.00  0.00    -0.027 S 
ATOM     25  H   UNL     1      -3.422  -3.784   1.771  0.00  0.00    +0.157 HD
BRANCH  23  26
ATOM     26  C   UNL     1      -7.263  -5.334   5.952  0.00  0.00    +0.443 C 
ATOM     27  F   UNL     1      -7.414  -4.768   7.223  0.00  0.00    -0.164 F 
ATOM     28  F   UNL     1      -8.444  -5.162   5.222  0.00  0.00    -0.164 F 
ATOM     29  F   UNL     1      -6.988  -6.700   6.080  0.00  0.00    -0.164 F 
ENDBRANCH  23  26
ENDBRANCH  16  17
ENDBRANCH   1  16
TORSDOF 5
