REMARK  Name = ZINC45138729
REMARK  11 active torsions:
REMARK  status: ('A' for Active; 'I' for Inactive)
REMARK    1  A    between atoms: C_1  and  C_2
REMARK    2  A    between atoms: C_2  and  C_3
REMARK    3  A    between atoms: C_2  and  C_4
REMARK    4  A    between atoms: C_4  and  C_6
REMARK    5  A    between atoms: C_4  and  N_16
REMARK    6  A    between atoms: N_19  and  C_20
REMARK    7  A    between atoms: C_20  and  C_21
REMARK    8  A    between atoms: C_21  and  C_22
REMARK    9  A    between atoms: C_22  and  N_23
REMARK   10  A    between atoms: N_23  and  S_24
REMARK   11  A    between atoms: S_24  and  C_27
REMARK                            x       y       z     vdW  Elec       q    Type
REMARK                         _______ _______ _______ _____ _____    ______ ____
ROOT
ATOM      1  N   UNL     1      -2.142  -0.048  -1.174  0.00  0.00    -0.292 N 
ATOM      2  C   UNL     1      -2.727   1.166  -1.160  0.00  0.00    +0.300 C 
ATOM      3  O   UNL     1      -2.667   1.858  -0.163  0.00  0.00    -0.253 OA
ATOM      4  N   UNL     1      -3.379   1.612  -2.252  0.00  0.00    -0.299 N 
ATOM      5  H   UNL     1      -2.190  -0.601  -1.970  0.00  0.00    +0.151 HD
ATOM      6  H   UNL     1      -3.427   1.060  -3.048  0.00  0.00    +0.150 HD
ENDROOT
BRANCH   1   7
ATOM      7  C   UNL     1      -1.433  -0.534   0.013  0.00  0.00    +0.107 C 
BRANCH   7   8
ATOM      8  C   UNL     1      -1.413  -2.041   0.005  0.00  0.00    -0.023 A 
ATOM      9  C   UNL     1      -1.201  -2.721  -1.180  0.00  0.00    +0.009 A 
ATOM     10  C   UNL     1      -1.183  -4.103  -1.192  0.00  0.00    +0.050 A 
ATOM     11  C   UNL     1      -1.377  -4.811  -0.015  0.00  0.00    +0.162 A 
ATOM     12  C   UNL     1      -1.587  -4.126   1.176  0.00  0.00    +0.162 A 
ATOM     13  C   UNL     1      -1.600  -2.739   1.182  0.00  0.00    +0.055 A 
ATOM     14  O   UNL     1      -1.772  -4.801   2.344  0.00  0.00    -0.485 OA
ATOM     15  C   UNL     1      -2.118  -6.186   2.239  0.00  0.00    +0.270 C 
ATOM     16  C   UNL     1      -1.183  -6.839   1.211  0.00  0.00    +0.270 C 
ATOM     17  O   UNL     1      -1.361  -6.171  -0.043  0.00  0.00    -0.485 OA
ENDBRANCH   7   8
BRANCH   7  19
ATOM     18  C   UNL     1      -0.019   1.526   0.010  0.00  0.00    +0.009 C 
ATOM     19  C   UNL     1       0.002  -0.004   0.002  0.00  0.00    +0.008 C 
ATOM     20  C   UNL     1       0.742  -0.511   1.242  0.00  0.00    +0.009 C 
ENDBRANCH   7  19
ENDBRANCH   1   7
BRANCH   4  21
ATOM     21  C   UNL     1      -4.015   2.932  -2.237  0.00  0.00    +0.107 C 
BRANCH  21  22
ATOM     22  C   UNL     1      -4.680   3.193  -3.590  0.00  0.00    +0.035 C 
BRANCH  22  23
ATOM     23  C   UNL     1      -5.344   4.571  -3.574  0.00  0.00    +0.107 C 
BRANCH  23  24
ATOM     24  N   UNL     1      -5.981   4.821  -4.869  0.00  0.00    -0.195 NA
ATOM     25  H   UNL     1      -5.760   4.267  -5.634  0.00  0.00    +0.148 HD
BRANCH  24  26
ATOM     26  S   UNL     1      -7.081   6.049  -5.028  0.00  0.00    +0.027 S 
ATOM     27  O   UNL     1      -7.503   5.985  -6.383  0.00  0.00    -0.158 OA
ATOM     28  O   UNL     1      -8.007   5.846  -3.970  0.00  0.00    -0.158 OA
ATOM     29  C   UNL     1      -6.129   7.567  -4.742  0.00  0.00    +0.214 C 
ENDBRANCH  24  26
ENDBRANCH  23  24
ENDBRANCH  22  23
ENDBRANCH  21  22
ENDBRANCH   4  21
TORSDOF 8
