REMARK  Name = ZINC40014609
REMARK  4 active torsions:
REMARK  status: ('A' for Active; 'I' for Inactive)
REMARK    1  A    between atoms: C_1  and  C_2
REMARK    2  A    between atoms: C_7  and  N_8
REMARK    3  A    between atoms: C_9  and  C_25
REMARK    4  A    between atoms: C_28  and  O_31
REMARK                            x       y       z     vdW  Elec       q    Type
REMARK                         _______ _______ _______ _____ _____    ______ ____
ROOT
ATOM      1  N   UNL     1       0.017   0.150   2.298  0.00  0.00    -0.237 N 
ATOM      2  C   UNL     1       0.197  -0.345   3.673  0.00  0.00    +0.151 C 
ATOM      3  C   UNL     1       0.115   0.858   4.553  0.00  0.00    +0.072 A 
ATOM      4  C   UNL     1       0.209   0.999   6.010  0.00  0.00    +0.199 A 
ATOM      5  O   UNL     1       0.557   0.092   6.746  0.00  0.00    -0.287 OA
ATOM      6  C   UNL     1      -0.159   2.350   6.502  0.00  0.00    +0.066 A 
ATOM      7  C   UNL     1      -0.312   2.586   7.868  0.00  0.00    +0.035 A 
ATOM      8  C   UNL     1      -0.659   3.845   8.307  0.00  0.00    +0.042 A 
ATOM      9  C   UNL     1      -0.855   4.872   7.391  0.00  0.00    +0.023 A 
ATOM     10  C   UNL     1      -0.704   4.650   6.041  0.00  0.00    +0.048 A 
ATOM     11  C   UNL     1      -0.351   3.385   5.572  0.00  0.00    +0.140 A 
ATOM     12  O   UNL     1      -0.200   3.198   4.241  0.00  0.00    -0.450 OA
ATOM     13  C   UNL     1      -0.088   1.947   3.752  0.00  0.00    +0.199 A 
ATOM     14  C   UNL     1      -0.143   1.488   2.354  0.00  0.00    +0.288 C 
ATOM     15  O   UNL     1      -0.312   2.209   1.391  0.00  0.00    -0.266 OA
ATOM     16 CL   UNL     1      -0.852   4.149  10.005  0.00  0.00    -0.084 Cl
ENDROOT
BRANCH   1  23
ATOM     17  C   UNL     1      -2.482  -0.813   1.337  0.00  0.00    +0.047 C 
ATOM     18  C   UNL     1      -1.181  -1.116   0.639  0.00  0.00    -0.010 A 
ATOM     19  C   UNL     1      -1.165  -1.881  -0.514  0.00  0.00    +0.008 A 
ATOM     20  C   UNL     1       0.055  -2.135  -1.124  0.00  0.00    +0.020 A 
ATOM     21  C   UNL     1       1.210  -1.621  -0.566  0.00  0.00    +0.113 A 
ATOM     22  N   UNL     1       1.164  -0.895   0.534  0.00  0.00    -0.240 NA
ATOM     23  C   UNL     1       0.019  -0.626   1.142  0.00  0.00    +0.132 A 
ENDBRANCH   1  23
BRANCH   2  24
ATOM     24  C   UNL     1       1.544  -1.005   3.816  0.00  0.00    -0.022 A 
ATOM     25  C   UNL     1       2.654  -0.448   3.208  0.00  0.00    +0.009 A 
ATOM     26  C   UNL     1       3.890  -1.051   3.337  0.00  0.00    +0.046 A 
ATOM     27  C   UNL     1       4.017  -2.217   4.078  0.00  0.00    +0.117 A 
ATOM     28  C   UNL     1       2.902  -2.774   4.687  0.00  0.00    +0.046 A 
ATOM     29  C   UNL     1       1.669  -2.164   4.559  0.00  0.00    +0.009 A 
BRANCH  27  30
ATOM     30  O   UNL     1       5.232  -2.813   4.206  0.00  0.00    -0.507 OA
ATOM     31  H   UNL     1       5.741  -2.507   4.969  0.00  0.00    +0.292 HD
ENDBRANCH  27  30
ENDBRANCH   2  24
TORSDOF 3
