REMARK  Name = ZINC14710225
REMARK  14 active torsions:
REMARK  status: ('A' for Active; 'I' for Inactive)
REMARK    1  A    between atoms: C_1  and  O_2
REMARK    2  A    between atoms: O_2  and  C_3
REMARK    3  A    between atoms: C_5  and  C_10
REMARK    4  A    between atoms: C_8  and  O_9
REMARK    5  A    between atoms: C_12  and  C_31
REMARK    6  A    between atoms: C_16  and  C_23
REMARK    7  A    between atoms: C_18  and  O_21
REMARK    8  A    between atoms: O_21  and  C_22
REMARK    9  A    between atoms: C_23  and  C_25
REMARK   10  A    between atoms: C_23  and  O_30
REMARK   11  A    between atoms: C_25  and  C_27
REMARK   12  A    between atoms: C_25  and  O_29
REMARK   13  A    between atoms: C_27  and  O_28
REMARK   14  A    between atoms: C_31  and  O_32
REMARK                            x       y       z     vdW  Elec       q    Type
REMARK                         _______ _______ _______ _____ _____    ______ ____
ROOT
ATOM      1  C   UNL     1      -2.513   0.975   0.019  0.00  0.00    +0.214 C 
ATOM      2  C   UNL     1      -2.845   0.465   1.442  0.00  0.00    +0.093 C 
ATOM      3  C   UNL     1      -2.230  -0.921   1.430  0.00  0.00    +0.007 A 
ATOM      4  C   UNL     1      -1.914  -1.801   2.443  0.00  0.00    +0.014 A 
ATOM      5  C   UNL     1      -1.331  -3.019   2.147  0.00  0.00    -0.013 A 
ATOM      6  C   UNL     1      -1.065  -3.352   0.831  0.00  0.00    +0.055 A 
ATOM      7  C   UNL     1      -1.385  -2.474  -0.189  0.00  0.00    +0.162 A 
ATOM      8  C   UNL     1      -1.978  -1.243   0.105  0.00  0.00    +0.166 A 
ATOM      9  O   UNL     1      -2.377  -0.244  -0.731  0.00  0.00    -0.480 OA
ENDROOT
BRANCH   1  12
ATOM     10  C   UNL     1      -0.056   3.845   0.023  0.00  0.00    +0.162 A 
ATOM     11  C   UNL     1      -1.244   3.131   0.031  0.00  0.00    +0.056 A 
ATOM     12  C   UNL     1      -1.220   1.749   0.017  0.00  0.00    -0.003 A 
ATOM     13  C   UNL     1      -0.013   1.076   0.008  0.00  0.00    +0.011 A 
ATOM     14  C   UNL     1       1.176   1.782   0.000  0.00  0.00    +0.049 A 
ATOM     15  C   UNL     1       1.159   3.167   0.008  0.00  0.00    +0.158 A 
BRANCH  10  17
ATOM     16  C   UNL     1      -1.362   5.833   0.047  0.00  0.00    +0.277 C 
ATOM     17  O   UNL     1      -0.078   5.205   0.031  0.00  0.00    -0.491 OA
ENDBRANCH  10  17
BRANCH  15  18
ATOM     18  O   UNL     1       2.327   3.863   0.001  0.00  0.00    -0.503 OA
ATOM     19  H   UNL     1       2.657   4.069  -0.884  0.00  0.00    +0.292 HD
ENDBRANCH  15  18
ENDBRANCH   1  12
BRANCH   7  20
ATOM     20  O   UNL     1      -1.121  -2.808  -1.480  0.00  0.00    -0.491 OA
ATOM     21  C   UNL     1      -0.514  -4.082  -1.709  0.00  0.00    +0.277 C 
ENDBRANCH   7  20
BRANCH   5  22
ATOM     22  C   UNL     1      -0.985  -3.981   3.254  0.00  0.00    +0.175 C 
BRANCH  22  23
ATOM     23  O   UNL     1       0.275  -4.595   2.975  0.00  0.00    -0.385 OA
ATOM     24  H   UNL     1       0.295  -5.094   2.147  0.00  0.00    +0.210 HD
ENDBRANCH  22  23
BRANCH  22  25
ATOM     25  C   UNL     1      -2.067  -5.059   3.350  0.00  0.00    +0.173 C 
BRANCH  25  26
ATOM     26  O   UNL     1      -2.226  -5.689   2.077  0.00  0.00    -0.387 OA
ATOM     27  H   UNL     1      -1.425  -6.118   1.747  0.00  0.00    +0.210 HD
ENDBRANCH  25  26
BRANCH  25  28
ATOM     28  C   UNL     1      -1.654  -6.104   4.388  0.00  0.00    +0.190 C 
BRANCH  28  29
ATOM     29  O   UNL     1      -2.715  -7.046   4.562  0.00  0.00    -0.392 OA
ATOM     30  H   UNL     1      -2.523  -7.740   5.208  0.00  0.00    +0.210 HD
ENDBRANCH  28  29
ENDBRANCH  25  28
ENDBRANCH  22  25
ENDBRANCH   5  22
BRANCH   2  31
ATOM     31  C   UNL     1      -4.357   0.391   1.657  0.00  0.00    +0.168 C 
BRANCH  31  32
ATOM     32  O   UNL     1      -4.629   0.030   3.013  0.00  0.00    -0.394 OA
ATOM     33  H   UNL     1      -5.571  -0.036   3.221  0.00  0.00    +0.209 HD
ENDBRANCH  31  32
ENDBRANCH   2  31
TORSDOF 12
