REMARK  Name = ZINC10709470
REMARK  8 active torsions:
REMARK  status: ('A' for Active; 'I' for Inactive)
REMARK    1  A    between atoms: C_1  and  N_2
REMARK    2  A    between atoms: C_3  and  C_22
REMARK    3  A    between atoms: C_6  and  S_7
REMARK    4  A    between atoms: S_7  and  C_8
REMARK    5  A    between atoms: C_8  and  C_9
REMARK    6  A    between atoms: N_11  and  C_12
REMARK    7  A    between atoms: C_16  and  S_18
REMARK    8  A    between atoms: S_18  and  N_21
REMARK                            x       y       z     vdW  Elec       q    Type
REMARK                         _______ _______ _______ _____ _____    ______ ____
ROOT
ATOM      1  C   UNL     1       3.778  10.696   0.074  0.00  0.00    +0.227 C 
ATOM      2  O   UNL     1       4.957  10.450   0.223  0.00  0.00    -0.275 OA
ATOM      3  N   UNL     1       3.356  11.976   0.035  0.00  0.00    -0.285 N 
ATOM      4  H   UNL     1       2.427  12.174  -0.160  0.00  0.00    +0.155 HD
ENDROOT
BRANCH   3   5
ATOM      5  C   UNL     1       4.259  13.018   0.275  0.00  0.00    +0.035 A 
ATOM      6  C   UNL     1       5.302  12.841   1.175  0.00  0.00    +0.023 A 
ATOM      7  C   UNL     1       6.194  13.870   1.406  0.00  0.00    +0.004 A 
ATOM      8  C   UNL     1       6.043  15.078   0.750  0.00  0.00    +0.028 A 
ATOM      9  C   UNL     1       5.002  15.259  -0.142  0.00  0.00    +0.107 A 
ATOM     10  C   UNL     1       4.110  14.232  -0.381  0.00  0.00    +0.051 A 
BRANCH   9  11
ATOM     11  S   UNL     1       4.814  16.801  -0.974  0.00  0.00    +0.056 S 
ATOM     12  O   UNL     1       6.096  17.414  -0.987  0.00  0.00    -0.153 OA
ATOM     13  O   UNL     1       4.084  16.534  -2.163  0.00  0.00    -0.153 OA
BRANCH  11  14
ATOM     14  N   UNL     1       3.844  17.752  -0.027  0.00  0.00    -0.204 NA
ATOM     15  H   UNL     1       3.501  17.411   0.814  0.00  0.00    +0.144 HD
ATOM     16  H   UNL     1       3.618  18.651  -0.314  0.00  0.00    +0.144 HD
ENDBRANCH  11  14
ENDBRANCH   9  11
ENDBRANCH   3   5
BRANCH   1  17
ATOM     17  C   UNL     1       2.786   9.571  -0.066  0.00  0.00    +0.173 C 
BRANCH  17  18
ATOM     18  S   UNL     1       3.654   7.985   0.027  0.00  0.00    -0.077 S 
BRANCH  18  24
ATOM     19  C   UNL     1       3.551   4.680  -0.024  0.00  0.00    +0.153 C 
ATOM     20  N   UNL     1       2.355   5.514  -0.168  0.00  0.00    -0.305 N 
ATOM     21  C   UNL     1       1.058   5.087  -0.341  0.00  0.00    +0.171 A 
ATOM     22  N   UNL     1       0.307   6.162  -0.430  0.00  0.00    -0.128 NA
ATOM     23  N   UNL     1       1.035   7.216  -0.319  0.00  0.00    -0.122 NA
ATOM     24  C   UNL     1       2.295   6.880  -0.160  0.00  0.00    +0.192 A 
BRANCH  21  25
ATOM     25  C   UNL     1       0.599   3.690  -0.417  0.00  0.00    +0.056 A 
ATOM     26  C   UNL     1      -0.675   3.191  -0.309  0.00  0.00    +0.019 A 
ATOM     27  C   UNL     1      -0.863   1.832  -0.420  0.00  0.00    +0.008 A 
ATOM     28  C   UNL     1       0.213   1.028  -0.622  0.00  0.00    +0.046 A 
ATOM     29  S   UNL     1       1.555   2.204  -0.674  0.00  0.00    -0.094 S 
ENDBRANCH  21  25
ENDBRANCH  18  24
ENDBRANCH  17  18
ENDBRANCH   1  17
TORSDOF 7
