REMARK  Name = ZINC50956205
REMARK  5 active torsions:
REMARK  status: ('A' for Active; 'I' for Inactive)
REMARK    1  A    between atoms: C_1  and  O_2
REMARK    2  A    between atoms: O_2  and  C_3
REMARK    3  A    between atoms: C_6  and  C_9
REMARK    4  A    between atoms: C_14  and  N_18
REMARK    5  A    between atoms: C_22  and  C_25
REMARK                            x       y       z     vdW  Elec       q    Type
REMARK                         _______ _______ _______ _____ _____    ______ ____
ROOT
ATOM      1  C   UNL     1      -5.143  -2.299  -0.272  0.00  0.00    +0.002 A 
ATOM      2  C   UNL     1      -6.130  -1.902   0.565  0.00  0.00    +0.056 A 
ATOM      3  S   UNL     1      -7.442  -3.065   0.244  0.00  0.00    -0.076 S 
ATOM      4  C   UNL     1      -6.646  -4.051  -0.996  0.00  0.00    +0.114 A 
ATOM      5  C   UNL     1      -5.378  -3.451  -1.137  0.00  0.00    +0.055 A 
ATOM      6  C   UNL     1      -4.520  -4.056  -2.094  0.00  0.00    +0.134 A 
ATOM      7  N   UNL     1      -4.949  -5.107  -2.773  0.00  0.00    -0.220 NA
ATOM      8  C   UNL     1      -6.154  -5.616  -2.592  0.00  0.00    +0.224 A 
ATOM      9  N   UNL     1      -6.992  -5.104  -1.712  0.00  0.00    -0.228 NA
ENDROOT
BRANCH   1  13
ATOM     10  C   UNL     1      -1.435  -0.220  -0.391  0.00  0.00    +0.120 A 
ATOM     11  C   UNL     1      -2.614   0.449  -0.690  0.00  0.00    +0.046 A 
ATOM     12  C   UNL     1      -3.818  -0.222  -0.653  0.00  0.00    +0.012 A 
ATOM     13  C   UNL     1      -3.851  -1.575  -0.314  0.00  0.00    -0.016 A 
ATOM     14  C   UNL     1      -2.665  -2.244  -0.014  0.00  0.00    +0.012 A 
ATOM     15  C   UNL     1      -1.463  -1.567  -0.058  0.00  0.00    +0.046 A 
BRANCH  10  17
ATOM     16  C   UNL     1      -0.294   1.830  -0.778  0.00  0.00    +0.277 C 
ATOM     17  O   UNL     1      -0.250   0.445  -0.429  0.00  0.00    -0.495 OA
ENDBRANCH  10  17
ENDBRANCH   1  13
BRANCH   6  18
ATOM     18  N   UNL     1      -3.250  -3.552  -2.312  0.00  0.00    -0.309 N 
ATOM     19  C   UNL     1      -3.051  -2.297  -3.055  0.00  0.00    +0.134 C 
ATOM     20  C   UNL     1      -2.006  -2.543  -4.149  0.00  0.00    +0.180 C 
ATOM     21  O   UNL     1      -0.840  -3.127  -3.564  0.00  0.00    -0.364 OA
ATOM     22  C   UNL     1      -1.063  -4.405  -2.965  0.00  0.00    +0.221 C 
ATOM     23  C   UNL     1      -2.059  -4.251  -1.804  0.00  0.00    +0.147 C 
BRANCH  22  24
ATOM     24  C   UNL     1       0.241  -4.949  -2.439  0.00  0.00    +0.241 C 
ATOM     25  O   UNL     1       1.244  -4.268  -2.483  0.00  0.00    -0.273 OA
ATOM     26  N   UNL     1       0.292  -6.192  -1.920  0.00  0.00    -0.327 N 
ATOM     27  H   UNL     1      -0.510  -6.736  -1.885  0.00  0.00    +0.145 HD
ATOM     28  H   UNL     1       1.131  -6.542  -1.581  0.00  0.00    +0.145 HD
ENDBRANCH  22  24
ENDBRANCH   6  18
TORSDOF 4
