REMARK  Name = ZINC36848793
REMARK  10 active torsions:
REMARK  status: ('A' for Active; 'I' for Inactive)
REMARK    1  A    between atoms: C_1  and  C_2
REMARK    2  A    between atoms: C_5  and  C_9
REMARK    3  A    between atoms: C_7  and  C_8
REMARK    4  A    between atoms: C_9  and  C_11
REMARK    5  A    between atoms: C_9  and  N_12
REMARK    6  A    between atoms: C_13  and  C_15
REMARK    7  A    between atoms: C_15  and  N_16
REMARK    8  A    between atoms: C_19  and  C_23
REMARK    9  A    between atoms: C_19  and  C_24
REMARK   10  A    between atoms: C_27  and  C_30
REMARK                            x       y       z     vdW  Elec       q    Type
REMARK                         _______ _______ _______ _____ _____    ______ ____
ROOT
ATOM      1  N   UNL     1       2.931  -7.785  -1.760  0.00  0.00    -0.215 N 
ATOM      2  C   UNL     1       4.056  -8.024  -1.057  0.00  0.00    +0.251 C 
ATOM      3  O   UNL     1       4.821  -7.203  -0.598  0.00  0.00    -0.272 OA
ATOM      4  C   UNL     1       4.165  -9.532  -0.960  0.00  0.00    +0.135 C 
ATOM      5  N   UNL     1       2.978 -10.013  -1.687  0.00  0.00    -0.281 N 
ATOM      6  C   UNL     1       2.319  -8.921  -2.112  0.00  0.00    +0.310 C 
ATOM      7  O   UNL     1       1.284  -8.961  -2.748  0.00  0.00    -0.252 OA
ATOM      8  C   UNL     1       5.447 -10.024  -1.636  0.00  0.00    +0.047 C 
ATOM      9  H   UNL     1       2.721 -10.938  -1.830  0.00  0.00    +0.152 HD
ENDROOT
BRANCH   4  10
ATOM     10  C   UNL     1       4.120  -9.975   0.480  0.00  0.00    -0.015 A 
ATOM     11  C   UNL     1       4.600  -9.139   1.473  0.00  0.00    +0.007 A 
ATOM     12  C   UNL     1       4.561  -9.539   2.793  0.00  0.00    +0.019 A 
ATOM     13  C   UNL     1       4.037 -10.789   3.126  0.00  0.00    +0.052 A 
ATOM     14  C   UNL     1       3.554 -11.627   2.119  0.00  0.00    +0.019 A 
ATOM     15  C   UNL     1       3.594 -11.213   0.803  0.00  0.00    +0.007 A 
BRANCH  13  16
ATOM     16  C   UNL     1       3.994 -11.210   4.494  0.00  0.00    +0.099 C 
ATOM     17  N   UNL     1       3.961 -11.544   5.579  0.00  0.00    -0.191 NA
ENDBRANCH  13  16
ENDBRANCH   4  10
BRANCH   1  18
ATOM     18  C   UNL     1       2.437  -6.446  -2.092  0.00  0.00    +0.213 C 
BRANCH  18  20
ATOM     19  N   UNL     1       0.948  -4.746  -1.087  0.00  0.00    -0.307 N 
ATOM     20  C   UNL     1       1.524  -5.962  -0.996  0.00  0.00    +0.231 C 
ATOM     21  O   UNL     1       1.306  -6.665  -0.033  0.00  0.00    -0.274 OA
ATOM     22  H   UNL     1       1.121  -4.184  -1.858  0.00  0.00    +0.149 HD
BRANCH  19  23
ATOM     23  C   UNL     1       0.059  -4.275  -0.021  0.00  0.00    +0.100 C 
ATOM     24  C   UNL     1      -1.356  -4.802  -0.267  0.00  0.00    +0.033 C 
BRANCH  23  29
ATOM     25  C   UNL     1      -0.018   1.503   0.010  0.00  0.00    +0.044 C 
ATOM     26  C   UNL     1       0.002  -0.004   0.002  0.00  0.00    -0.048 A 
ATOM     27  C   UNL     1       0.006  -0.689  -1.199  0.00  0.00    +0.004 A 
ATOM     28  C   UNL     1       0.025  -2.071  -1.207  0.00  0.00    +0.006 A 
ATOM     29  C   UNL     1       0.040  -2.768  -0.013  0.00  0.00    -0.027 A 
ATOM     30  C   UNL     1       0.037  -2.084   1.188  0.00  0.00    +0.009 A 
ATOM     31  C   UNL     1       0.023  -0.702   1.195  0.00  0.00    -0.047 A 
ATOM     32  C   UNL     1       0.025   0.045   2.504  0.00  0.00    +0.044 C 
ENDBRANCH  23  29
ENDBRANCH  19  23
ENDBRANCH  18  20
ENDBRANCH   1  18
TORSDOF 6
