REMARK  Name = ZINC22587475
REMARK  10 active torsions:
REMARK  status: ('A' for Active; 'I' for Inactive)
REMARK    1  A    between atoms: C_1  and  C_2
REMARK    2  A    between atoms: C_2  and  N_3
REMARK    3  A    between atoms: N_6  and  C_9
REMARK    4  A    between atoms: C_9  and  C_10
REMARK    5  A    between atoms: C_11  and  C_25
REMARK    6  A    between atoms: C_12  and  C_18
REMARK    7  A    between atoms: C_23  and  C_24
REMARK    8  A    between atoms: C_25  and  O_27
REMARK    9  A    between atoms: O_27  and  C_28
REMARK   10  A    between atoms: C_28  and  C_29
REMARK                            x       y       z     vdW  Elec       q    Type
REMARK                         _______ _______ _______ _____ _____    ______ ____
ROOT
ATOM      1  C   UNL     1      -0.260   1.641  -0.951  0.00  0.00    +0.038 C 
ATOM      2  C   UNL     1       0.996   2.127  -0.854  0.00  0.00    +0.079 C 
ATOM      3  C   UNL     1       1.168   3.632  -0.804  0.00  0.00    +0.144 C 
ATOM      4  N   UNL     1      -0.057   4.446  -0.865  0.00  0.00    -0.288 N 
ATOM      5  C   UNL     1      -1.243   3.814  -0.961  0.00  0.00    +0.304 C 
ATOM      6  O   UNL     1      -2.261   4.477  -1.012  0.00  0.00    -0.252 OA
ATOM      7  N   UNL     1      -1.338   2.479  -1.007  0.00  0.00    -0.271 N 
ATOM      8  H   UNL     1       0.009   5.544  -0.833  0.00  0.00    +0.151 HD
ATOM      9  H   UNL     1      -2.353   2.064  -1.094  0.00  0.00    +0.156 HD
ENDROOT
BRANCH   3  10
ATOM     10  C   UNL     1       2.052   4.037  -1.955  0.00  0.00    -0.020 A 
ATOM     11  C   UNL     1       1.490   4.390  -3.168  0.00  0.00    +0.006 A 
ATOM     12  C   UNL     1       2.301   4.765  -4.223  0.00  0.00    +0.000 A 
ATOM     13  C   UNL     1       3.674   4.779  -4.067  0.00  0.00    +0.000 A 
ATOM     14  C   UNL     1       4.237   4.421  -2.857  0.00  0.00    +0.004 A 
ATOM     15  C   UNL     1       3.426   4.050  -1.800  0.00  0.00    -0.045 A 
ATOM     16  C   UNL     1       4.039   3.659  -0.480  0.00  0.00    +0.044 C 
ENDBRANCH   3  10
BRANCH   2  17
ATOM     17  C   UNL     1       2.113   1.261  -0.802  0.00  0.00    +0.339 C 
ATOM     18  O   UNL     1       2.642   1.015   0.266  0.00  0.00    -0.245 OA
BRANCH  17  19
ATOM     19  O   UNL     1       2.592   0.708  -1.936  0.00  0.00    -0.462 OA
BRANCH  19  20
ATOM     20  C   UNL     1       3.677  -0.211  -1.801  0.00  0.00    +0.229 C 
ATOM     21  C   UNL     1       4.002  -0.820  -3.167  0.00  0.00    +0.048 C 
ENDBRANCH  19  20
ENDBRANCH  17  19
ENDBRANCH   2  17
BRANCH   1  22
ATOM     22  C   UNL     1      -0.477   0.151  -1.004  0.00  0.00    +0.135 C 
BRANCH  22  26
ATOM     23  N   UNL     1      -1.655  -1.875   2.511  0.00  0.00    +0.381 N 
ATOM     24  C   UNL     1      -2.468  -2.064   1.302  0.00  0.00    -0.063 C 
ATOM     25  C   UNL     1      -1.644  -1.679   0.071  0.00  0.00    +0.066 C 
ATOM     26  N   UNL     1      -1.208  -0.281   0.195  0.00  0.00    -0.300 NA
ATOM     27  C   UNL     1      -0.394  -0.092   1.404  0.00  0.00    +0.066 C 
ATOM     28  C   UNL     1      -1.218  -0.477   2.635  0.00  0.00    -0.063 C 
ATOM     29  H   UNL     1      -0.757  -2.504   2.419  0.00  0.00    -0.082 HD
BRANCH  23  31
ATOM     30  C   UNL     1      -1.619  -1.870   4.960  0.00  0.00    -0.017 C 
ATOM     31  C   UNL     1      -2.386  -2.307   3.710  0.00  0.00    -0.082 C 
ENDBRANCH  23  31
ENDBRANCH  22  26
ENDBRANCH   1  22
TORSDOF 7
