REMARK  Name = ZINC11912319
REMARK  9 active torsions:
REMARK  status: ('A' for Active; 'I' for Inactive)
REMARK    1  A    between atoms: C_1  and  C_2
REMARK    2  A    between atoms: C_6  and  N_9
REMARK    3  A    between atoms: C_7  and  C_8
REMARK    4  A    between atoms: N_9  and  S_10
REMARK    5  A    between atoms: S_10  and  C_13
REMARK    6  A    between atoms: C_14  and  C_29
REMARK    7  A    between atoms: C_22  and  C_24
REMARK    8  A    between atoms: C_29  and  O_31
REMARK    9  A    between atoms: O_31  and  C_32
REMARK                            x       y       z     vdW  Elec       q    Type
REMARK                         _______ _______ _______ _____ _____    ______ ____
ROOT
ATOM      1  C   UNL     1      -1.561   2.741  -2.310  0.00  0.00    +0.160 A 
ATOM      2  C   UNL     1      -2.317   2.215  -3.335  0.00  0.00    +0.096 A 
ATOM      3  C   UNL     1      -2.320   2.919  -4.605  0.00  0.00    -0.018 A 
ATOM      4  C   UNL     1      -1.564   4.040  -4.639  0.00  0.00    +0.013 A 
ATOM      5  S   UNL     1      -0.864   4.160  -3.018  0.00  0.00    -0.071 S 
ATOM      6  C   UNL     1      -1.380   4.965  -5.803  0.00  0.00    +0.150 C 
ATOM      7  N   UNL     1      -1.985   4.310  -6.979  0.00  0.00    -0.291 N 
ATOM      8  C   UNL     1      -3.276   3.631  -6.790  0.00  0.00    +0.113 C 
ATOM      9  C   UNL     1      -3.101   2.454  -5.828  0.00  0.00    +0.056 C 
ATOM     10  C   UNL     1      -1.378   4.333  -8.182  0.00  0.00    +0.268 C 
ATOM     11  O   UNL     1      -1.920   3.829  -9.147  0.00  0.00    -0.268 OA
ENDROOT
BRANCH  10  12
ATOM     12  C   UNL     1      -0.056   4.970  -8.328  0.00  0.00    +0.156 A 
ATOM     13  C   UNL     1       0.693   4.916  -9.495  0.00  0.00    +0.101 A 
ATOM     14  S   UNL     1       2.091   5.828  -9.033  0.00  0.00    +0.029 S 
ATOM     15  N   UNL     1       1.693   6.178  -7.547  0.00  0.00    -0.110 NA
ATOM     16  N   UNL     1       0.540   5.647  -7.354  0.00  0.00    -0.136 NA
ENDBRANCH  10  12
BRANCH   1  17
ATOM     17  S   UNL     1      -1.358   2.122  -0.672  0.00  0.00    +0.079 S 
ATOM     18  O   UNL     1      -2.502   1.326  -0.394  0.00  0.00    -0.149 OA
ATOM     19  O   UNL     1      -0.985   3.229   0.137  0.00  0.00    -0.149 OA
BRANCH  17  20
ATOM     20  N   UNL     1      -0.060   1.094  -0.695  0.00  0.00    -0.216 N 
ATOM     21  H   UNL     1      -0.175   0.162  -0.451  0.00  0.00    +0.174 HD
BRANCH  20  27
ATOM     22  C   UNL     1       4.250   0.338  -2.932  0.00  0.00    +0.044 C 
ATOM     23  C   UNL     1       3.310   1.223  -2.155  0.00  0.00    -0.046 A 
ATOM     24  C   UNL     1       3.695   2.506  -1.812  0.00  0.00    +0.004 A 
ATOM     25  C   UNL     1       2.836   3.321  -1.098  0.00  0.00    +0.002 A 
ATOM     26  C   UNL     1       1.589   2.856  -0.727  0.00  0.00    +0.025 A 
ATOM     27  C   UNL     1       1.200   1.568  -1.070  0.00  0.00    +0.051 A 
ATOM     28  C   UNL     1       2.068   0.750  -1.782  0.00  0.00    -0.025 A 
ATOM     29  C   UNL     1       1.652  -0.651  -2.151  0.00  0.00    +0.046 C 
ENDBRANCH  20  27
ENDBRANCH  17  20
ENDBRANCH   1  17
BRANCH   2  30
ATOM     30  C   UNL     1      -3.097   0.983  -3.149  0.00  0.00    +0.342 C 
ATOM     31  O   UNL     1      -4.245   1.043  -2.754  0.00  0.00    -0.245 OA
BRANCH  30  32
ATOM     32  O   UNL     1      -2.538  -0.215  -3.416  0.00  0.00    -0.464 OA
ATOM     33  C   UNL     1      -3.366  -1.389  -3.209  0.00  0.00    +0.280 C 
ENDBRANCH  30  32
ENDBRANCH   2  30
TORSDOF 6
