REMARK  Name = ZINC67491787
REMARK  7 active torsions:
REMARK  status: ('A' for Active; 'I' for Inactive)
REMARK    1  A    between atoms: C_1  and  C_2
REMARK    2  A    between atoms: C_5  and  N_11
REMARK    3  A    between atoms: C_7  and  C_8
REMARK    4  A    between atoms: C_12  and  C_14
REMARK    5  A    between atoms: N_16  and  C_17
REMARK    6  A    between atoms: C_17  and  C_19
REMARK    7  A    between atoms: C_17  and  C_20
REMARK                            x       y       z     vdW  Elec       q    Type
REMARK                         _______ _______ _______ _____ _____    ______ ____
ROOT
ATOM      1  N   UNL     1      -0.215  -4.107  -0.539  0.00  0.00    -0.278 N 
ATOM      2  C   UNL     1      -0.389  -4.526  -1.808  0.00  0.00    +0.303 C 
ATOM      3  O   UNL     1      -0.533  -3.716  -2.700  0.00  0.00    -0.265 OA
ATOM      4  H   UNL     1      -0.176  -4.753   0.184  0.00  0.00    +0.155 HD
ENDROOT
BRANCH   1   9
ATOM      5  C   UNL     1       0.270   1.436   0.606  0.00  0.00    +0.044 C 
ATOM      6  C   UNL     1       0.143  -0.034   0.299  0.00  0.00    -0.038 A 
ATOM      7  C   UNL     1      -0.483  -0.875   1.198  0.00  0.00    +0.006 A 
ATOM      8  C   UNL     1      -0.602  -2.224   0.921  0.00  0.00    +0.023 A 
ATOM      9  C   UNL     1      -0.093  -2.743  -0.264  0.00  0.00    +0.035 A 
ATOM     10  C   UNL     1       0.537  -1.906  -1.173  0.00  0.00    +0.036 A 
ATOM     11  C   UNL     1       0.652  -0.544  -0.896  0.00  0.00    +0.041 A 
BRANCH  11  12
ATOM     12  C   UNL     1       1.317   0.356  -1.863  0.00  0.00    +0.242 C 
ATOM     13  O   UNL     1       1.315   1.557  -1.676  0.00  0.00    -0.270 OA
ATOM     14  N   UNL     1       1.927  -0.156  -2.950  0.00  0.00    -0.325 N 
ATOM     15  H   UNL     1       1.929  -1.115  -3.099  0.00  0.00    +0.145 HD
ATOM     16  H   UNL     1       2.363   0.434  -3.585  0.00  0.00    +0.145 HD
ENDBRANCH  11  12
ENDBRANCH   1   9
BRANCH   2  17
ATOM     17  C   UNL     1      -0.404  -5.988  -2.116  0.00  0.00    +0.300 C 
ATOM     18  O   UNL     1      -0.260  -6.798  -1.224  0.00  0.00    -0.265 OA
ATOM     19  N   UNL     1      -0.577  -6.407  -3.386  0.00  0.00    -0.301 N 
ATOM     20  H   UNL     1      -0.692  -5.759  -4.099  0.00  0.00    +0.150 HD
BRANCH  19  21
ATOM     21  C   UNL     1      -0.592  -7.840  -3.688  0.00  0.00    +0.101 C 
ATOM     22  C   UNL     1      -2.002  -8.393  -3.468  0.00  0.00    +0.033 C 
BRANCH  21  23
ATOM     23  C   UNL     1      -0.187  -8.055  -5.124  0.00  0.00    -0.026 A 
ATOM     24  C   UNL     1      -0.636  -7.190  -6.105  0.00  0.00    +0.007 A 
ATOM     25  C   UNL     1      -0.265  -7.386  -7.422  0.00  0.00    +0.022 A 
ATOM     26  C   UNL     1       0.556  -8.447  -7.759  0.00  0.00    +0.059 A 
ATOM     27  C   UNL     1       1.006  -9.312  -6.776  0.00  0.00    +0.060 A 
ATOM     28  C   UNL     1       0.638  -9.112  -5.458  0.00  0.00    +0.027 A 
ATOM     29 CL   UNL     1       2.037 -10.644  -7.197  0.00  0.00    -0.082 Cl
ATOM     30 CL   UNL     1       1.022  -8.694  -9.413  0.00  0.00    -0.082 Cl
ENDBRANCH  21  23
ENDBRANCH  19  21
ENDBRANCH   2  17
TORSDOF 5
