REMARK  Name = ZINC01637837
REMARK  8 active torsions:
REMARK  status: ('A' for Active; 'I' for Inactive)
REMARK    1  A    between atoms: C_1  and  C_2
REMARK    2  A    between atoms: C_4  and  S_21
REMARK    3  A    between atoms: C_5  and  S_9
REMARK    4  A    between atoms: S_9  and  C_10
REMARK    5  A    between atoms: C_10  and  C_11
REMARK    6  A    between atoms: N_17  and  C_18
REMARK    7  A    between atoms: N_17  and  C_19
REMARK    8  A    between atoms: S_21  and  N_24
REMARK                            x       y       z     vdW  Elec       q    Type
REMARK                         _______ _______ _______ _____ _____    ______ ____
ROOT
ATOM      1  C   UNL     1       9.241   5.533  -1.194  0.00  0.00    +0.045 C 
ATOM      2  C   UNL     1       7.952   4.763  -1.328  0.00  0.00    -0.030 A 
ATOM      3  C   UNL     1       7.449   4.476  -2.584  0.00  0.00    +0.034 A 
ATOM      4  C   UNL     1       6.268   3.771  -2.711  0.00  0.00    +0.119 A 
ATOM      5  C   UNL     1       5.585   3.350  -1.576  0.00  0.00    +0.036 A 
ATOM      6  C   UNL     1       6.091   3.645  -0.316  0.00  0.00    +0.037 A 
ATOM      7  C   UNL     1       7.276   4.347  -0.195  0.00  0.00    +0.045 A 
ATOM      8 CL   UNL     1       7.912   4.711   1.378  0.00  0.00    -0.083 Cl
ENDROOT
BRANCH   4   9
ATOM      9  S   UNL     1       5.627   3.406  -4.311  0.00  0.00    +0.057 S 
ATOM     10  O   UNL     1       4.257   3.781  -4.295  0.00  0.00    -0.153 OA
ATOM     11  O   UNL     1       6.552   3.937  -5.250  0.00  0.00    -0.153 OA
BRANCH   9  12
ATOM     12  N   UNL     1       5.665   1.760  -4.490  0.00  0.00    -0.203 NA
ATOM     13  H   UNL     1       6.002   1.202  -3.771  0.00  0.00    +0.144 HD
ATOM     14  H   UNL     1       5.350   1.354  -5.312  0.00  0.00    +0.144 HD
ENDBRANCH   9  12
ENDBRANCH   4   9
BRANCH   5  15
ATOM     15  S   UNL     1       4.078   2.451  -1.734  0.00  0.00    -0.115 S 
BRANCH  15  16
ATOM     16  C   UNL     1       3.575   2.132  -0.021  0.00  0.00    +0.150 C 
BRANCH  16  17
ATOM     17  C   UNL     1       2.282   1.359  -0.012  0.00  0.00    +0.146 A 
ATOM     18  N   UNL     1       2.304   0.037  -0.020  0.00  0.00    -0.199 NA
ATOM     19  C   UNL     1       1.164  -0.649  -0.013  0.00  0.00    +0.217 A 
ATOM     20  N   UNL     1       0.002  -0.004   0.002  0.00  0.00    -0.181 NA
ATOM     21  C   UNL     1      -0.016   1.324   0.009  0.00  0.00    +0.222 A 
ATOM     22  N   UNL     1       1.129   2.004   0.002  0.00  0.00    -0.198 NA
ATOM     23  N   UNL     1      -1.220   1.999   0.019  0.00  0.00    -0.306 N 
ATOM     24  C   UNL     1      -2.479   1.250   0.021  0.00  0.00    +0.132 C 
ATOM     25  C   UNL     1      -1.238   3.464   0.027  0.00  0.00    +0.132 C 
ATOM     26  N   UNL     1       1.188  -2.029  -0.020  0.00  0.00    -0.327 N 
ATOM     27  H   UNL     1       0.356  -2.528  -0.014  0.00  0.00    +0.145 HD
ATOM     28  H   UNL     1       2.036  -2.499  -0.030  0.00  0.00    +0.145 HD
ENDBRANCH  16  17
ENDBRANCH  15  16
ENDBRANCH   5  15
TORSDOF 5
