REMARK  Name = ZINC29354811
REMARK  7 active torsions:
REMARK  status: ('A' for Active; 'I' for Inactive)
REMARK    1  A    between atoms: C_1  and  O_2
REMARK    2  A    between atoms: O_2  and  C_3
REMARK    3  A    between atoms: C_5  and  C_11
REMARK    4  A    between atoms: C_8  and  O_9
REMARK    5  A    between atoms: N_12  and  N_13
REMARK    6  A    between atoms: C_14  and  C_16
REMARK    7  A    between atoms: C_16  and  N_17
REMARK                            x       y       z     vdW  Elec       q    Type
REMARK                         _______ _______ _______ _____ _____    ______ ____
ROOT
ATOM      1  N   UNL     1       5.457   4.175  -1.847  0.00  0.00    -0.206 N 
ATOM      2  C   UNL     1       4.159   4.356  -1.531  0.00  0.00    +0.252 C 
ATOM      3  O   UNL     1       3.291   3.933  -2.266  0.00  0.00    -0.272 OA
ATOM      4  H   UNL     1       6.244   4.559  -1.181  0.00  0.00    +0.177 HD
ENDROOT
BRANCH   1   6
ATOM      5  C   UNL     1       7.047   3.219  -3.269  0.00  0.00    +0.138 C 
ATOM      6  N   UNL     1       5.804   3.498  -3.023  0.00  0.00    -0.188 NA
BRANCH   5   9
ATOM      7  C   UNL     1      10.303   3.099  -1.402  0.00  0.00    +0.163 A 
ATOM      8  C   UNL     1       9.392   3.143  -2.441  0.00  0.00    +0.059 A 
ATOM      9  C   UNL     1       8.023   3.166  -2.165  0.00  0.00    -0.001 A 
ATOM     10  C   UNL     1       7.580   3.133  -0.840  0.00  0.00    +0.028 A 
ATOM     11  C   UNL     1       8.495   3.083   0.192  0.00  0.00    +0.063 A 
ATOM     12  C   UNL     1       9.855   3.066  -0.083  0.00  0.00    +0.173 A 
ATOM     13 BR   UNL     1       7.894   3.038   1.984  0.00  0.00    -0.046 Br
BRANCH   7  15
ATOM     14  C   UNL     1      12.025   3.118  -3.042  0.00  0.00    +0.277 C 
ATOM     15  O   UNL     1      11.637   3.082  -1.667  0.00  0.00    -0.491 OA
ENDBRANCH   7  15
BRANCH  12  16
ATOM     16  O   UNL     1      10.753   3.017   0.937  0.00  0.00    -0.503 OA
ATOM     17  H   UNL     1      10.400   2.991   1.978  0.00  0.00    +0.292 HD
ENDBRANCH  12  16
ENDBRANCH   5   9
ENDBRANCH   1   6
BRANCH   2  18
ATOM     18  C   UNL     1       3.786   5.085  -0.266  0.00  0.00    +0.220 C 
BRANCH  18  19
ATOM     19  N   UNL     1       2.327   5.150  -0.152  0.00  0.00    -0.321 N 
ATOM     20  C   UNL     1       1.532   6.179  -0.551  0.00  0.00    +0.200 A 
ATOM     21  N   UNL     1       0.285   5.905  -0.300  0.00  0.00    -0.236 NA
ATOM     22  C   UNL     1       0.195   4.679   0.278  0.00  0.00    +0.089 A 
ATOM     23  C   UNL     1       1.504   4.178   0.381  0.00  0.00    +0.069 A 
ATOM     24  C   UNL     1       1.722   2.926   0.940  0.00  0.00    +0.028 A 
ATOM     25  C   UNL     1       0.651   2.184   1.391  0.00  0.00    +0.002 A 
ATOM     26  C   UNL     1      -0.642   2.677   1.284  0.00  0.00    +0.002 A 
ATOM     27  C   UNL     1      -0.875   3.909   0.742  0.00  0.00    +0.030 A 
ENDBRANCH  18  19
ENDBRANCH   2  18
TORSDOF 6
