REMARK  Name = ZINC65528952
REMARK  9 active torsions:
REMARK  status: ('A' for Active; 'I' for Inactive)
REMARK    1  A    between atoms: C_1  and  C_2
REMARK    2  A    between atoms: C_7  and  N_8
REMARK    3  A    between atoms: C_9  and  C_17
REMARK    4  A    between atoms: C_12  and  C_14
REMARK    5  A    between atoms: C_14  and  C_15
REMARK    6  A    between atoms: C_14  and  C_16
REMARK    7  A    between atoms: C_17  and  C_18
REMARK    8  A    between atoms: C_19  and  C_25
REMARK    9  A    between atoms: C_22  and  C_24
REMARK                            x       y       z     vdW  Elec       q    Type
REMARK                         _______ _______ _______ _____ _____    ______ ____
ROOT
ATOM      1  N   UNL     1       0.106  -0.043   2.498  0.00  0.00    -0.202 N 
ATOM      2  C   UNL     1      -1.054  -0.216   3.390  0.00  0.00    +0.186 C 
ATOM      3  N   UNL     1      -0.859   0.817   4.422  0.00  0.00    -0.311 N 
ATOM      4  C   UNL     1       0.311   1.481   4.099  0.00  0.00    +0.118 C 
ATOM      5  N   UNL     1       0.857   1.008   3.038  0.00  0.00    -0.167 NA
ATOM      6  H   UNL     1      -1.438   0.996   5.179  0.00  0.00    +0.149 HD
ENDROOT
BRANCH   1  13
ATOM      7  C   UNL     1       0.427   1.348   0.002  0.00  0.00    +0.047 C 
ATOM      8  C   UNL     1       0.564  -0.148   0.121  0.00  0.00    -0.010 A 
ATOM      9  C   UNL     1       0.859  -0.913  -0.987  0.00  0.00    +0.116 A 
ATOM     10  N   UNL     1       0.981  -2.224  -0.891  0.00  0.00    -0.263 NA
ATOM     11  C   UNL     1       0.827  -2.858   0.257  0.00  0.00    +0.112 A 
ATOM     12  C   UNL     1       0.530  -2.167   1.412  0.00  0.00    +0.045 A 
ATOM     13  C   UNL     1       0.398  -0.778   1.356  0.00  0.00    +0.059 A 
ENDBRANCH   1  13
BRANCH   4  14
ATOM     14  C   UNL     1       0.882   2.621   4.903  0.00  0.00    +0.048 C 
ATOM     15  C   UNL     1       2.393   2.700   4.674  0.00  0.00    +0.015 C 
ATOM     16  C   UNL     1       0.230   3.933   4.462  0.00  0.00    +0.015 C 
ENDBRANCH   4  14
BRANCH   2  17
ATOM     17  C   UNL     1      -1.049  -1.612   4.014  0.00  0.00    +0.078 C 
BRANCH  17  18
ATOM     18  C   UNL     1      -2.240  -1.760   4.925  0.00  0.00    -0.018 C 
ATOM     19  C   UNL     1      -2.294  -1.573   6.246  0.00  0.00    +0.062 C 
ATOM     20  N   UNL     1      -3.541  -1.801   6.713  0.00  0.00    -0.159 NA
ATOM     21  N   UNL     1      -4.359  -2.127   5.849  0.00  0.00    -0.180 NA
ATOM     22  C   UNL     1      -3.660  -2.149   4.553  0.00  0.00    +0.153 C 
ATOM     23  C   UNL     1      -3.695  -3.553   3.946  0.00  0.00    +0.039 C 
ATOM     24  C   UNL     1      -1.122  -1.163   7.100  0.00  0.00    +0.067 C 
ENDBRANCH  17  18
ENDBRANCH   2  17
TORSDOF 4
