REMARK  Name = ZINC15818366
REMARK  9 active torsions:
REMARK  status: ('A' for Active; 'I' for Inactive)
REMARK    1  A    between atoms: C_1  and  C_2
REMARK    2  A    between atoms: C_5  and  O_28
REMARK    3  A    between atoms: C_6  and  C_8
REMARK    4  A    between atoms: C_8  and  C_10
REMARK    5  A    between atoms: C_8  and  N_11
REMARK    6  A    between atoms: C_12  and  C_14
REMARK    7  A    between atoms: C_14  and  N_15
REMARK    8  A    between atoms: C_21  and  C_24
REMARK    9  A    between atoms: O_28  and  C_29
REMARK                            x       y       z     vdW  Elec       q    Type
REMARK                         _______ _______ _______ _____ _____    ______ ____
ROOT
ATOM      1  N   UNL     1      -0.537  -2.013   3.548  0.00  0.00    -0.307 N 
ATOM      2  C   UNL     1      -1.091  -2.594   4.631  0.00  0.00    +0.231 C 
ATOM      3  O   UNL     1      -1.101  -3.803   4.732  0.00  0.00    -0.274 OA
ATOM      4  H   UNL     1      -0.529  -1.046   3.468  0.00  0.00    +0.149 HD
ENDROOT
BRANCH   1   5
ATOM      5  C   UNL     1       0.052  -2.841   2.493  0.00  0.00    +0.104 C 
ATOM      6  C   UNL     1       1.496  -3.187   2.864  0.00  0.00    +0.033 C 
BRANCH   5  12
ATOM      7  C   UNL     1      -0.018   1.503   0.010  0.00  0.00    +0.044 C 
ATOM      8  C   UNL     1       0.002  -0.004   0.002  0.00  0.00    -0.050 A 
ATOM      9  C   UNL     1       0.006  -0.688  -1.200  0.00  0.00    +0.007 A 
ATOM     10  C   UNL     1       0.024  -2.069  -1.210  0.00  0.00    +0.046 A 
ATOM     11  C   UNL     1       0.039  -2.770  -0.013  0.00  0.00    +0.125 A 
ATOM     12  C   UNL     1       0.036  -2.082   1.191  0.00  0.00    +0.014 A 
ATOM     13  C   UNL     1       0.023  -0.701   1.196  0.00  0.00    +0.012 A 
BRANCH  11  14
ATOM     14  O   UNL     1       0.057  -4.129  -0.021  0.00  0.00    -0.495 OA
ATOM     15  C   UNL     1       0.058  -4.771  -1.298  0.00  0.00    +0.277 C 
ENDBRANCH  11  14
ENDBRANCH   5  12
ENDBRANCH   1   5
BRANCH   2  16
ATOM     16  C   UNL     1      -1.697  -1.742   5.716  0.00  0.00    +0.213 C 
BRANCH  16  17
ATOM     17  N   UNL     1      -2.228  -2.605   6.775  0.00  0.00    -0.215 N 
ATOM     18  C   UNL     1      -3.486  -3.091   6.797  0.00  0.00    +0.247 C 
ATOM     19  O   UNL     1      -4.360  -2.905   5.977  0.00  0.00    -0.273 OA
ATOM     20  C   UNL     1      -3.578  -3.917   8.059  0.00  0.00    +0.113 C 
ATOM     21  C   UNL     1      -3.881  -5.373   7.721  0.00  0.00    +0.035 C 
ATOM     22  C   UNL     1      -3.938  -6.197   9.010  0.00  0.00    +0.006 C 
ATOM     23  C   UNL     1      -5.025  -5.632   9.927  0.00  0.00    -0.014 C 
ATOM     24  C   UNL     1      -4.695  -4.179  10.276  0.00  0.00    +0.006 C 
ATOM     25  C   UNL     1      -4.640  -3.347   8.992  0.00  0.00    +0.035 C 
ATOM     26  C   UNL     1      -5.092  -6.462  11.210  0.00  0.00    +0.007 C 
ATOM     27  N   UNL     1      -2.244  -3.796   8.662  0.00  0.00    -0.285 N 
ATOM     28  C   UNL     1      -1.523  -3.013   7.837  0.00  0.00    +0.310 C 
ATOM     29  O   UNL     1      -0.363  -2.709   8.035  0.00  0.00    -0.252 OA
ATOM     30  H   UNL     1      -1.942  -4.201   9.490  0.00  0.00    +0.151 HD
ENDBRANCH  16  17
ENDBRANCH   2  16
TORSDOF 5
