REMARK  Name = ZINC36348257
REMARK  3 active torsions:
REMARK  status: ('A' for Active; 'I' for Inactive)
REMARK    1  A    between atoms: C_3  and  C_8
REMARK    2  A    between atoms: N_18  and  C_19
REMARK    3  A    between atoms: C_19  and  C_20
REMARK                            x       y       z     vdW  Elec       q    Type
REMARK                         _______ _______ _______ _____ _____    ______ ____
ROOT
ATOM      1  C   UNL     1       3.671   2.109  -0.064  0.00  0.00    +0.011 C 
ATOM      2  C   UNL     1       4.319   2.042  -1.425  0.00  0.00    +0.009 A 
ATOM      3  C   UNL     1       3.681   1.918  -2.605  0.00  0.00    +0.021 A 
ATOM      4  C   UNL     1       4.662   1.911  -3.617  0.00  0.00    +0.019 A 
ATOM      5  C   UNL     1       5.864   2.027  -3.016  0.00  0.00    +0.086 A 
ATOM      6  N   UNL     1       5.661   2.099  -1.671  0.00  0.00    -0.352 N 
ATOM      7  C   UNL     1       6.698   2.206  -0.638  0.00  0.00    +0.119 C 
ATOM      8  C   UNL     1       6.292   3.290   0.364  0.00  0.00    +0.003 C 
ATOM      9  C   UNL     1       5.436   2.678   1.466  0.00  0.00    -0.075 C 
ATOM     10  N   UNL     1       4.605   1.590   0.945  0.00  0.00    +0.391 N 
ATOM     11  H   UNL     1       5.197   0.890   0.524  0.00  0.00    -0.080 HD
ENDROOT
BRANCH   1  14
ATOM     12  C   UNL     1       1.338  -0.850  -0.302  0.00  0.00    +0.003 A 
ATOM     13  C   UNL     1       2.489  -0.084  -0.303  0.00  0.00    +0.002 A 
ATOM     14  C   UNL     1       2.415   1.275  -0.063  0.00  0.00    -0.053 A 
ATOM     15  C   UNL     1       1.191   1.870   0.179  0.00  0.00    +0.040 A 
ATOM     16  C   UNL     1       0.038   1.104   0.180  0.00  0.00    +0.124 A 
ATOM     17  C   UNL     1       0.113  -0.258  -0.061  0.00  0.00    +0.038 A 
ATOM     18  F   UNL     1      -1.159   1.684   0.417  0.00  0.00    -0.205 F 
ENDBRANCH   1  14
BRANCH  10  19
ATOM     19  C   UNL     1       3.846   0.986   2.047  0.00  0.00    -0.039 C 
BRANCH  19  20
ATOM     20  C   UNL     1       4.801   0.374   3.039  0.00  0.00    -0.026 A 
ATOM     21  C   UNL     1       5.042  -0.987   3.019  0.00  0.00    +0.043 A 
ATOM     22  C   UNL     1       5.920  -1.548   3.930  0.00  0.00    +0.124 A 
ATOM     23  C   UNL     1       6.557  -0.746   4.862  0.00  0.00    +0.041 A 
ATOM     24  C   UNL     1       6.317   0.614   4.882  0.00  0.00    +0.041 A 
ATOM     25  C   UNL     1       5.443   1.177   3.967  0.00  0.00    +0.125 A 
ATOM     26  F   UNL     1       5.212   2.508   3.984  0.00  0.00    -0.205 F 
ATOM     27  F   UNL     1       6.154  -2.878   3.911  0.00  0.00    -0.205 F 
ENDBRANCH  19  20
ENDBRANCH  10  19
TORSDOF 3
