REMARK  Name = ZINC64354246
REMARK  4 active torsions:
REMARK  status: ('A' for Active; 'I' for Inactive)
REMARK    1  A    between atoms: C_1  and  C_2
REMARK    2  A    between atoms: C_5  and  C_9
REMARK    3  A    between atoms: C_9  and  C_10
REMARK    4  A    between atoms: C_16  and  C_18
REMARK                            x       y       z     vdW  Elec       q    Type
REMARK                         _______ _______ _______ _____ _____    ______ ____
ROOT
ATOM      1  C   UNL     1       1.487  -4.760  -0.033  0.00  0.00    +0.015 A 
ATOM      2  C   UNL     1       2.309  -5.049   1.006  0.00  0.00    +0.124 A 
ATOM      3  N   UNL     1       3.529  -5.459   0.709  0.00  0.00    -0.233 NA
ATOM      4  C   UNL     1       3.920  -5.579  -0.541  0.00  0.00    +0.165 A 
ATOM      5  S   UNL     1       2.558  -5.117  -1.415  0.00  0.00    -0.057 S 
ATOM      6  N   UNL     1       5.157  -5.992  -1.023  0.00  0.00    -0.264 N 
ATOM      7  C   UNL     1       6.136  -6.332  -0.161  0.00  0.00    +0.232 C 
ATOM      8  O   UNL     1       5.939  -6.278   1.034  0.00  0.00    -0.274 OA
ATOM      9  H   UNL     1       5.315  -6.036  -1.979  0.00  0.00    +0.157 HD
ENDROOT
BRANCH   7  10
ATOM     10  C   UNL     1       7.477  -6.780  -0.683  0.00  0.00    +0.151 C 
ATOM     11  C   UNL     1       8.391  -7.010   0.505  0.00  0.00    -0.007 C 
ATOM     12  C   UNL     1       8.922  -8.233   0.646  0.00  0.00    +0.014 C 
ATOM     13  C   UNL     1       8.639  -9.260  -0.276  0.00  0.00    +0.098 C 
ATOM     14  N   UNL     1       7.861  -9.118  -1.313  0.00  0.00    -0.218 NA
ATOM     15  C   UNL     1       7.250  -7.963  -1.603  0.00  0.00    +0.090 C 
ATOM     16  S   UNL     1       6.238  -7.827  -2.977  0.00  0.00    -0.037 S 
ENDBRANCH   7  10
BRANCH   1  17
ATOM     17  C   UNL     1       0.060  -4.276  -0.023  0.00  0.00    +0.079 C 
BRANCH  17  22
ATOM     18  C   UNL     1      -0.018   1.503   0.010  0.00  0.00    +0.045 C 
ATOM     19  C   UNL     1       0.002  -0.004   0.002  0.00  0.00    -0.032 A 
ATOM     20  C   UNL     1       0.006  -0.689  -1.199  0.00  0.00    +0.005 A 
ATOM     21  C   UNL     1       0.025  -2.071  -1.207  0.00  0.00    +0.004 A 
ATOM     22  C   UNL     1       0.040  -2.769  -0.013  0.00  0.00    -0.041 A 
ATOM     23  C   UNL     1       0.036  -2.086   1.188  0.00  0.00    +0.024 A 
ATOM     24  C   UNL     1       0.023  -0.702   1.196  0.00  0.00    +0.044 A 
ATOM     25 CL   UNL     1       0.025   0.157   2.704  0.00  0.00    -0.083 Cl
ENDBRANCH  17  22
ENDBRANCH   1  17
TORSDOF 3
