REMARK  Name = ZINC14186720
REMARK  5 active torsions:
REMARK  status: ('A' for Active; 'I' for Inactive)
REMARK    1  A    between atoms: C_4  and  O_7
REMARK    2  A    between atoms: O_7  and  C_8
REMARK    3  A    between atoms: C_13  and  C_14
REMARK    4  A    between atoms: N_16  and  N_17
REMARK    5  A    between atoms: C_18  and  C_20
REMARK                            x       y       z     vdW  Elec       q    Type
REMARK                         _______ _______ _______ _____ _____    ______ ____
ROOT
ATOM      1  C   UNL     1      -3.951   2.178   5.427  0.00  0.00    +0.264 C 
ATOM      2  O   UNL     1      -3.221   1.288   5.818  0.00  0.00    -0.269 OA
ATOM      3  N   UNL     1      -4.146   2.358   4.106  0.00  0.00    -0.230 N 
ATOM      4  H   UNL     1      -4.728   3.069   3.794  0.00  0.00    +0.173 HD
ENDROOT
BRANCH   1  10
ATOM      5  C   UNL     1      -4.423   2.878   7.774  0.00  0.00    +0.141 A 
ATOM      6  C   UNL     1      -5.061   3.715   8.679  0.00  0.00    +0.047 A 
ATOM      7  C   UNL     1      -5.887   4.723   8.226  0.00  0.00    +0.004 A 
ATOM      8  C   UNL     1      -6.088   4.907   6.867  0.00  0.00    +0.001 A 
ATOM      9  C   UNL     1      -5.458   4.090   5.954  0.00  0.00    +0.017 A 
ATOM     10  C   UNL     1      -4.623   3.062   6.399  0.00  0.00    +0.080 A 
BRANCH   5  11
ATOM     11  O   UNL     1      -3.611   1.887   8.218  0.00  0.00    -0.455 OA
BRANCH  11  15
ATOM     12  C   UNL     1       0.417   2.699   8.578  0.00  0.00    +0.000 A 
ATOM     13  C   UNL     1      -0.050   1.415   8.792  0.00  0.00    +0.004 A 
ATOM     14  C   UNL     1      -1.398   1.141   8.673  0.00  0.00    +0.046 A 
ATOM     15  C   UNL     1      -2.284   2.154   8.337  0.00  0.00    +0.128 A 
ATOM     16  C   UNL     1      -1.812   3.440   8.117  0.00  0.00    +0.046 A 
ATOM     17  C   UNL     1      -0.464   3.711   8.244  0.00  0.00    +0.004 A 
ENDBRANCH  11  15
ENDBRANCH   5  11
ENDBRANCH   1  10
BRANCH   3  18
ATOM     18  N   UNL     1      -3.508   1.520   3.183  0.00  0.00    -0.234 N 
ATOM     19  C   UNL     1      -3.703   1.700   1.862  0.00  0.00    +0.234 C 
ATOM     20  O   UNL     1      -4.431   2.588   1.472  0.00  0.00    -0.274 OA
ATOM     21  H   UNL     1      -2.926   0.809   3.495  0.00  0.00    +0.173 HD
BRANCH  19  22
ATOM     22  C   UNL     1      -3.016   0.797   0.869  0.00  0.00    +0.099 C 
ATOM     23  C   UNL     1      -1.492   0.906   1.049  0.00  0.00    +0.037 C 
ATOM     24  C   UNL     1      -0.811   0.224  -0.172  0.00  0.00    +0.166 C 
ATOM     25  S   UNL     1      -1.903   0.806  -1.537  0.00  0.00    -0.030 S 
ATOM     26  O   UNL     1      -1.362   2.002  -2.083  0.00  0.00    -0.174 OA
ATOM     27  O   UNL     1      -2.191  -0.287  -2.397  0.00  0.00    -0.174 OA
ATOM     28  C   UNL     1      -3.410   1.220  -0.567  0.00  0.00    +0.178 C 
ENDBRANCH  19  22
ENDBRANCH   3  18
TORSDOF 5
