REMARK  Name = ZINC21526511
REMARK  6 active torsions:
REMARK  status: ('A' for Active; 'I' for Inactive)
REMARK    1  A    between atoms: C_1  and  C_2
REMARK    2  A    between atoms: C_5  and  N_9
REMARK    3  A    between atoms: C_6  and  C_8
REMARK    4  A    between atoms: C_18  and  C_19
REMARK    5  A    between atoms: C_18  and  C_20
REMARK    6  A    between atoms: N_22  and  C_23
REMARK                            x       y       z     vdW  Elec       q    Type
REMARK                         _______ _______ _______ _____ _____    ______ ____
ROOT
ATOM      1  N   UNL     1       0.780  -4.434   0.097  0.00  0.00    -0.250 N 
ATOM      2  C   UNL     1      -0.111  -3.424  -0.035  0.00  0.00    +0.268 C 
ATOM      3  O   UNL     1      -1.310  -3.628  -0.072  0.00  0.00    -0.268 OA
ATOM      4  C   UNL     1       0.446  -2.070  -0.132  0.00  0.00    +0.109 A 
ATOM      5  C   UNL     1      -0.168  -0.852  -0.090  0.00  0.00    +0.079 A 
ATOM      6  C   UNL     1       0.830   0.127  -0.206  0.00  0.00    +0.153 A 
ATOM      7  C   UNL     1       2.055  -0.531  -0.323  0.00  0.00    +0.088 A 
ATOM      8  N   UNL     1       1.816  -1.871  -0.286  0.00  0.00    -0.331 N 
ATOM      9  C   UNL     1       2.748  -2.998  -0.394  0.00  0.00    +0.158 C 
ATOM     10  C   UNL     1       2.189  -4.188   0.383  0.00  0.00    +0.133 C 
ATOM     11  C   UNL     1       2.349  -3.920   1.881  0.00  0.00    +0.044 C 
ATOM     12  C   UNL     1       3.036   0.484  -0.431  0.00  0.00    +0.067 A 
ATOM     13  C   UNL     1       2.396   1.665  -0.382  0.00  0.00    +0.198 A 
ATOM     14  O   UNL     1       1.076   1.454  -0.249  0.00  0.00    -0.461 OA
ENDROOT
BRANCH   1  19
ATOM     15  C   UNL     1      -1.016  -9.783  -0.485  0.00  0.00    +0.044 C 
ATOM     16  C   UNL     1      -0.538  -8.362  -0.331  0.00  0.00    -0.050 A 
ATOM     17  C   UNL     1      -0.547  -7.763   0.916  0.00  0.00    +0.005 A 
ATOM     18  C   UNL     1      -0.106  -6.463   1.062  0.00  0.00    +0.024 A 
ATOM     19  C   UNL     1       0.338  -5.753  -0.047  0.00  0.00    +0.041 A 
ATOM     20  C   UNL     1       0.345  -6.357  -1.297  0.00  0.00    -0.029 A 
ATOM     21  C   UNL     1      -0.093  -7.660  -1.435  0.00  0.00    +0.008 A 
ATOM     22  C   UNL     1       0.830  -5.593  -2.502  0.00  0.00    +0.045 C 
ENDBRANCH   1  19
BRANCH  10  23
ATOM     23  C   UNL     1       2.981  -5.418   0.022  0.00  0.00    +0.239 C 
ATOM     24  O   UNL     1       3.751  -5.391  -0.914  0.00  0.00    -0.273 OA
ATOM     25  N   UNL     1       2.834  -6.549   0.741  0.00  0.00    -0.311 N 
ATOM     26  H   UNL     1       2.076  -6.601   1.535  0.00  0.00    +0.149 HD
BRANCH  25  27
ATOM     27  C   UNL     1       3.685  -7.709   0.463  0.00  0.00    +0.073 C 
ATOM     28  C   UNL     1       3.077  -8.505  -0.710  0.00  0.00    +0.022 C 
ATOM     29  C   UNL     1       4.159  -9.355  -1.322  0.00  0.00    +0.002 C 
ATOM     30  C   UNL     1       4.181 -10.783  -0.742  0.00  0.00    +0.000 C 
ATOM     31  C   UNL     1       3.975 -10.811   0.784  0.00  0.00    +0.000 C 
ATOM     32  C   UNL     1       4.737  -9.722   1.489  0.00  0.00    +0.002 C 
ATOM     33  C   UNL     1       3.800  -8.510   1.673  0.00  0.00    +0.022 C 
ENDBRANCH  25  27
ENDBRANCH  10  23
TORSDOF 3
