REMARK  Name = ZINC41606374
REMARK  10 active torsions:
REMARK  status: ('A' for Active; 'I' for Inactive)
REMARK    1  A    between atoms: C_1  and  C_2
REMARK    2  A    between atoms: C_2  and  N_3
REMARK    3  A    between atoms: N_3  and  C_4
REMARK    4  A    between atoms: N_3  and  C_6
REMARK    5  A    between atoms: C_4  and  C_5
REMARK    6  A    between atoms: C_6  and  C_8
REMARK    7  A    between atoms: C_6  and  C_9
REMARK    8  A    between atoms: C_9  and  N_10
REMARK    9  A    between atoms: C_11  and  C_13
REMARK   10  A    between atoms: N_15  and  C_16
REMARK                            x       y       z     vdW  Elec       q    Type
REMARK                         _______ _______ _______ _____ _____    ______ ____
ROOT
ATOM      1  C   UNL     1       2.765  -1.706   2.565  0.00  0.00    +0.303 C 
ATOM      2  O   UNL     1       3.105  -0.756   1.890  0.00  0.00    -0.265 OA
ATOM      3  N   UNL     1       3.590  -2.187   3.515  0.00  0.00    -0.278 N 
ATOM      4  H   UNL     1       3.361  -3.002   3.990  0.00  0.00    +0.155 HD
ENDROOT
BRANCH   3   5
ATOM      5  C   UNL     1       4.777  -1.512   3.818  0.00  0.00    +0.038 A 
ATOM      6  C   UNL     1       5.904  -2.227   4.206  0.00  0.00    +0.027 A 
ATOM      7  C   UNL     1       7.076  -1.561   4.505  0.00  0.00    +0.051 A 
ATOM      8  C   UNL     1       7.133  -0.179   4.419  0.00  0.00    +0.167 A 
ATOM      9  C   UNL     1       6.005   0.541   4.031  0.00  0.00    +0.169 A 
ATOM     10  C   UNL     1       4.831  -0.127   3.726  0.00  0.00    +0.073 A 
ATOM     11  O   UNL     1       6.316   1.871   4.024  0.00  0.00    -0.447 OA
ATOM     12  C   UNL     1       7.525   1.984   4.788  0.00  0.00    +0.254 C 
ATOM     13  O   UNL     1       8.152   0.700   4.655  0.00  0.00    -0.448 OA
ATOM     14  C   UNL     1       7.204   2.270   6.251  0.00  0.00    +0.093 C 
ATOM     15  C   UNL     1       6.501   3.625   6.363  0.00  0.00    +0.008 C 
ATOM     16  C   UNL     1       7.411   4.719   5.801  0.00  0.00    +0.000 C 
ATOM     17  C   UNL     1       7.712   4.429   4.329  0.00  0.00    +0.008 C 
ATOM     18  C   UNL     1       8.418   3.076   4.210  0.00  0.00    +0.093 C 
ENDBRANCH   3   5
BRANCH   1  20
ATOM     19  N   UNL     1       0.608  -1.862   1.389  0.00  0.00    -0.309 N 
ATOM     20  C   UNL     1       1.433  -2.343   2.340  0.00  0.00    +0.299 C 
ATOM     21  O   UNL     1       1.093  -3.293   3.014  0.00  0.00    -0.265 OA
ATOM     22  H   UNL     1       0.879  -1.102   0.851  0.00  0.00    +0.149 HD
BRANCH  19  23
ATOM     23  C   UNL     1      -0.699  -2.486   1.169  0.00  0.00    +0.089 C 
BRANCH  23  24
ATOM     24  C   UNL     1      -1.532  -1.609   0.233  0.00  0.00    -0.054 C 
ATOM     25  C   UNL     1      -2.636  -2.453  -0.408  0.00  0.00    -0.012 C 
BRANCH  24  26
ATOM     26  N   UNL     1      -2.137  -0.512   0.999  0.00  0.00    +0.382 N 
ATOM     27  H   UNL     1      -2.789  -0.012   0.413  0.00  0.00    -0.081 HD
BRANCH  26  29
ATOM     28  C   UNL     1      -3.649   0.052   2.841  0.00  0.00    -0.017 C 
ATOM     29  C   UNL     1      -2.846  -1.060   2.163  0.00  0.00    -0.082 C 
ENDBRANCH  26  29
BRANCH  26  30
ATOM     30  C   UNL     1      -1.085   0.406   1.455  0.00  0.00    -0.082 C 
ATOM     31  C   UNL     1      -0.352   0.983   0.242  0.00  0.00    -0.017 C 
ENDBRANCH  26  30
ENDBRANCH  24  26
ENDBRANCH  23  24
ENDBRANCH  19  23
ENDBRANCH   1  20
TORSDOF 7
