REMARK  Name = ZINC65237692
REMARK  4 active torsions:
REMARK  status: ('A' for Active; 'I' for Inactive)
REMARK    1  A    between atoms: C_1  and  C_2
REMARK    2  A    between atoms: C_2  and  C_4
REMARK    3  A    between atoms: C_2  and  N_10
REMARK    4  A    between atoms: C_11  and  C_13
REMARK                            x       y       z     vdW  Elec       q    Type
REMARK                         _______ _______ _______ _____ _____    ______ ____
ROOT
ATOM      1  C   UNL     1      -3.424  -1.149  -1.134  0.00  0.00    +0.153 C 
ATOM      2  N   UNL     1      -4.105  -1.501  -0.081  0.00  0.00    -0.166 NA
ATOM      3  N   UNL     1      -5.383  -1.963  -0.418  0.00  0.00    -0.184 N 
ATOM      4  N   UNL     1      -5.454  -2.120  -1.796  0.00  0.00    -0.218 N 
ATOM      5  C   UNL     1      -4.307  -1.351  -2.341  0.00  0.00    +0.236 C 
ATOM      6  C   UNL     1      -3.644  -2.232  -3.369  0.00  0.00    +0.246 C 
ATOM      7  O   UNL     1      -2.463  -2.094  -3.610  0.00  0.00    -0.273 OA
ATOM      8  N   UNL     1      -4.357  -3.172  -4.022  0.00  0.00    -0.282 N 
ATOM      9  C   UNL     1      -5.720  -3.380  -3.783  0.00  0.00    +0.056 A 
ATOM     10  C   UNL     1      -6.299  -2.857  -2.617  0.00  0.00    +0.071 A 
ATOM     11  C   UNL     1      -7.633  -3.067  -2.346  0.00  0.00    +0.026 A 
ATOM     12  C   UNL     1      -8.406  -3.800  -3.231  0.00  0.00    +0.002 A 
ATOM     13  C   UNL     1      -7.840  -4.318  -4.381  0.00  0.00    +0.002 A 
ATOM     14  C   UNL     1      -6.505  -4.101  -4.665  0.00  0.00    +0.025 A 
ATOM     15  H   UNL     1      -6.102  -2.144   0.208  0.00  0.00    +0.193 HD
ATOM     16  H   UNL     1      -3.909  -3.723  -4.683  0.00  0.00    +0.155 HD
ENDROOT
BRANCH   1  18
ATOM     17  N   UNL     1      -1.372  -0.511   0.012  0.00  0.00    -0.304 N 
ATOM     18  C   UNL     1      -2.051  -0.643  -1.145  0.00  0.00    +0.263 C 
ATOM     19  O   UNL     1      -1.522  -0.340  -2.198  0.00  0.00    -0.269 OA
ATOM     20  H   UNL     1      -1.794  -0.752   0.852  0.00  0.00    +0.150 HD
BRANCH  17  22
ATOM     21  C   UNL     1      -0.019   1.526   0.010  0.00  0.00    +0.033 C 
ATOM     22  C   UNL     1       0.002  -0.004   0.002  0.00  0.00    +0.100 C 
BRANCH  22  23
ATOM     23  C   UNL     1       0.731  -0.503   1.223  0.00  0.00    -0.027 A 
ATOM     24  C   UNL     1       0.081  -0.558   2.442  0.00  0.00    +0.005 A 
ATOM     25  C   UNL     1       0.749  -1.016   3.562  0.00  0.00    +0.000 A 
ATOM     26  C   UNL     1       2.068  -1.420   3.463  0.00  0.00    +0.000 A 
ATOM     27  C   UNL     1       2.718  -1.365   2.244  0.00  0.00    +0.000 A 
ATOM     28  C   UNL     1       2.048  -0.911   1.123  0.00  0.00    +0.005 A 
ENDBRANCH  22  23
ENDBRANCH  17  22
ENDBRANCH   1  18
TORSDOF 3
