REMARK  Name = ZINC38547499
REMARK  6 active torsions:
REMARK  status: ('A' for Active; 'I' for Inactive)
REMARK    1  A    between atoms: C_1  and  C_2
REMARK    2  A    between atoms: N_8  and  C_9
REMARK    3  A    between atoms: C_9  and  C_11
REMARK    4  A    between atoms: C_9  and  C_16
REMARK    5  A    between atoms: C_20  and  N_21
REMARK    6  A    between atoms: C_22  and  C_24
REMARK                            x       y       z     vdW  Elec       q    Type
REMARK                         _______ _______ _______ _____ _____    ______ ____
ROOT
ATOM      1  C   UNL     1      -0.642  -2.995   4.645  0.00  0.00    +0.010 A 
ATOM      2  C   UNL     1      -1.652  -2.451   5.439  0.00  0.00    -0.030 A 
ATOM      3  C   UNL     1      -2.235  -3.287   6.340  0.00  0.00    -0.005 A 
ATOM      4  S   UNL     1      -1.395  -4.829   6.097  0.00  0.00    -0.078 S 
ATOM      5  C   UNL     1      -0.294  -4.301   4.793  0.00  0.00    +0.078 A 
ATOM      6  C   UNL     1      -3.329  -2.964   7.306  0.00  0.00    +0.043 C 
ATOM      7  C   UNL     1      -3.461  -1.436   7.394  0.00  0.00    +0.005 C 
ATOM      8  C   UNL     1      -3.486  -0.864   5.974  0.00  0.00    +0.005 C 
ATOM      9  C   UNL     1      -2.106  -0.998   5.330  0.00  0.00    +0.036 C 
ENDROOT
BRANCH   5  10
ATOM     10  N   UNL     1       0.672  -5.038   4.105  0.00  0.00    -0.276 N 
ATOM     11  C   UNL     1       0.803  -6.359   4.336  0.00  0.00    +0.249 C 
ATOM     12  O   UNL     1       0.080  -6.910   5.144  0.00  0.00    -0.270 OA
ATOM     13  H   UNL     1       1.249  -4.599   3.461  0.00  0.00    +0.156 HD
BRANCH  11  14
ATOM     14  C   UNL     1       1.826  -7.139   3.608  0.00  0.00    +0.037 A 
ATOM     15  C   UNL     1       2.663  -6.509   2.685  0.00  0.00    +0.013 A 
ATOM     16  C   UNL     1       3.616  -7.243   2.010  0.00  0.00    +0.001 A 
ATOM     17  C   UNL     1       3.744  -8.600   2.245  0.00  0.00    +0.000 A 
ATOM     18  C   UNL     1       2.918  -9.231   3.159  0.00  0.00    +0.001 A 
ATOM     19  C   UNL     1       1.965  -8.508   3.845  0.00  0.00    +0.013 A 
ENDBRANCH  11  14
ENDBRANCH   5  10
BRANCH   1  20
ATOM     20  C   UNL     1       0.058  -2.139   3.621  0.00  0.00    +0.141 C 
BRANCH  20  28
ATOM     21  C   UNL     1       0.861   1.387  -0.010  0.00  0.00    +0.044 C 
ATOM     22  C   UNL     1       0.711  -0.112   0.006  0.00  0.00    -0.046 A 
ATOM     23  C   UNL     1       0.785  -0.846  -1.171  0.00  0.00    +0.021 A 
ATOM     24  C   UNL     1       0.644  -2.218  -1.123  0.00  0.00    +0.084 A 
ATOM     25  N   UNL     1       0.439  -2.837   0.025  0.00  0.00    -0.350 N 
ATOM     26  C   UNL     1       0.362  -2.174   1.167  0.00  0.00    +0.097 A 
ATOM     27  C   UNL     1       0.501  -0.789   1.193  0.00  0.00    +0.045 A 
ATOM     28  N   UNL     1       0.145  -2.866   2.353  0.00  0.00    -0.319 N 
ATOM     29  H   UNL     1       0.051  -3.832   2.340  0.00  0.00    +0.148 HD
ATOM     30  H   UNL     1       0.343  -3.803   0.030  0.00  0.00    +0.166 HD
ENDBRANCH  20  28
BRANCH  20  31
ATOM     31  C   UNL     1       1.445  -1.808   4.107  0.00  0.00    +0.014 A 
ATOM     32  C   UNL     1       1.895  -0.674   4.698  0.00  0.00    +0.013 A 
ATOM     33  C   UNL     1       3.225  -0.592   5.065  0.00  0.00    +0.008 A 
ATOM     34  C   UNL     1       4.040  -1.647   4.824  0.00  0.00    +0.045 A 
ATOM     35  S   UNL     1       2.921  -2.811   4.060  0.00  0.00    -0.099 S 
ENDBRANCH  20  31
ENDBRANCH   1  20
TORSDOF 5
