REMARK  Name = ZINC00744672
REMARK  11 active torsions:
REMARK  status: ('A' for Active; 'I' for Inactive)
REMARK    1  A    between atoms: C_1  and  C_2
REMARK    2  A    between atoms: C_2  and  C_3
REMARK    3  A    between atoms: C_2  and  C_4
REMARK    4  A    between atoms: N_6  and  C_7
REMARK    5  A    between atoms: N_6  and  C_24
REMARK    6  A    between atoms: C_7  and  C_8
REMARK    7  A    between atoms: C_8  and  N_9
REMARK    8  A    between atoms: C_15  and  C_17
REMARK    9  A    between atoms: C_24  and  C_25
REMARK   10  A    between atoms: C_33  and  C_34
REMARK   11  A    between atoms: C_33  and  C_35
REMARK                            x       y       z     vdW  Elec       q    Type
REMARK                         _______ _______ _______ _____ _____    ______ ____
ROOT
ATOM      1  C   UNL     1      -7.522   4.342  -1.833  0.00  0.00    +0.123 C 
ENDROOT
BRANCH   1   4
ATOM      2  C   UNL     1      -9.666   5.493  -1.967  0.00  0.00    +0.218 C 
ATOM      3  O   UNL     1      -9.706   5.501  -0.755  0.00  0.00    -0.275 OA
ATOM      4  N   UNL     1      -8.595   4.976  -2.603  0.00  0.00    -0.296 N 
BRANCH   2   6
ATOM      5  C   UNL     1     -12.058   6.138  -1.878  0.00  0.00    +0.017 C 
ATOM      6  C   UNL     1     -10.812   6.061  -2.763  0.00  0.00    +0.069 C 
ATOM      7  C   UNL     1     -10.447   7.463  -3.253  0.00  0.00    +0.017 C 
ENDBRANCH   2   6
BRANCH   4   8
ATOM      8  C   UNL     1      -8.505   5.048  -4.063  0.00  0.00    +0.138 C 
BRANCH   8   9
ATOM      9  C   UNL     1      -9.048   3.776  -4.663  0.00  0.00    -0.053 C 
ATOM     10  C   UNL     1     -10.294   3.690  -5.067  0.00  0.00    -0.025 C 
ATOM     11  C   UNL     1     -10.824   2.369  -5.615  0.00  0.00    +0.031 C 
ATOM     12  C   UNL     1      -9.663   1.369  -5.704  0.00  0.00    -0.000 C 
ATOM     13  C   UNL     1      -8.917   1.273  -4.357  0.00  0.00    +0.012 C 
ATOM     14  C   UNL     1      -8.176   2.542  -4.818  0.00  0.00    +0.022 C 
ATOM     15  C   UNL     1      -8.343   1.995  -6.257  0.00  0.00    -0.025 C 
ATOM     16  C   UNL     1      -8.547   3.083  -7.314  0.00  0.00    +0.012 C 
ATOM     17  C   UNL     1      -7.287   0.962  -6.654  0.00  0.00    +0.012 C 
ENDBRANCH   8   9
ENDBRANCH   4   8
ENDBRANCH   1   4
BRANCH   1  18
ATOM     18  C   UNL     1      -7.824   2.851  -1.669  0.00  0.00    +0.103 C 
BRANCH  18  19
ATOM     19  N   UNL     1      -6.748   2.216  -0.897  0.00  0.00    -0.298 NA
ATOM     20  C   UNL     1      -7.112   0.844  -0.516  0.00  0.00    +0.103 C 
ATOM     21  C   UNL     1      -6.050   0.283   0.435  0.00  0.00    +0.123 C 
ATOM     22  N   UNL     1      -4.732   0.421  -0.203  0.00  0.00    -0.295 N 
ATOM     23  C   UNL     1      -4.349   1.740  -0.729  0.00  0.00    +0.123 C 
ATOM     24  C   UNL     1      -5.480   2.243  -1.639  0.00  0.00    +0.103 C 
ATOM     25  C   UNL     1      -3.895  -0.631  -0.297  0.00  0.00    +0.247 C 
ATOM     26  O   UNL     1      -4.263  -1.734   0.055  0.00  0.00    -0.270 OA
BRANCH  25  27
ATOM     27  C   UNL     1      -2.528  -0.443  -0.829  0.00  0.00    +0.038 A 
ATOM     28  C   UNL     1      -1.916  -1.460  -1.564  0.00  0.00    +0.013 A 
ATOM     29  C   UNL     1      -0.642  -1.276  -2.062  0.00  0.00    +0.002 A 
ATOM     30  C   UNL     1       0.030  -0.089  -1.831  0.00  0.00    +0.015 A 
ATOM     31  C   UNL     1      -0.569   0.921  -1.098  0.00  0.00    +0.019 A 
ATOM     32  C   UNL     1      -1.843   0.750  -0.594  0.00  0.00    +0.028 A 
ATOM     33 BR   UNL     1       0.360   2.539  -0.788  0.00  0.00    -0.050 Br
ENDBRANCH  25  27
ENDBRANCH  18  19
ENDBRANCH   1  18
TORSDOF 7
