REMARK  Name = ZINC59248323
REMARK  7 active torsions:
REMARK  status: ('A' for Active; 'I' for Inactive)
REMARK    1  A    between atoms: C_1  and  C_2
REMARK    2  A    between atoms: C_4  and  C_28
REMARK    3  A    between atoms: C_6  and  N_8
REMARK    4  A    between atoms: C_14  and  C_15
REMARK    5  A    between atoms: C_18  and  O_22
REMARK    6  A    between atoms: O_22  and  C_23
REMARK    7  A    between atoms: C_23  and  C_24
REMARK                            x       y       z     vdW  Elec       q    Type
REMARK                         _______ _______ _______ _____ _____    ______ ____
ROOT
ATOM      1  N   UNL     1       1.140  -3.630   2.022  0.00  0.00    -0.226 NA
ATOM      2  C   UNL     1       1.700  -3.071   3.072  0.00  0.00    +0.166 C 
ATOM      3  N   UNL     1       2.554  -1.991   3.114  0.00  0.00    -0.260 N 
ATOM      4  C   UNL     1       3.030  -1.552   4.266  0.00  0.00    +0.256 C 
ATOM      5  O   UNL     1       3.785  -0.599   4.322  0.00  0.00    -0.269 OA
ATOM      6  C   UNL     1       2.604  -2.271   5.483  0.00  0.00    +0.078 C 
ATOM      7  C   UNL     1       2.934  -2.040   6.779  0.00  0.00    +0.028 C 
ATOM      8  S   UNL     1       1.533  -3.522   4.791  0.00  0.00    -0.049 S 
ATOM      9  H   UNL     1       2.808  -1.548   2.289  0.00  0.00    +0.157 HD
ENDROOT
BRANCH   1  15
ATOM     10  C   UNL     1       1.584   0.212  -0.979  0.00  0.00    +0.044 C 
ATOM     11  C   UNL     1       1.614  -1.273  -0.727  0.00  0.00    -0.048 A 
ATOM     12  C   UNL     1       1.896  -2.144  -1.765  0.00  0.00    +0.006 A 
ATOM     13  C   UNL     1       1.926  -3.509  -1.542  0.00  0.00    -0.048 A 
ATOM     14  C   UNL     1       1.675  -4.012  -0.282  0.00  0.00    +0.031 A 
ATOM     15  C   UNL     1       1.390  -3.139   0.770  0.00  0.00    +0.067 A 
ATOM     16  C   UNL     1       1.366  -1.761   0.539  0.00  0.00    +0.031 A 
ATOM     17  C   UNL     1       2.233  -4.449  -2.679  0.00  0.00    +0.044 C 
ENDBRANCH   1  15
BRANCH   7  18
ATOM     18  C   UNL     1       2.522  -2.988   7.822  0.00  0.00    -0.022 A 
ATOM     19  C   UNL     1       2.108  -4.280   7.473  0.00  0.00    +0.011 A 
ATOM     20  C   UNL     1       1.723  -5.165   8.454  0.00  0.00    +0.048 A 
ATOM     21  C   UNL     1       1.743  -4.780   9.789  0.00  0.00    +0.140 A 
ATOM     22  C   UNL     1       2.152  -3.498  10.142  0.00  0.00    +0.083 A 
ATOM     23  C   UNL     1       2.546  -2.606   9.169  0.00  0.00    +0.031 A 
ATOM     24 CL   UNL     1       2.173  -3.024  11.812  0.00  0.00    -0.080 Cl
BRANCH  21  25
ATOM     25  O   UNL     1       1.361  -5.657  10.753  0.00  0.00    -0.479 OA
BRANCH  25  26
ATOM     26  C   UNL     1       0.952  -6.957  10.322  0.00  0.00    +0.353 C 
BRANCH  26  27
ATOM     27  C   UNL     1       0.568  -7.786  11.520  0.00  0.00    +0.393 C 
ATOM     28  O   UNL     1       0.637  -7.308  12.640  0.00  0.00    -0.243 OA
ATOM     29  O   UNL     1       0.187  -8.934  11.370  0.00  0.00    -0.243 OA
ENDBRANCH  26  27
ENDBRANCH  25  26
ENDBRANCH  21  25
ENDBRANCH   7  18
TORSDOF 5
