REMARK  Name = ZINC41572334
REMARK  5 active torsions:
REMARK  status: ('A' for Active; 'I' for Inactive)
REMARK    1  A    between atoms: C_1  and  C_2
REMARK    2  A    between atoms: C_4  and  C_25
REMARK    3  A    between atoms: C_8  and  N_11
REMARK    4  A    between atoms: N_11  and  S_12
REMARK    5  A    between atoms: S_12  and  C_15
REMARK                            x       y       z     vdW  Elec       q    Type
REMARK                         _______ _______ _______ _____ _____    ______ ____
ROOT
ATOM      1  S   UNL     1       0.019   1.719   4.393  0.00  0.00    +0.092 S 
ATOM      2  O   UNL     1      -1.216   1.321   4.973  0.00  0.00    -0.148 OA
ATOM      3  O   UNL     1       1.275   1.355   4.950  0.00  0.00    -0.148 OA
ENDROOT
BRANCH   1   4
ATOM      4  C   UNL     1      -0.006   3.479   4.314  0.00  0.00    +0.111 A 
ATOM      5  C   UNL     1       1.181   4.188   4.267  0.00  0.00    +0.031 A 
ATOM      6  C   UNL     1       1.169   5.566   4.205  0.00  0.00    +0.025 A 
ATOM      7  C   UNL     1      -0.043   6.254   4.190  0.00  0.00    +0.037 A 
ATOM      8  C   UNL     1      -1.228   5.531   4.238  0.00  0.00    -0.016 A 
ATOM      9  C   UNL     1      -1.213   4.156   4.294  0.00  0.00    +0.034 A 
ATOM     10  C   UNL     1      -2.347   6.547   4.207  0.00  0.00    +0.133 C 
ATOM     11  C   UNL     1      -1.633   7.880   4.137  0.00  0.00    +0.222 C 
ATOM     12  O   UNL     1      -2.153   8.974   4.095  0.00  0.00    -0.275 OA
ATOM     13  N   UNL     1      -0.314   7.622   4.132  0.00  0.00    -0.285 N 
ATOM     14  H   UNL     1       0.371   8.308   4.092  0.00  0.00    +0.155 HD
ENDBRANCH   1   4
BRANCH   1  15
ATOM     15  N   UNL     1       0.013   1.159   2.835  0.00  0.00    -0.097 NA
BRANCH  15  23
ATOM     16  C   UNL     1      -0.018   1.503   0.010  0.00  0.00    +0.044 C 
ATOM     17  C   UNL     1       0.002  -0.004   0.002  0.00  0.00    -0.037 A 
ATOM     18  C   UNL     1       0.006  -0.696  -1.187  0.00  0.00    +0.025 A 
ATOM     19  C   UNL     1       0.025  -2.082  -1.192  0.00  0.00    +0.014 A 
ATOM     20  N   UNL     1       0.040  -2.754  -0.057  0.00  0.00    -0.353 N 
ATOM     21  C   UNL     1       0.037  -2.138   1.103  0.00  0.00    +0.087 A 
ATOM     22  C   UNL     1       0.024  -0.729   1.217  0.00  0.00    +0.033 A 
ATOM     23  C   UNL     1       0.029  -0.226   2.584  0.00  0.00    +0.091 A 
ATOM     24  C   UNL     1       0.051  -1.101   3.603  0.00  0.00    +0.074 A 
ATOM     25  S   UNL     1       0.053  -2.688   2.791  0.00  0.00    -0.077 S 
ATOM     26  C   UNL     1       0.028  -2.826  -2.503  0.00  0.00    +0.063 C 
ATOM     27  H   UNL     1       0.052  -3.724  -0.080  0.00  0.00    +0.166 HD
ENDBRANCH  15  23
ENDBRANCH   1  15
TORSDOF 3
