REMARK  Name = ZINC20999469
REMARK  14 active torsions:
REMARK  status: ('A' for Active; 'I' for Inactive)
REMARK    1  A    between atoms: C_1  and  C_2
REMARK    2  A    between atoms: C_2  and  C_3
REMARK    3  A    between atoms: C_2  and  C_4
REMARK    4  A    between atoms: C_4  and  N_5
REMARK    5  A    between atoms: C_7  and  N_24
REMARK    6  A    between atoms: C_10  and  C_12
REMARK    7  A    between atoms: N_14  and  C_15
REMARK    8  A    between atoms: C_15  and  C_16
REMARK    9  A    between atoms: C_16  and  C_17
REMARK   10  A    between atoms: N_24  and  C_25
REMARK   11  A    between atoms: C_25  and  C_26
REMARK   12  A    between atoms: C_29  and  N_32
REMARK   13  A    between atoms: N_32  and  C_33
REMARK   14  A    between atoms: N_32  and  C_34
REMARK                            x       y       z     vdW  Elec       q    Type
REMARK                         _______ _______ _______ _____ _____    ______ ____
ROOT
ATOM      1  N   UNL     1      -2.264   1.483  -0.012  0.00  0.00    -0.293 NA
ATOM      2  C   UNL     1      -1.974   1.129   1.393  0.00  0.00    +0.069 C 
ATOM      3  C   UNL     1      -0.456   1.407   1.569  0.00  0.00    -0.055 C 
ATOM      4  C   UNL     1       0.100   0.962   0.191  0.00  0.00    +0.014 C 
ATOM      5  C   UNL     1      -1.016   1.378  -0.790  0.00  0.00    +0.142 C 
ENDROOT
BRANCH   5   6
ATOM      6  C   UNL     1      -1.168   0.334  -1.866  0.00  0.00    +0.230 C 
ATOM      7  O   UNL     1      -1.601  -0.765  -1.587  0.00  0.00    -0.274 OA
ATOM      8  N   UNL     1      -0.824   0.620  -3.137  0.00  0.00    -0.314 N 
ATOM      9  H   UNL     1      -0.432   1.616  -3.389  0.00  0.00    +0.149 HD
BRANCH   8  10
ATOM     10  C   UNL     1      -0.973  -0.395  -4.183  0.00  0.00    +0.109 C 
BRANCH  10  11
ATOM     11  C   UNL     1      -0.515   0.183  -5.523  0.00  0.00    +0.056 C 
BRANCH  11  12
ATOM     12  C   UNL     1      -0.668  -0.861  -6.599  0.00  0.00    -0.011 A 
ATOM     13  C   UNL     1      -1.761  -0.828  -7.444  0.00  0.00    +0.006 A 
ATOM     14  C   UNL     1      -1.901  -1.786  -8.431  0.00  0.00    +0.000 A 
ATOM     15  C   UNL     1      -0.948  -2.777  -8.574  0.00  0.00    +0.003 A 
ATOM     16  C   UNL     1       0.146  -2.812  -7.731  0.00  0.00    +0.038 A 
ATOM     17  C   UNL     1       0.289  -1.851  -6.744  0.00  0.00    +0.127 A 
ATOM     18  F   UNL     1       1.361  -1.881  -5.922  0.00  0.00    -0.205 F 
ENDBRANCH  11  12
ENDBRANCH  10  11
ENDBRANCH   8  10
ENDBRANCH   5   6
BRANCH   3  19
ATOM     19  N   UNL     1       0.111   0.594   2.654  0.00  0.00    +0.384 N 
ATOM     20  H   UNL     1      -0.479  -0.328   2.767  0.00  0.00    -0.085 HD
ATOM     21  H   UNL     1       1.152   0.336   2.413  0.00  0.00    -0.085 HD
BRANCH  19  22
ATOM     22  C   UNL     1       0.089   1.327   3.927  0.00  0.00    -0.046 C 
BRANCH  22  23
ATOM     23  C   UNL     1       0.677   0.463   5.013  0.00  0.00    -0.064 A 
ATOM     24  C   UNL     1      -0.143  -0.372   5.750  0.00  0.00    +0.003 A 
ATOM     25  C   UNL     1       0.393  -1.169   6.743  0.00  0.00    +0.023 A 
ATOM     26  C   UNL     1       1.756  -1.124   7.007  0.00  0.00    +0.029 A 
ATOM     27  C   UNL     1       2.576  -0.281   6.268  0.00  0.00    +0.023 A 
ATOM     28  C   UNL     1       2.034   0.510   5.274  0.00  0.00    +0.003 A 
BRANCH  26  29
ATOM     29  N   UNL     1       2.300  -1.925   8.013  0.00  0.00    -0.336 N 
ATOM     30  C   UNL     1       3.715  -1.794   8.368  0.00  0.00    +0.129 C 
ATOM     31  C   UNL     1       1.456  -2.896   8.714  0.00  0.00    +0.129 C 
ENDBRANCH  26  29
ENDBRANCH  22  23
ENDBRANCH  19  22
ENDBRANCH   3  19
BRANCH   1  32
ATOM     32  C   UNL     1      -3.307   0.613  -0.571  0.00  0.00    +0.088 C 
BRANCH  32  34
ATOM     33  C   UNL     1      -5.014   2.435  -0.501  0.00  0.00    +0.008 C 
ATOM     34  C   UNL     1      -4.670   1.027  -0.012  0.00  0.00    -0.003 C 
ATOM     35  C   UNL     1      -5.739   0.044  -0.495  0.00  0.00    +0.008 C 
ENDBRANCH  32  34
ENDBRANCH   1  32
TORSDOF 10
