REMARK  Name = ZINC39560933
REMARK  8 active torsions:
REMARK  status: ('A' for Active; 'I' for Inactive)
REMARK    1  A    between atoms: C_1  and  O_2
REMARK    2  A    between atoms: O_2  and  C_3
REMARK    3  A    between atoms: C_3  and  C_5
REMARK    4  A    between atoms: C_20  and  C_35
REMARK    5  A    between atoms: C_23  and  N_26
REMARK    6  A    between atoms: N_26  and  C_27
REMARK    7  A    between atoms: C_27  and  C_28
REMARK    8  A    between atoms: C_28  and  C_29
REMARK                            x       y       z     vdW  Elec       q    Type
REMARK                         _______ _______ _______ _____ _____    ______ ____
ROOT
ATOM      1  C   UNL     1       0.844  -1.712   0.910  0.00  0.00    +0.172 C 
ATOM      2  C   UNL     1      -0.658  -2.032   0.914  0.00  0.00    +0.067 C 
ATOM      3  C   UNL     1      -1.202  -1.677   2.276  0.00  0.00    -0.017 C 
ATOM      4  C   UNL     1      -2.470  -1.511   2.680  0.00  0.00    -0.013 C 
ATOM      5  C   UNL     1      -3.766  -1.623   1.927  0.00  0.00    +0.064 C 
ATOM      6  C   UNL     1      -4.917  -1.340   2.850  0.00  0.00    -0.022 C 
ATOM      7  C   UNL     1      -4.800  -1.034   4.138  0.00  0.00    -0.002 C 
ATOM      8  C   UNL     1      -3.563  -0.938   4.809  0.00  0.00    +0.028 C 
ATOM      9  C   UNL     1      -2.408  -1.179   4.068  0.00  0.00    +0.068 C 
ATOM     10  N   UNL     1      -1.118  -1.162   4.432  0.00  0.00    -0.250 NA
ATOM     11  C   UNL     1      -0.372  -1.454   3.397  0.00  0.00    +0.063 C 
ATOM     12  C   UNL     1       1.131  -1.562   3.324  0.00  0.00    +0.106 C 
ATOM     13  N   UNL     1       1.479  -2.292   2.097  0.00  0.00    -0.274 NA
ATOM     14  C   UNL     1       2.936  -2.386   1.941  0.00  0.00    +0.090 C 
ATOM     15  C   UNL     1       3.521  -3.177   3.114  0.00  0.00    +0.008 C 
ATOM     16  C   UNL     1       3.169  -2.474   4.428  0.00  0.00    -0.068 C 
ATOM     17  C   UNL     1       1.655  -2.320   4.545  0.00  0.00    +0.009 C 
ENDROOT
BRANCH  14  18
ATOM     18  C   UNL     1       3.259  -3.090   0.648  0.00  0.00    +0.005 A 
ATOM     19  C   UNL     1       4.222  -2.574  -0.198  0.00  0.00    +0.008 A 
ATOM     20  C   UNL     1       4.519  -3.220  -1.384  0.00  0.00    +0.000 A 
ATOM     21  C   UNL     1       3.853  -4.382  -1.724  0.00  0.00    +0.003 A 
ATOM     22  C   UNL     1       2.890  -4.901  -0.880  0.00  0.00    +0.038 A 
ATOM     23  C   UNL     1       2.595  -4.258   0.311  0.00  0.00    +0.128 A 
ATOM     24  F   UNL     1       1.658  -4.766   1.140  0.00  0.00    -0.205 F 
ENDBRANCH  14  18
BRANCH  16  25
ATOM     25  N   UNL     1       3.672  -3.267   5.558  0.00  0.00    +0.381 N 
ATOM     26  H   UNL     1       3.370  -2.847   6.424  0.00  0.00    -0.086 HD
ATOM     27  H   UNL     1       3.312  -4.207   5.496  0.00  0.00    -0.086 HD
BRANCH  25  28
ATOM     28  C   UNL     1       5.141  -3.302   5.517  0.00  0.00    -0.076 C 
BRANCH  28  29
ATOM     29  C   UNL     1       5.664  -4.127   6.694  0.00  0.00    +0.038 C 
BRANCH  29  30
ATOM     30  C   UNL     1       7.170  -4.163   6.651  0.00  0.00    +0.057 A 
ATOM     31  C   UNL     1       7.999  -3.802   7.650  0.00  0.00    +0.107 A 
ATOM     32  N   UNL     1       9.275  -3.990   7.193  0.00  0.00    -0.351 N 
ATOM     33  H   UNL     1      10.094  -3.818   7.684  0.00  0.00    +0.166 HD
ATOM     34  C   UNL     1       9.182  -4.459   5.930  0.00  0.00    +0.196 A 
ATOM     35  N   UNL     1       7.920  -4.565   5.614  0.00  0.00    -0.241 NA
ENDBRANCH  29  30
ENDBRANCH  28  29
ENDBRANCH  25  28
ENDBRANCH  16  25
BRANCH   1  36
ATOM     36  C   UNL     1       1.037  -0.217   0.919  0.00  0.00    +0.325 C 
ATOM     37  O   UNL     1       0.785   0.418   1.915  0.00  0.00    -0.249 OA
BRANCH  36  39
ATOM     38  C   UNL     1       1.648   1.826  -0.100  0.00  0.00    +0.280 C 
ATOM     39  O   UNL     1       1.488   0.408  -0.180  0.00  0.00    -0.467 OA
ENDBRANCH  36  39
ENDBRANCH   1  36
TORSDOF 7
