REMARK  Name = ZINC16046589
REMARK  10 active torsions:
REMARK  status: ('A' for Active; 'I' for Inactive)
REMARK    1  A    between atoms: C_1  and  C_2
REMARK    2  A    between atoms: C_5  and  C_8
REMARK    3  A    between atoms: C_8  and  N_9
REMARK    4  A    between atoms: N_9  and  C_10
REMARK    5  A    between atoms: C_10  and  C_11
REMARK    6  A    between atoms: C_17  and  C_33
REMARK    7  A    between atoms: C_18  and  C_22
REMARK    8  A    between atoms: N_24  and  C_25
REMARK    9  A    between atoms: C_28  and  C_32
REMARK   10  A    between atoms: C_30  and  C_31
REMARK                            x       y       z     vdW  Elec       q    Type
REMARK                         _______ _______ _______ _____ _____    ______ ____
ROOT
ATOM      1  C   UNL     1       7.939  -3.342   0.499  0.00  0.00    +0.125 A 
ATOM      2  N   UNL     1       7.056  -4.370   0.539  0.00  0.00    -0.309 N 
ATOM      3  H   UNL     1       7.420  -5.405   0.625  0.00  0.00    +0.170 HD
ATOM      4  C   UNL     1       5.727  -4.157   0.476  0.00  0.00    +0.260 A 
ATOM      5  O   UNL     1       4.942  -5.088   0.513  0.00  0.00    -0.267 OA
ATOM      6  C   UNL     1       5.246  -2.761   0.360  0.00  0.00    +0.076 A 
ATOM      7  C   UNL     1       3.936  -2.283   0.284  0.00  0.00    -0.017 A 
ATOM      8  C   UNL     1       3.708  -0.942   0.177  0.00  0.00    +0.080 A 
ATOM      9  S   UNL     1       5.357  -0.260   0.188  0.00  0.00    -0.064 S 
ATOM     10  C   UNL     1       6.262  -1.780   0.328  0.00  0.00    +0.116 A 
ATOM     11  N   UNL     1       7.548  -2.101   0.398  0.00  0.00    -0.225 NA
ATOM     12  C   UNL     1       2.777  -3.246   0.317  0.00  0.00    +0.046 C 
ENDROOT
BRANCH   8  13
ATOM     13  C   UNL     1       2.426  -0.237   0.081  0.00  0.00    +0.255 C 
ATOM     14  O   UNL     1       1.384  -0.865   0.088  0.00  0.00    -0.269 OA
ATOM     15  N   UNL     1       2.402   1.107  -0.014  0.00  0.00    -0.281 N 
ATOM     16  H   UNL     1       3.344   1.670  -0.095  0.00  0.00    +0.155 HD
BRANCH  15  17
ATOM     17  C   UNL     1       1.180   1.787  -0.010  0.00  0.00    +0.037 A 
ATOM     18  C   UNL     1       0.064   1.216  -0.608  0.00  0.00    +0.024 A 
ATOM     19  C   UNL     1      -1.140   1.891  -0.607  0.00  0.00    +0.005 A 
ATOM     20  C   UNL     1      -1.238   3.131  -0.002  0.00  0.00    -0.050 A 
ATOM     21  C   UNL     1      -0.130   3.702   0.595  0.00  0.00    +0.008 A 
ATOM     22  C   UNL     1       1.079   3.034   0.592  0.00  0.00    -0.029 A 
ATOM     23  C   UNL     1       2.287   3.657   1.243  0.00  0.00    +0.045 C 
ATOM     24  C   UNL     1      -2.556   3.863   0.003  0.00  0.00    +0.044 C 
ENDBRANCH  15  17
ENDBRANCH   8  13
BRANCH   1  25
ATOM     25  C   UNL     1       9.414  -3.641   0.573  0.00  0.00    +0.156 C 
BRANCH  25  26
ATOM     26  N   UNL     1      10.172  -2.384   0.512  0.00  0.00    -0.305 NA
ATOM     27  H   UNL     1       9.870  -1.748   1.357  0.00  0.00    +0.123 HD
BRANCH  26  28
ATOM     28  C   UNL     1      11.617  -2.637   0.581  0.00  0.00    +0.116 C 
BRANCH  28  33
ATOM     29  C   UNL     1      14.466   2.384   0.329  0.00  0.00    +0.044 C 
ATOM     30  C   UNL     1      13.723   1.075   0.395  0.00  0.00    -0.050 A 
ATOM     31  C   UNL     1      13.339   0.558   1.619  0.00  0.00    +0.003 A 
ATOM     32  C   UNL     1      12.658  -0.643   1.679  0.00  0.00    +0.005 A 
ATOM     33  C   UNL     1      12.360  -1.327   0.516  0.00  0.00    -0.034 A 
ATOM     34  C   UNL     1      12.748  -0.814  -0.708  0.00  0.00    +0.005 A 
ATOM     35  C   UNL     1      13.426   0.390  -0.768  0.00  0.00    +0.003 A 
ENDBRANCH  28  33
ENDBRANCH  26  28
ENDBRANCH  25  26
ENDBRANCH   1  25
TORSDOF 6
