REMARK  Name = ZINC67259781
REMARK  7 active torsions:
REMARK  status: ('A' for Active; 'I' for Inactive)
REMARK    1  A    between atoms: C_1  and  C_2
REMARK    2  A    between atoms: C_4  and  N_11
REMARK    3  A    between atoms: C_7  and  N_8
REMARK    4  A    between atoms: N_8  and  C_9
REMARK    5  A    between atoms: N_8  and  C_10
REMARK    6  A    between atoms: N_14  and  C_15
REMARK    7  A    between atoms: C_15  and  C_16
REMARK                            x       y       z     vdW  Elec       q    Type
REMARK                         _______ _______ _______ _____ _____    ______ ____
ROOT
ATOM      1  N   UNL     1       0.028  -2.770  -2.423  0.00  0.00    -0.269 N 
ATOM      2  C   UNL     1       0.148  -4.113  -2.434  0.00  0.00    +0.304 C 
ATOM      3  O   UNL     1       0.162  -4.730  -1.386  0.00  0.00    -0.252 OA
ATOM      4  N   UNL     1       0.253  -4.771  -3.605  0.00  0.00    -0.295 N 
ATOM      5  H   UNL     1      -0.061  -2.285  -3.259  0.00  0.00    +0.156 HD
ATOM      6  H   UNL     1       0.241  -4.279  -4.441  0.00  0.00    +0.151 HD
ENDROOT
BRANCH   1  10
ATOM      7  C   UNL     1       1.625  -2.362   2.210  0.00  0.00    +0.046 C 
ATOM      8  C   UNL     1       0.798  -1.857   1.056  0.00  0.00    -0.028 A 
ATOM      9  C   UNL     1       0.794  -2.541  -0.143  0.00  0.00    +0.028 A 
ATOM     10  C   UNL     1       0.031  -2.075  -1.206  0.00  0.00    +0.035 A 
ATOM     11  C   UNL     1      -0.728  -0.921  -1.063  0.00  0.00    +0.025 A 
ATOM     12  C   UNL     1      -0.724  -0.237   0.136  0.00  0.00    +0.025 A 
ATOM     13  C   UNL     1       0.034  -0.706   1.201  0.00  0.00    +0.032 A 
BRANCH  13  14
ATOM     14  N   UNL     1       0.033  -0.015   2.418  0.00  0.00    -0.336 N 
ATOM     15  C   UNL     1      -0.948  -0.354   3.452  0.00  0.00    +0.129 C 
ATOM     16  C   UNL     1       1.014   1.047   2.659  0.00  0.00    +0.129 C 
ENDBRANCH  13  14
ENDBRANCH   1  10
BRANCH   4  17
ATOM     17  C   UNL     1       0.383  -6.230  -3.616  0.00  0.00    +0.141 C 
BRANCH  17  18
ATOM     18  C   UNL     1       0.482  -6.715  -5.040  0.00  0.00    -0.027 A 
ATOM     19  C   UNL     1      -0.666  -7.037  -5.739  0.00  0.00    +0.009 A 
ATOM     20  C   UNL     1      -0.583  -7.482  -7.047  0.00  0.00    +0.050 A 
ATOM     21  C   UNL     1       0.656  -7.603  -7.653  0.00  0.00    +0.162 A 
ATOM     22  C   UNL     1       1.808  -7.279  -6.951  0.00  0.00    +0.162 A 
ATOM     23  C   UNL     1       1.721  -6.830  -5.644  0.00  0.00    +0.054 A 
ATOM     24  O   UNL     1       3.024  -7.401  -7.558  0.00  0.00    -0.488 OA
ATOM     25  C   UNL     1       3.448  -8.736  -7.846  0.00  0.00    +0.232 C 
ATOM     26  C   UNL     1       2.865  -9.214  -9.166  0.00  0.00    +0.082 C 
ATOM     27  C   UNL     1       1.349  -9.325  -9.124  0.00  0.00    +0.232 C 
ATOM     28  O   UNL     1       0.752  -8.040  -8.942  0.00  0.00    -0.488 OA
ENDBRANCH  17  18
ENDBRANCH   4  17
TORSDOF 4
