REMARK  Name = ZINC35307120
REMARK  14 active torsions:
REMARK  status: ('A' for Active; 'I' for Inactive)
REMARK    1  A    between atoms: C_1  and  C_2
REMARK    2  A    between atoms: C_7  and  C_9
REMARK    3  A    between atoms: C_7  and  C_10
REMARK    4  A    between atoms: C_13  and  C_15
REMARK    5  A    between atoms: C_15  and  S_16
REMARK    6  A    between atoms: S_16  and  C_17
REMARK    7  A    between atoms: N_24  and  C_25
REMARK    8  A    between atoms: N_24  and  C_26
REMARK    9  A    between atoms: C_26  and  C_27
REMARK   10  A    between atoms: C_27  and  C_28
REMARK   11  A    between atoms: C_31  and  O_36
REMARK   12  A    between atoms: C_32  and  O_34
REMARK   13  A    between atoms: O_34  and  C_35
REMARK   14  A    between atoms: O_36  and  C_37
REMARK                            x       y       z     vdW  Elec       q    Type
REMARK                         _______ _______ _______ _____ _____    ______ ____
ROOT
ATOM      1  C   UNL     1      -6.359  -3.316  -0.496  0.00  0.00    +0.192 A 
ATOM      2  N   UNL     1      -7.405  -4.104  -0.702  0.00  0.00    -0.207 NA
ATOM      3  C   UNL     1      -8.606  -3.771  -0.239  0.00  0.00    +0.127 A 
ATOM      4  C   UNL     1      -8.752  -2.578   0.471  0.00  0.00    +0.083 A 
ATOM      5  C   UNL     1      -7.635  -1.785   0.665  0.00  0.00    +0.135 A 
ATOM      6  N   UNL     1      -6.467  -2.180   0.179  0.00  0.00    -0.210 NA
ATOM      7 CL   UNL     1      -7.761  -0.291   1.541  0.00  0.00    -0.062 Cl
ATOM      8  N   UNL     1      -9.697  -4.597  -0.457  0.00  0.00    -0.318 N 
ATOM      9  C   UNL     1     -11.034  -4.170  -0.038  0.00  0.00    +0.130 C 
ENDROOT
BRANCH   1  10
ATOM     10  S   UNL     1      -4.786  -3.795  -1.127  0.00  0.00    -0.077 S 
BRANCH  10  11
ATOM     11  C   UNL     1      -3.679  -2.453  -0.611  0.00  0.00    +0.173 C 
BRANCH  11  23
ATOM     12  C   UNL     1      -0.019   1.532   0.011  0.00  0.00    +0.013 C 
ATOM     13  C   UNL     1       0.002  -0.004   0.002  0.00  0.00    -0.014 C 
ATOM     14  C   UNL     1       0.685  -0.578  -1.269  0.00  0.00    +0.030 C 
ATOM     15  C   UNL     1       0.129  -2.024  -1.231  0.00  0.00    +0.077 C 
ATOM     16  C   UNL     1       0.888  -2.772  -0.139  0.00  0.00    +0.029 C 
ATOM     17  C   UNL     1       0.823  -2.105   1.223  0.00  0.00    -0.033 C 
ATOM     18  C   UNL     1       0.726  -0.591   1.212  0.00  0.00    +0.014 C 
ATOM     19  C   UNL     1       2.126  -2.474   1.975  0.00  0.00    +0.011 C 
ATOM     20  C   UNL     1      -0.332  -2.701   2.040  0.00  0.00    +0.011 C 
ATOM     21  N   UNL     1      -1.283  -1.875  -0.825  0.00  0.00    -0.297 N 
ATOM     22  C   UNL     1      -1.417  -0.610  -0.086  0.00  0.00    +0.114 C 
ATOM     23  C   UNL     1      -2.281  -2.741  -1.094  0.00  0.00    +0.226 C 
ATOM     24  O   UNL     1      -2.053  -3.752  -1.724  0.00  0.00    -0.275 OA
ENDBRANCH  11  23
ENDBRANCH  10  11
ENDBRANCH   1  10
BRANCH   8  25
ATOM     25  C   UNL     1      -9.513  -5.897  -1.107  0.00  0.00    +0.111 C 
BRANCH  25  26
ATOM     26  C   UNL     1      -9.241  -6.964  -0.045  0.00  0.00    +0.054 C 
BRANCH  26  27
ATOM     27  C   UNL     1      -9.052  -8.302  -0.714  0.00  0.00    -0.042 A 
ATOM     28  C   UNL     1     -10.143  -9.122  -0.936  0.00  0.00    +0.007 A 
ATOM     29  C   UNL     1      -9.975 -10.350  -1.549  0.00  0.00    +0.049 A 
ATOM     30  C   UNL     1      -8.711 -10.760  -1.943  0.00  0.00    +0.161 A 
ATOM     31  C   UNL     1      -7.614  -9.934  -1.719  0.00  0.00    +0.162 A 
ATOM     32  C   UNL     1      -7.790  -8.703  -1.109  0.00  0.00    +0.053 A 
BRANCH  31  33
ATOM     33  O   UNL     1      -6.371 -10.333  -2.104  0.00  0.00    -0.491 OA
ATOM     34  C   UNL     1      -5.292  -9.434  -1.843  0.00  0.00    +0.277 C 
ENDBRANCH  31  33
BRANCH  30  35
ATOM     35  O   UNL     1      -8.544 -11.968  -2.546  0.00  0.00    -0.491 OA
ATOM     36  C   UNL     1      -9.715 -12.762  -2.742  0.00  0.00    +0.277 C 
ENDBRANCH  30  35
ENDBRANCH  26  27
ENDBRANCH  25  26
ENDBRANCH   8  25
TORSDOF 8
