REMARK  Name = ZINC63514295
REMARK  11 active torsions:
REMARK  status: ('A' for Active; 'I' for Inactive)
REMARK    1  A    between atoms: C_1  and  C_2
REMARK    2  A    between atoms: C_2  and  N_3
REMARK    3  A    between atoms: N_3  and  C_4
REMARK    4  A    between atoms: N_3  and  C_6
REMARK    5  A    between atoms: C_4  and  C_5
REMARK    6  A    between atoms: C_6  and  C_7
REMARK    7  A    between atoms: C_7  and  N_8
REMARK    8  A    between atoms: N_8  and  C_9
REMARK    9  A    between atoms: C_17  and  C_24
REMARK   10  A    between atoms: C_25  and  C_27
REMARK   11  A    between atoms: C_30  and  N_33
REMARK                            x       y       z     vdW  Elec       q    Type
REMARK                         _______ _______ _______ _____ _____    ______ ____
ROOT
ATOM      1  N   UNL     1       1.856  -3.702  -3.022  0.00  0.00    -0.294 N 
ATOM      2  C   UNL     1       2.163  -4.469  -1.957  0.00  0.00    +0.247 C 
ATOM      3  O   UNL     1       2.367  -3.954  -0.875  0.00  0.00    -0.270 OA
ENDROOT
BRANCH   1   4
ATOM      4  C   UNL     1       1.095  -4.269  -4.138  0.00  0.00    +0.103 C 
ATOM      5  C   UNL     1       1.052  -3.265  -5.295  0.00  0.00    +0.025 C 
ATOM      6  C   UNL     1       0.507  -1.914  -4.835  0.00  0.00    +0.006 C 
ATOM      7  C   UNL     1      -0.951  -2.062  -4.369  0.00  0.00    +0.033 C 
ATOM      8  C   UNL     1      -0.975  -3.202  -3.382  0.00  0.00    -0.037 C 
ATOM      9  C   UNL     1      -1.469  -3.296  -2.154  0.00  0.00    -0.001 A 
ATOM     10  C   UNL     1      -2.279  -2.367  -1.350  0.00  0.00    +0.013 A 
ATOM     11  C   UNL     1      -2.598  -2.782  -0.096  0.00  0.00    -0.050 A 
ATOM     12  C   UNL     1      -2.198  -4.013   0.433  0.00  0.00    +0.005 A 
ATOM     13  C   UNL     1      -1.461  -4.933  -0.239  0.00  0.00    +0.026 A 
ATOM     14  C   UNL     1      -1.072  -4.615  -1.573  0.00  0.00    +0.043 A 
ATOM     15  N   UNL     1      -0.397  -5.310  -2.440  0.00  0.00    -0.376 N 
ATOM     16  C   UNL     1      -0.338  -4.558  -3.689  0.00  0.00    +0.127 C 
ATOM     17  C   UNL     1      -3.427  -1.868   0.770  0.00  0.00    +0.044 C 
ATOM     18  H   UNL     1       0.001  -6.180  -2.285  0.00  0.00    +0.160 HD
ENDBRANCH   1   4
BRANCH   2  19
ATOM     19  C   UNL     1       2.250  -5.938  -2.104  0.00  0.00    +0.037 A 
ATOM     20  C   UNL     1       1.450  -6.597  -3.039  0.00  0.00    +0.015 A 
ATOM     21  C   UNL     1       1.538  -7.968  -3.172  0.00  0.00    +0.033 A 
ATOM     22  C   UNL     1       2.415  -8.688  -2.381  0.00  0.00    +0.126 A 
ATOM     23  C   UNL     1       3.210  -8.041  -1.452  0.00  0.00    +0.033 A 
ATOM     24  C   UNL     1       3.137  -6.670  -1.314  0.00  0.00    +0.015 A 
BRANCH  22  25
ATOM     25  N   UNL     1       2.503 -10.158  -2.529  0.00  0.00    +0.056 N 
ATOM     26  O   UNL     1       1.809 -10.727  -3.339  0.00  0.00    -0.126 OA
ATOM     27  O   UNL     1       3.268 -10.790  -1.839  0.00  0.00    -0.126 OA
ENDBRANCH  22  25
ENDBRANCH   2  19
BRANCH   1  28
ATOM     28  C   UNL     1       2.284  -2.302  -3.063  0.00  0.00    +0.090 C 
BRANCH  28  29
ATOM     29  C   UNL     1       1.299  -1.444  -2.265  0.00  0.00    -0.060 C 
BRANCH  29  30
ATOM     30  N   UNL     1       1.776  -0.055  -2.232  0.00  0.00    +0.380 N 
ATOM     31  H   UNL     1       2.719  -0.032  -1.876  0.00  0.00    -0.082 HD
BRANCH  30  33
ATOM     32  C   UNL     1       2.362   1.907  -3.575  0.00  0.00    -0.017 C 
ATOM     33  C   UNL     1       1.750   0.505  -3.590  0.00  0.00    -0.082 C 
ENDBRANCH  30  33
BRANCH  30  34
ATOM     34  C   UNL     1       0.903   0.741  -1.357  0.00  0.00    -0.082 C 
ATOM     35  C   UNL     1       1.019   0.231   0.080  0.00  0.00    -0.017 C 
ENDBRANCH  30  34
ENDBRANCH  29  30
ENDBRANCH  28  29
ENDBRANCH   1  28
TORSDOF 8
