REMARK  Name = ZINC14977437
REMARK  10 active torsions:
REMARK  status: ('A' for Active; 'I' for Inactive)
REMARK    1  A    between atoms: C_1  and  C_2
REMARK    2  A    between atoms: C_3  and  S_9
REMARK    3  A    between atoms: C_4  and  C_8
REMARK    4  A    between atoms: N_5  and  C_7
REMARK    5  A    between atoms: S_9  and  N_12
REMARK    6  A    between atoms: N_12  and  C_13
REMARK    7  A    between atoms: C_13  and  C_15
REMARK    8  A    between atoms: C_13  and  C_16
REMARK    9  A    between atoms: N_19  and  C_22
REMARK   10  A    between atoms: C_20  and  C_21
REMARK                            x       y       z     vdW  Elec       q    Type
REMARK                         _______ _______ _______ _____ _____    ______ ____
ROOT
ATOM      1  C   UNL     1      -5.807   2.717   0.134  0.00  0.00    +0.012 A 
ATOM      2  C   UNL     1      -5.114   1.510  -0.001  0.00  0.00    +0.140 A 
ATOM      3  N   UNL     1      -3.833   1.773  -0.050  0.00  0.00    -0.174 NA
ATOM      4  N   UNL     1      -3.666   3.160   0.052  0.00  0.00    -0.236 N 
ATOM      5  C   UNL     1      -4.898   3.719   0.171  0.00  0.00    +0.047 A 
ATOM      6  C   UNL     1      -5.198   5.189   0.314  0.00  0.00    +0.066 C 
ENDROOT
BRANCH   4   7
ATOM      7  C   UNL     1      -2.447   3.847   0.041  0.00  0.00    +0.073 A 
ATOM      8  C   UNL     1      -2.273   4.940  -0.780  0.00  0.00    +0.028 A 
ATOM      9  C   UNL     1      -1.065   5.630  -0.799  0.00  0.00    +0.003 A 
ATOM     10  C   UNL     1      -0.023   5.247  -0.010  0.00  0.00    +0.008 A 
ATOM     11  C   UNL     1      -0.160   4.137   0.841  0.00  0.00    -0.016 A 
ATOM     12  C   UNL     1      -1.385   3.426   0.869  0.00  0.00    +0.008 A 
ATOM     13  C   UNL     1      -1.518   2.314   1.715  0.00  0.00    +0.010 A 
ATOM     14  C   UNL     1      -0.474   1.940   2.505  0.00  0.00    +0.001 A 
ATOM     15  C   UNL     1       0.731   2.638   2.478  0.00  0.00    +0.001 A 
ATOM     16  C   UNL     1       0.898   3.718   1.666  0.00  0.00    +0.008 A 
ENDBRANCH   4   7
BRANCH   1  17
ATOM     17  C   UNL     1      -7.303   2.875   0.229  0.00  0.00    +0.107 C 
ATOM     18  C   UNL     1      -7.874   3.167  -1.160  0.00  0.00    +0.031 C 
BRANCH  17  19
ATOM     19  N   UNL     1      -7.892   1.638   0.749  0.00  0.00    -0.183 NA
ATOM     20  H   UNL     1      -7.506   0.780   0.512  0.00  0.00    +0.149 HD
BRANCH  19  21
ATOM     21  S   UNL     1      -9.216   1.706   1.741  0.00  0.00    +0.062 S 
ATOM     22  O   UNL     1      -9.561   0.362   2.050  0.00  0.00    -0.153 OA
ATOM     23  O   UNL     1      -8.922   2.667   2.746  0.00  0.00    -0.153 OA
BRANCH  21  26
ATOM     24  C   UNL     1     -11.473   0.120  -0.116  0.00  0.00    +0.069 C 
ATOM     25  C   UNL     1     -11.458   1.620   0.031  0.00  0.00    +0.086 A 
ATOM     26  C   UNL     1     -10.547   2.361   0.791  0.00  0.00    +0.148 A 
ATOM     27  C   UNL     1     -10.871   3.669   0.671  0.00  0.00    +0.062 A 
ATOM     28  N   UNL     1     -11.944   3.754  -0.143  0.00  0.00    -0.269 N 
ATOM     29  N   UNL     1     -12.297   2.454  -0.529  0.00  0.00    -0.174 NA
ATOM     30  C   UNL     1     -12.624   4.987  -0.546  0.00  0.00    +0.172 C 
ATOM     31  C   UNL     1     -10.159   4.825   1.326  0.00  0.00    +0.067 C 
ENDBRANCH  21  26
ENDBRANCH  19  21
ENDBRANCH  17  19
ENDBRANCH   1  17
TORSDOF 5
