REMARK  Name = ZINC47147006
REMARK  4 active torsions:
REMARK  status: ('A' for Active; 'I' for Inactive)
REMARK    1  A    between atoms: C_4  and  N_11
REMARK    2  A    between atoms: C_5  and  C_7
REMARK    3  A    between atoms: C_16  and  C_30
REMARK    4  A    between atoms: C_33  and  O_36
REMARK                            x       y       z     vdW  Elec       q    Type
REMARK                         _______ _______ _______ _____ _____    ______ ____
ROOT
ATOM      1  N   UNL     1       3.557  -0.626  -0.203  0.00  0.00    -0.209 N 
ATOM      2  C   UNL     1       4.249  -1.000  -1.311  0.00  0.00    +0.232 C 
ATOM      3  O   UNL     1       4.047  -0.642  -2.452  0.00  0.00    -0.274 OA
ATOM      4  C   UNL     1       5.312  -1.942  -0.839  0.00  0.00    +0.110 C 
ATOM      5  C   UNL     1       6.636  -1.980  -1.559  0.00  0.00    +0.072 C 
ATOM      6  C   UNL     1       7.551  -2.920  -0.826  0.00  0.00    +0.033 A 
ATOM      7  C   UNL     1       7.485  -3.362   0.450  0.00  0.00    +0.088 A 
ATOM      8  N   UNL     1       8.477  -4.239   0.812  0.00  0.00    -0.311 N 
ATOM      9  H   UNL     1       8.493  -4.611   1.708  0.00  0.00    +0.170 HD
ATOM     10  C   UNL     1       9.428  -4.584  -0.078  0.00  0.00    +0.289 A 
ATOM     11  O   UNL     1      10.371  -5.340   0.080  0.00  0.00    -0.260 OA
ATOM     12  S   UNL     1       9.000  -3.723  -1.458  0.00  0.00    -0.030 S 
ATOM     13  S   UNL     1       6.194  -2.806   1.553  0.00  0.00    -0.093 S 
ATOM     14  C   UNL     1       5.563  -1.389   0.597  0.00  0.00    +0.152 C 
ATOM     15  C   UNL     1       4.166  -0.971   0.961  0.00  0.00    +0.240 C 
ATOM     16  O   UNL     1       3.680  -0.948   2.071  0.00  0.00    -0.274 OA
ENDROOT
BRANCH   1  20
ATOM     17  C   UNL     1      -0.083   1.400  -0.362  0.00  0.00    +0.001 A 
ATOM     18  C   UNL     1       1.103   2.112  -0.330  0.00  0.00    +0.002 A 
ATOM     19  C   UNL     1       2.310   1.443  -0.277  0.00  0.00    +0.024 A 
ATOM     20  C   UNL     1       2.333   0.055  -0.256  0.00  0.00    +0.056 A 
ATOM     21  C   UNL     1       1.141  -0.657  -0.288  0.00  0.00    +0.077 A 
ATOM     22  C   UNL     1      -0.063   0.018  -0.342  0.00  0.00    +0.014 A 
BRANCH  21  23
ATOM     23  C   UNL     1       1.162  -2.163  -0.266  0.00  0.00    +0.419 C 
ATOM     24  F   UNL     1      -0.150  -2.648  -0.306  0.00  0.00    -0.166 F 
ATOM     25  F   UNL     1       1.868  -2.636  -1.378  0.00  0.00    -0.166 F 
ATOM     26  F   UNL     1       1.787  -2.604   0.905  0.00  0.00    -0.166 F 
ENDBRANCH  21  23
ENDBRANCH   1  20
BRANCH   5  27
ATOM     27  C   UNL     1       7.238  -0.598  -1.586  0.00  0.00    -0.038 A 
ATOM     28  C   UNL     1       8.040  -0.175  -0.542  0.00  0.00    +0.008 A 
ATOM     29  C   UNL     1       8.592   1.091  -0.564  0.00  0.00    +0.045 A 
ATOM     30  C   UNL     1       8.342   1.937  -1.635  0.00  0.00    +0.117 A 
ATOM     31  C   UNL     1       7.538   1.510  -2.681  0.00  0.00    +0.045 A 
ATOM     32  C   UNL     1       6.992   0.241  -2.657  0.00  0.00    +0.008 A 
BRANCH  30  33
ATOM     33  O   UNL     1       8.885   3.183  -1.659  0.00  0.00    -0.507 OA
ATOM     34  H   UNL     1       9.753   3.227  -2.082  0.00  0.00    +0.292 HD
ENDBRANCH  30  33
ENDBRANCH   5  27
TORSDOF 4
