REMARK  Name = ZINC00979055
REMARK  7 active torsions:
REMARK  status: ('A' for Active; 'I' for Inactive)
REMARK    1  A    between atoms: C_1  and  C_2
REMARK    2  A    between atoms: C_2  and  C_3
REMARK    3  A    between atoms: C_6  and  N_9
REMARK    4  A    between atoms: C_15  and  C_16
REMARK    5  A    between atoms: C_19  and  O_23
REMARK    6  A    between atoms: O_23  and  C_24
REMARK    7  A    between atoms: C_24  and  C_25
REMARK                            x       y       z     vdW  Elec       q    Type
REMARK                         _______ _______ _______ _____ _____    ______ ____
ROOT
ATOM      1  N   UNL     1       3.506  -2.644  -3.871  0.00  0.00    -0.226 NA
ATOM      2  C   UNL     1       4.446  -1.904  -4.416  0.00  0.00    +0.166 C 
ATOM      3  N   UNL     1       5.203  -2.169  -5.536  0.00  0.00    -0.260 N 
ATOM      4  C   UNL     1       6.115  -1.307  -5.952  0.00  0.00    +0.256 C 
ATOM      5  O   UNL     1       6.793  -1.526  -6.939  0.00  0.00    -0.269 OA
ATOM      6  C   UNL     1       6.273  -0.069  -5.167  0.00  0.00    +0.078 C 
ATOM      7  C   UNL     1       7.120   0.974  -5.364  0.00  0.00    +0.028 C 
ATOM      8  S   UNL     1       5.045  -0.306  -3.891  0.00  0.00    -0.049 S 
ATOM      9  H   UNL     1       5.067  -2.997  -6.023  0.00  0.00    +0.157 HD
ENDROOT
BRANCH   7  10
ATOM     10  C   UNL     1       7.222   2.037  -4.356  0.00  0.00    -0.022 A 
ATOM     11  C   UNL     1       6.736   1.826  -3.060  0.00  0.00    +0.011 A 
ATOM     12  C   UNL     1       6.835   2.826  -2.118  0.00  0.00    +0.048 A 
ATOM     13  C   UNL     1       7.415   4.044  -2.452  0.00  0.00    +0.140 A 
ATOM     14  C   UNL     1       7.899   4.260  -3.738  0.00  0.00    +0.083 A 
ATOM     15  C   UNL     1       7.811   3.264  -4.686  0.00  0.00    +0.031 A 
ATOM     16 CL   UNL     1       8.622   5.784  -4.147  0.00  0.00    -0.080 Cl
BRANCH  13  17
ATOM     17  O   UNL     1       7.509   5.026  -1.520  0.00  0.00    -0.479 OA
BRANCH  17  18
ATOM     18  C   UNL     1       6.992   4.738  -0.219  0.00  0.00    +0.353 C 
BRANCH  18  19
ATOM     19  C   UNL     1       7.183   5.937   0.674  0.00  0.00    +0.393 C 
ATOM     20  O   UNL     1       7.713   6.944   0.238  0.00  0.00    -0.243 OA
ATOM     21  O   UNL     1       6.807   5.899   1.834  0.00  0.00    -0.243 OA
ENDBRANCH  18  19
ENDBRANCH  17  18
ENDBRANCH  13  17
ENDBRANCH   7  10
BRANCH   1  25
ATOM     22  C   UNL     1       1.531  -1.318  -0.485  0.00  0.00    -0.047 A 
ATOM     23  C   UNL     1       0.811  -1.869  -1.531  0.00  0.00    +0.006 A 
ATOM     24  C   UNL     1       1.463  -2.312  -2.663  0.00  0.00    +0.028 A 
ATOM     25  C   UNL     1       2.853  -2.205  -2.752  0.00  0.00    +0.067 A 
ATOM     26  C   UNL     1       3.573  -1.648  -1.692  0.00  0.00    +0.028 A 
ATOM     27  C   UNL     1       2.908  -1.204  -0.569  0.00  0.00    +0.006 A 
BRANCH  22  29
ATOM     28  C   UNL     1       0.424   0.634   0.569  0.00  0.00    +0.009 C 
ATOM     29  C   UNL     1       0.812  -0.835   0.748  0.00  0.00    +0.032 C 
ENDBRANCH  22  29
ENDBRANCH   1  25
TORSDOF 6
