REMARK  Name = ZINC66682202
REMARK  6 active torsions:
REMARK  status: ('A' for Active; 'I' for Inactive)
REMARK    1  A    between atoms: C_1  and  C_2
REMARK    2  A    between atoms: C_4  and  N_14
REMARK    3  A    between atoms: C_7  and  C_8
REMARK    4  A    between atoms: N_10  and  C_11
REMARK    5  A    between atoms: C_11  and  C_12
REMARK    6  A    between atoms: C_11  and  C_13
REMARK                            x       y       z     vdW  Elec       q    Type
REMARK                         _______ _______ _______ _____ _____    ______ ____
ROOT
ATOM      1  N   UNL     1      -0.161  -2.668  -2.464  0.00  0.00    -0.269 N 
ATOM      2  C   UNL     1      -0.160  -4.015  -2.528  0.00  0.00    +0.307 C 
ATOM      3  O   UNL     1       0.018  -4.671  -1.520  0.00  0.00    -0.252 OA
ATOM      4  N   UNL     1      -0.355  -4.633  -3.709  0.00  0.00    -0.282 N 
ATOM      5  C   UNL     1      -0.481  -3.827  -4.889  0.00  0.00    +0.113 C 
ATOM      6  C   UNL     1      -1.428  -4.405  -5.896  0.00  0.00    +0.007 C 
ATOM      7  C   UNL     1      -2.730  -4.885  -5.276  0.00  0.00    +0.008 C 
ATOM      8  C   UNL     1      -2.691  -6.315  -4.774  0.00  0.00    -0.009 C 
ATOM      9  C   UNL     1      -2.134  -7.258  -5.845  0.00  0.00    +0.007 C 
ATOM     10  C   UNL     1      -0.721  -6.776  -6.181  0.00  0.00    -0.009 C 
ATOM     11  C   UNL     1      -0.828  -5.403  -6.846  0.00  0.00    +0.008 C 
ATOM     12  C   UNL     1       0.152  -6.704  -4.950  0.00  0.00    +0.026 C 
ATOM     13  C   UNL     1      -0.424  -6.084  -3.726  0.00  0.00    +0.078 C 
ATOM     14  C   UNL     1      -1.869  -6.497  -3.507  0.00  0.00    +0.026 C 
ATOM     15  H   UNL     1      -0.238  -2.144  -3.276  0.00  0.00    +0.156 HD
ENDROOT
BRANCH   1  19
ATOM     16  C   UNL     1      -1.396   1.064   0.477  0.00  0.00    +0.044 C 
ATOM     17  C   UNL     1      -0.641  -0.215   0.223  0.00  0.00    -0.037 A 
ATOM     18  C   UNL     1      -0.747  -0.849  -0.994  0.00  0.00    +0.027 A 
ATOM     19  C   UNL     1      -0.050  -2.029  -1.230  0.00  0.00    +0.035 A 
ATOM     20  C   UNL     1       0.758  -2.574  -0.235  0.00  0.00    +0.024 A 
ATOM     21  C   UNL     1       0.869  -1.945   0.984  0.00  0.00    +0.015 A 
ATOM     22  C   UNL     1       0.174  -0.756   1.222  0.00  0.00    +0.040 A 
BRANCH  22  23
ATOM     23  C   UNL     1       0.295  -0.077   2.526  0.00  0.00    +0.245 C 
ATOM     24  O   UNL     1      -0.299   0.965   2.727  0.00  0.00    -0.270 OA
ATOM     25  N   UNL     1       1.064  -0.611   3.495  0.00  0.00    -0.309 N 
ATOM     26  H   UNL     1       1.538  -1.442   3.336  0.00  0.00    +0.149 HD
BRANCH  25  27
ATOM     27  C   UNL     1       1.184   0.063   4.790  0.00  0.00    +0.067 C 
ATOM     28  C   UNL     1       0.018  -0.350   5.691  0.00  0.00    +0.027 C 
ATOM     29  C   UNL     1       2.505  -0.334   5.452  0.00  0.00    +0.027 C 
ENDBRANCH  25  27
ENDBRANCH  22  23
ENDBRANCH   1  19
TORSDOF 3
