REMARK  Name = ZINC16552262
REMARK  10 active torsions:
REMARK  status: ('A' for Active; 'I' for Inactive)
REMARK    1  A    between atoms: C_1  and  C_2
REMARK    2  A    between atoms: C_2  and  O_3
REMARK    3  A    between atoms: O_3  and  C_4
REMARK    4  A    between atoms: C_4  and  C_6
REMARK    5  A    between atoms: C_7  and  C_29
REMARK    6  A    between atoms: C_8  and  C_26
REMARK    7  A    between atoms: C_10  and  N_11
REMARK    8  A    between atoms: C_12  and  C_14
REMARK    9  A    between atoms: C_14  and  S_15
REMARK   10  A    between atoms: S_15  and  C_16
REMARK                            x       y       z     vdW  Elec       q    Type
REMARK                         _______ _______ _______ _____ _____    ______ ____
ROOT
ATOM      1  C   UNL     1       5.800  -6.979  -0.117  0.00  0.00    +0.091 A 
ATOM      2  C   UNL     1       7.066  -7.543  -0.138  0.00  0.00    -0.015 A 
ATOM      3  C   UNL     1       8.140  -6.696  -0.146  0.00  0.00    +0.079 A 
ATOM      4  S   UNL     1       7.371  -5.088  -0.132  0.00  0.00    -0.068 S 
ATOM      5  C   UNL     1       5.710  -5.583  -0.106  0.00  0.00    +0.087 A 
ATOM      6  C   UNL     1       7.253  -9.039  -0.150  0.00  0.00    +0.046 C 
ENDROOT
BRANCH   3   7
ATOM      7  C   UNL     1       9.567  -7.027  -0.168  0.00  0.00    +0.248 C 
ATOM      8  O   UNL     1       9.921  -8.191  -0.181  0.00  0.00    -0.270 OA
ATOM      9  N   UNL     1      10.487  -6.043  -0.173  0.00  0.00    -0.325 N 
ATOM     10  H   UNL     1      10.205  -5.114  -0.163  0.00  0.00    +0.145 HD
ATOM     11  H   UNL     1      11.432  -6.262  -0.188  0.00  0.00    +0.145 HD
ENDBRANCH   3   7
BRANCH   5  12
ATOM     12  N   UNL     1       4.577  -4.793  -0.087  0.00  0.00    -0.279 N 
ATOM     13  C   UNL     1       4.691  -3.450  -0.079  0.00  0.00    +0.228 C 
ATOM     14  O   UNL     1       5.789  -2.935  -0.089  0.00  0.00    -0.275 OA
ATOM     15  H   UNL     1       3.699  -5.205  -0.078  0.00  0.00    +0.155 HD
BRANCH  13  16
ATOM     16  C   UNL     1       3.455  -2.589  -0.058  0.00  0.00    +0.170 C 
BRANCH  16  17
ATOM     17  S   UNL     1       3.936  -0.840  -0.052  0.00  0.00    -0.116 S 
BRANCH  17  18
ATOM     18  C   UNL     1       2.401   0.025  -0.026  0.00  0.00    +0.012 A 
ATOM     19  C   UNL     1       1.205  -0.682  -0.016  0.00  0.00    +0.018 A 
ATOM     20  C   UNL     1       0.002  -0.004   0.002  0.00  0.00    +0.050 A 
ATOM     21  C   UNL     1      -0.017   1.383   0.010  0.00  0.00    +0.162 A 
ATOM     22  C   UNL     1       1.178   2.093   0.002  0.00  0.00    +0.163 A 
ATOM     23  C   UNL     1       2.386   1.413  -0.017  0.00  0.00    +0.064 A 
ATOM     24  O   UNL     1       1.179   3.454   0.018  0.00  0.00    -0.485 OA
ATOM     25  C   UNL     1      -0.045   4.104  -0.340  0.00  0.00    +0.270 C 
ATOM     26  C   UNL     1      -1.193   3.412   0.408  0.00  0.00    +0.270 C 
ATOM     27  O   UNL     1      -1.214   2.034   0.019  0.00  0.00    -0.485 OA
ENDBRANCH  17  18
ENDBRANCH  16  17
ENDBRANCH  13  16
ENDBRANCH   5  12
BRANCH   1  28
ATOM     28  C   UNL     1       4.596  -7.816  -0.106  0.00  0.00    +0.342 C 
ATOM     29  O   UNL     1       4.082  -8.157  -1.155  0.00  0.00    -0.245 OA
BRANCH  28  30
ATOM     30  O   UNL     1       4.058  -8.209   1.066  0.00  0.00    -0.461 OA
BRANCH  30  32
ATOM     31  C   UNL     1       2.405  -9.380   2.419  0.00  0.00    +0.048 C 
ATOM     32  C   UNL     1       2.866  -9.037   1.001  0.00  0.00    +0.229 C 
ENDBRANCH  30  32
ENDBRANCH  28  30
ENDBRANCH   1  28
TORSDOF 8
