REMARK  Name = ZINC20830243
REMARK  8 active torsions:
REMARK  status: ('A' for Active; 'I' for Inactive)
REMARK    1  A    between atoms: C_1  and  C_2
REMARK    2  A    between atoms: C_2  and  C_3
REMARK    3  A    between atoms: C_2  and  N_4
REMARK    4  A    between atoms: C_13  and  C_15
REMARK    5  A    between atoms: C_17  and  O_23
REMARK    6  A    between atoms: C_19  and  O_21
REMARK    7  A    between atoms: O_21  and  C_22
REMARK    8  A    between atoms: O_23  and  C_24
REMARK                            x       y       z     vdW  Elec       q    Type
REMARK                         _______ _______ _______ _____ _____    ______ ____
ROOT
ATOM      1  N   UNL     1      -6.914   6.287  -0.286  0.00  0.00    -0.295 NA
ATOM      2  C   UNL     1      -7.174   5.081   0.513  0.00  0.00    +0.091 C 
ATOM      3  C   UNL     1      -6.269   3.934   0.055  0.00  0.00    +0.071 C 
ATOM      4  C   UNL     1      -4.830   4.438   0.050  0.00  0.00    +0.056 A 
ATOM      5  C   UNL     1      -4.592   5.777   0.055  0.00  0.00    +0.028 A 
ATOM      6  S   UNL     1      -2.823   5.857   0.047  0.00  0.00    -0.055 S 
ATOM      7  C   UNL     1      -2.533   4.143   0.036  0.00  0.00    +0.165 A 
ATOM      8  N   UNL     1      -3.757   3.654   0.034  0.00  0.00    -0.229 NA
ATOM      9  N   UNL     1      -1.322   3.463   0.027  0.00  0.00    -0.261 N 
ATOM     10  C   UNL     1      -1.306   2.115   0.020  0.00  0.00    +0.250 C 
ATOM     11  O   UNL     1      -2.351   1.495   0.021  0.00  0.00    -0.270 OA
ATOM     12  C   UNL     1      -5.604   6.871   0.064  0.00  0.00    +0.129 C 
ATOM     13  H   UNL     1      -0.376   4.024   0.026  0.00  0.00    +0.157 HD
ENDROOT
BRANCH  10  14
ATOM     14  C   UNL     1      -0.017   1.391   0.010  0.00  0.00    +0.044 A 
ATOM     15  C   UNL     1       1.184   2.101   0.002  0.00  0.00    +0.059 A 
ATOM     16  C   UNL     1       2.390   1.419  -0.012  0.00  0.00    +0.124 A 
ATOM     17  C   UNL     1       2.404   0.032  -0.020  0.00  0.00    +0.091 A 
ATOM     18  C   UNL     1       1.212  -0.678  -0.013  0.00  0.00    +0.124 A 
ATOM     19  C   UNL     1       0.002  -0.004   0.002  0.00  0.00    +0.059 A 
BRANCH  18  20
ATOM     20  O   UNL     1       1.232  -2.037  -0.021  0.00  0.00    -0.495 OA
ATOM     21  C   UNL     1       2.514  -2.667  -0.036  0.00  0.00    +0.277 C 
ENDBRANCH  18  20
BRANCH  16  22
ATOM     22  O   UNL     1       3.560   2.110  -0.019  0.00  0.00    -0.495 OA
ATOM     23  C   UNL     1       4.766   1.343  -0.034  0.00  0.00    +0.277 C 
ENDBRANCH  16  22
ENDBRANCH  10  14
BRANCH   1  25
ATOM     24  C   UNL     1      -8.051   7.718   1.344  0.00  0.00    +0.024 C 
ATOM     25  C   UNL     1      -7.991   7.271  -0.118  0.00  0.00    +0.051 C 
ATOM     26  C   UNL     1      -7.717   8.484  -1.010  0.00  0.00    +0.024 C 
ENDBRANCH   1  25
TORSDOF 4
