REMARK  Name = ZINC67082701
REMARK  4 active torsions:
REMARK  status: ('A' for Active; 'I' for Inactive)
REMARK    1  A    between atoms: C_6  and  C_7
REMARK    2  A    between atoms: C_7  and  N_8
REMARK    3  A    between atoms: N_11  and  C_12
REMARK    4  A    between atoms: C_12  and  C_13
REMARK                            x       y       z     vdW  Elec       q    Type
REMARK                         _______ _______ _______ _____ _____    ______ ____
ROOT
ATOM      1  N   UNL     1      -1.727  -1.014  -1.368  0.00  0.00    -0.295 N 
ATOM      2  C   UNL     1      -2.869  -1.689  -1.607  0.00  0.00    +0.300 C 
ATOM      3  O   UNL     1      -3.540  -2.097  -0.679  0.00  0.00    -0.253 OA
ATOM      4  N   UNL     1      -3.268  -1.911  -2.876  0.00  0.00    -0.294 N 
ATOM      5  H   UNL     1      -1.192  -0.689  -2.109  0.00  0.00    +0.151 HD
ATOM      6  H   UNL     1      -2.733  -1.586  -3.616  0.00  0.00    +0.151 HD
ENDROOT
BRANCH   1   7
ATOM      7  C   UNL     1      -1.294  -0.773   0.010  0.00  0.00    +0.141 C 
BRANCH   7  13
ATOM      8  C   UNL     1      -0.017   1.378   0.010  0.00  0.00    +0.009 A 
ATOM      9  C   UNL     1       1.170   2.091   0.002  0.00  0.00    +0.050 A 
ATOM     10  C   UNL     1       2.377   1.413  -0.013  0.00  0.00    +0.162 A 
ATOM     11  C   UNL     1       2.396   0.025  -0.020  0.00  0.00    +0.162 A 
ATOM     12  C   UNL     1       1.207  -0.684  -0.013  0.00  0.00    +0.054 A 
ATOM     13  C   UNL     1       0.002  -0.004   0.002  0.00  0.00    -0.027 A 
ATOM     14  O   UNL     1       3.591  -0.632  -0.034  0.00  0.00    -0.488 OA
ATOM     15  C   UNL     1       4.358  -0.510  -1.234  0.00  0.00    +0.232 C 
ATOM     16  C   UNL     1       5.186   0.764  -1.217  0.00  0.00    +0.082 C 
ATOM     17  C   UNL     1       4.323   2.016  -1.220  0.00  0.00    +0.232 C 
ATOM     18  O   UNL     1       3.554   2.104  -0.019  0.00  0.00    -0.488 OA
ENDBRANCH   7  13
ENDBRANCH   1   7
BRANCH   4  19
ATOM     19  C   UNL     1      -4.509  -2.645  -3.135  0.00  0.00    +0.160 C 
BRANCH  19  20
ATOM     20  C   UNL     1      -4.725  -2.756  -4.623  0.00  0.00    +0.051 A 
ATOM     21  C   UNL     1      -5.469  -1.924  -5.380  0.00  0.00    +0.110 A 
ATOM     22  N   UNL     1      -5.392  -2.386  -6.660  0.00  0.00    -0.336 N 
ATOM     23  C   UNL     1      -4.605  -3.488  -6.646  0.00  0.00    +0.087 A 
ATOM     24  N   UNL     1      -4.205  -3.698  -5.426  0.00  0.00    -0.346 N 
ATOM     25  C   UNL     1      -4.271  -4.301  -7.874  0.00  0.00    +0.072 C 
ATOM     26  C   UNL     1      -5.259  -3.923  -8.984  0.00  0.00    +0.009 C 
ATOM     27  C   UNL     1      -5.332  -2.397  -9.096  0.00  0.00    +0.022 C 
ATOM     28  C   UNL     1      -6.027  -1.826  -7.855  0.00  0.00    +0.123 C 
ATOM     29  H   UNL     1      -3.625  -4.422  -5.142  0.00  0.00    +0.167 HD
ENDBRANCH  19  20
ENDBRANCH   4  19
TORSDOF 4
