REMARK  Name = ZINC48575499
REMARK  2 active torsions:
REMARK  status: ('A' for Active; 'I' for Inactive)
REMARK    1  A    between atoms: C_6  and  O_7
REMARK    2  A    between atoms: C_12  and  C_14
REMARK                            x       y       z     vdW  Elec       q    Type
REMARK                         _______ _______ _______ _____ _____    ______ ____
ROOT
ATOM      1  C   UNL     1      -0.001   1.719  -0.606  0.00  0.00    +0.045 A 
ATOM      2  C   UNL     1       1.218   2.346  -0.469  0.00  0.00    +0.007 A 
ATOM      3  C   UNL     1       2.389   1.604  -0.360  0.00  0.00    -0.041 A 
ATOM      4  C   UNL     1       2.326   0.228  -0.384  0.00  0.00    -0.023 A 
ATOM      5  C   UNL     1       1.101  -0.406  -0.530  0.00  0.00    +0.050 A 
ATOM      6  C   UNL     1      -0.064   0.334  -0.641  0.00  0.00    +0.117 A 
ATOM      7  C   UNL     1       3.553  -0.637  -0.242  0.00  0.00    +0.143 C 
ATOM      8  N   UNL     1       4.758   0.190  -0.365  0.00  0.00    -0.293 N 
ATOM      9  C   UNL     1       4.777   1.470   0.362  0.00  0.00    +0.113 C 
ATOM     10  C   UNL     1       3.684   2.361  -0.228  0.00  0.00    +0.054 C 
ATOM     11  C   UNL     1       5.807  -0.206  -1.114  0.00  0.00    +0.247 C 
ATOM     12  O   UNL     1       6.745   0.546  -1.292  0.00  0.00    -0.270 OA
ENDROOT
BRANCH  11  13
ATOM     13  C   UNL     1       5.816  -1.557  -1.719  0.00  0.00    +0.040 A 
ATOM     14  C   UNL     1       6.459  -1.793  -2.939  0.00  0.00    +0.034 A 
ATOM     15  C   UNL     1       6.443  -3.068  -3.468  0.00  0.00    +0.134 A 
ATOM     16  N   UNL     1       5.831  -4.055  -2.839  0.00  0.00    -0.147 N 
ATOM     17  O   UNL     1       5.839  -5.346  -3.419  0.00  0.00    -0.164 OA
ATOM     18  C   UNL     1       5.213  -3.874  -1.687  0.00  0.00    +0.134 A 
ATOM     19  C   UNL     1       5.186  -2.633  -1.085  0.00  0.00    +0.034 A 
ENDBRANCH  11  13
BRANCH   6  20
ATOM     20  O   UNL     1      -1.261  -0.293  -0.781  0.00  0.00    -0.507 OA
ATOM     21  H   UNL     1      -1.514  -0.457  -1.700  0.00  0.00    +0.292 HD
ENDBRANCH   6  20
TORSDOF 2
