REMARK  Name = ZINC23220257
REMARK  3 active torsions:
REMARK  status: ('A' for Active; 'I' for Inactive)
REMARK    1  A    between atoms: C_1  and  C_2
REMARK    2  A    between atoms: N_11  and  C_15
REMARK    3  A    between atoms: C_15  and  C_16
REMARK                            x       y       z     vdW  Elec       q    Type
REMARK                         _______ _______ _______ _____ _____    ______ ____
ROOT
ATOM      1  C   UNL     1      -0.728   1.579   1.267  0.00  0.00    +0.010 C 
ATOM      2  C   UNL     1      -0.013   1.086   0.008  0.00  0.00    +0.018 C 
ATOM      3  C   UNL     1      -0.754   1.593  -1.232  0.00  0.00    +0.006 C 
ATOM      4  C   UNL     1      -0.026   1.116  -2.490  0.00  0.00    +0.000 C 
ATOM      5  C   UNL     1       1.400   1.670  -2.498  0.00  0.00    +0.003 C 
ATOM      6  C   UNL     1       2.149   1.164  -1.263  0.00  0.00    +0.035 C 
ATOM      7  C   UNL     1       1.418   1.613  -0.003  0.00  0.00    +0.115 C 
ATOM      8  C   UNL     1       2.160   1.153   1.231  0.00  0.00    +0.247 C 
ATOM      9  O   UNL     1       2.395   0.011   1.562  0.00  0.00    -0.273 OA
ATOM     10  N   UNL     1       2.504   2.281   1.886  0.00  0.00    -0.224 N 
ATOM     11  C   UNL     1       2.084   3.375   1.239  0.00  0.00    +0.309 C 
ATOM     12  O   UNL     1       2.275   4.509   1.633  0.00  0.00    -0.252 OA
ATOM     13  N   UNL     1       1.426   3.078   0.101  0.00  0.00    -0.285 N 
ATOM     14  H   UNL     1       0.946   3.688  -0.678  0.00  0.00    +0.151 HD
ENDROOT
BRANCH  10  15
ATOM     15  C   UNL     1       3.246   2.306   3.149  0.00  0.00    +0.124 C 
BRANCH  15  16
ATOM     16  C   UNL     1       2.261   2.270   4.319  0.00  0.00    +0.045 C 
ATOM     17  C   UNL     1       2.836   2.405   5.731  0.00  0.00    +0.047 C 
ATOM     18  C   UNL     1       2.308   1.053   5.245  0.00  0.00    +0.123 C 
ATOM     19 CL   UNL     1       0.747   0.472   5.936  0.00  0.00    -0.101 Cl
ATOM     20 CL   UNL     1       3.519  -0.230   4.874  0.00  0.00    -0.101 Cl
ENDBRANCH  15  16
ENDBRANCH  10  15
TORSDOF 2
