REMARK  Name = ZINC22419261
REMARK  9 active torsions:
REMARK  status: ('A' for Active; 'I' for Inactive)
REMARK    1  A    between atoms: C_1  and  N_2
REMARK    2  A    between atoms: N_2  and  C_3
REMARK    3  A    between atoms: N_2  and  C_4
REMARK    4  A    between atoms: C_7  and  C_10
REMARK    5  A    between atoms: C_10  and  C_12
REMARK    6  A    between atoms: C_10  and  N_25
REMARK    7  A    between atoms: C_12  and  N_13
REMARK    8  A    between atoms: N_16  and  C_17
REMARK    9  A    between atoms: C_17  and  C_18
REMARK                            x       y       z     vdW  Elec       q    Type
REMARK                         _______ _______ _______ _____ _____    ______ ____
ROOT
ATOM      1  C   UNL     1      -1.342   1.992  -5.893  0.00  0.00    -0.020 C 
ENDROOT
BRANCH   1   2
ATOM      2  N   UNL     1      -2.116   3.239  -5.952  0.00  0.00    +0.388 N 
ATOM      3  C   UNL     1      -2.652   3.462  -7.304  0.00  0.00    -0.073 C 
ATOM      4  C   UNL     1      -3.729   4.545  -7.226  0.00  0.00    +0.017 C 
ATOM      5  C   UNL     1      -3.199   5.745  -6.484  0.00  0.00    -0.048 A 
ATOM      6  C   UNL     1      -3.875   6.950  -6.607  0.00  0.00    +0.004 A 
ATOM      7  C   UNL     1      -3.428   8.071  -5.937  0.00  0.00    +0.000 A 
ATOM      8  C   UNL     1      -2.301   7.993  -5.140  0.00  0.00    +0.000 A 
ATOM      9  C   UNL     1      -1.626   6.795  -5.020  0.00  0.00    +0.002 A 
ATOM     10  C   UNL     1      -2.073   5.667  -5.693  0.00  0.00    -0.061 A 
ATOM     11  C   UNL     1      -1.301   4.383  -5.533  0.00  0.00    -0.042 C 
ATOM     12  H   UNL     1      -2.959   3.141  -5.253  0.00  0.00    -0.080 HD
ENDBRANCH   1   2
BRANCH   1  16
ATOM     13  C   UNL     1       2.078   2.316  -8.436  0.00  0.00    +0.029 A 
ATOM     14  C   UNL     1       0.981   1.564  -8.837  0.00  0.00    +0.023 A 
ATOM     15  C   UNL     1      -0.122   1.461  -8.013  0.00  0.00    +0.004 A 
ATOM     16  C   UNL     1      -0.136   2.106  -6.790  0.00  0.00    -0.059 A 
ATOM     17  C   UNL     1       0.952   2.860  -6.390  0.00  0.00    +0.004 A 
ATOM     18  C   UNL     1       2.061   2.962  -7.207  0.00  0.00    +0.023 A 
BRANCH  13  20
ATOM     19  C   UNL     1       3.212   1.740 -10.564  0.00  0.00    +0.129 C 
ATOM     20  N   UNL     1       3.196   2.422  -9.267  0.00  0.00    -0.336 N 
ATOM     21  C   UNL     1       4.351   3.216  -8.843  0.00  0.00    +0.129 C 
ENDBRANCH  13  20
ENDBRANCH   1  16
BRANCH   1  22
ATOM     22  C   UNL     1      -0.885   1.743  -4.454  0.00  0.00    +0.095 C 
BRANCH  22  23
ATOM     23  N   UNL     1      -2.049   1.750  -3.564  0.00  0.00    -0.301 N 
ATOM     24  C   UNL     1      -1.887   1.550  -2.241  0.00  0.00    +0.300 C 
ATOM     25  O   UNL     1      -0.775   1.364  -1.786  0.00  0.00    -0.253 OA
ATOM     26  N   UNL     1      -2.958   1.558  -1.423  0.00  0.00    -0.295 N 
ATOM     27  H   UNL     1      -3.055   1.920  -3.976  0.00  0.00    +0.150 HD
ATOM     28  H   UNL     1      -3.964   1.726  -1.835  0.00  0.00    +0.151 HD
BRANCH  26  29
ATOM     29  C   UNL     1      -2.782   1.340   0.015  0.00  0.00    +0.141 C 
BRANCH  29  30
ATOM     30  C   UNL     1      -4.124   1.396   0.700  0.00  0.00    -0.030 A 
ATOM     31  C   UNL     1      -4.604   2.600   1.180  0.00  0.00    +0.008 A 
ATOM     32  C   UNL     1      -5.837   2.653   1.804  0.00  0.00    +0.038 A 
ATOM     33  C   UNL     1      -6.585   1.498   1.956  0.00  0.00    +0.123 A 
ATOM     34  C   UNL     1      -6.101   0.292   1.478  0.00  0.00    +0.038 A 
ATOM     35  C   UNL     1      -4.871   0.242   0.851  0.00  0.00    +0.008 A 
ATOM     36  F   UNL     1      -7.788   1.548   2.569  0.00  0.00    -0.205 F 
ENDBRANCH  29  30
ENDBRANCH  26  29
ENDBRANCH  22  23
ENDBRANCH   1  22
TORSDOF 7
