REMARK  Name = ZINC08984092
REMARK  7 active torsions:
REMARK  status: ('A' for Active; 'I' for Inactive)
REMARK    1  A    between atoms: C_1  and  C_2
REMARK    2  A    between atoms: N_4  and  C_5
REMARK    3  A    between atoms: C_13  and  C_16
REMARK    4  A    between atoms: C_16  and  S_17
REMARK    5  A    between atoms: S_17  and  C_18
REMARK    6  A    between atoms: C_21  and  C_24
REMARK    7  A    between atoms: N_22  and  N_23
REMARK                            x       y       z     vdW  Elec       q    Type
REMARK                         _______ _______ _______ _____ _____    ______ ____
ROOT
ATOM      1  C   UNL     1       1.584   3.867  -1.033  0.00  0.00    +0.133 C 
ENDROOT
BRANCH   1   8
ATOM      2  C   UNL     1      -0.456   9.452  -4.124  0.00  0.00    +0.110 C 
ATOM      3  C   UNL     1      -0.004   8.303  -3.259  0.00  0.00    +0.223 C 
ATOM      4  O   UNL     1      -0.060   7.168  -3.681  0.00  0.00    -0.275 OA
ATOM      5  N   UNL     1       0.462   8.538  -2.017  0.00  0.00    -0.219 N 
ATOM      6  C   UNL     1       0.977   7.492  -1.258  0.00  0.00    +0.172 A 
ATOM      7  N   UNL     1       1.016   6.204  -1.540  0.00  0.00    -0.228 NA
ATOM      8  C   UNL     1       1.545   5.336  -0.700  0.00  0.00    +0.061 A 
ATOM      9  C   UNL     1       2.049   5.795   0.472  0.00  0.00    +0.072 A 
ATOM     10  S   UNL     1       1.733   7.546   0.305  0.00  0.00    -0.060 S 
BRANCH   5  11
ATOM     11  C   UNL     1       0.429   9.835  -1.489  0.00  0.00    +0.043 A 
ATOM     12  C   UNL     1       1.468  10.719  -1.750  0.00  0.00    +0.024 A 
ATOM     13  C   UNL     1       1.429  11.999  -1.233  0.00  0.00    +0.002 A 
ATOM     14  C   UNL     1       0.363  12.398  -0.448  0.00  0.00    +0.000 A 
ATOM     15  C   UNL     1      -0.671  11.518  -0.183  0.00  0.00    +0.002 A 
ATOM     16  C   UNL     1      -0.641  10.239  -0.701  0.00  0.00    +0.024 A 
ENDBRANCH   5  11
ENDBRANCH   1   8
BRANCH   1  17
ATOM     17  S   UNL     1       3.122   3.487  -1.909  0.00  0.00    -0.078 S 
BRANCH  17  18
ATOM     18  C   UNL     1       2.908   1.757  -2.167  0.00  0.00    +0.209 A 
ATOM     19  N   UNL     1       1.880   1.033  -1.790  0.00  0.00    -0.121 NA
ATOM     20  N   UNL     1       2.055  -0.191  -2.141  0.00  0.00    -0.132 NA
ATOM     21  C   UNL     1       3.196  -0.320  -2.758  0.00  0.00    +0.154 A 
ATOM     22  N   UNL     1       3.780   0.916  -2.797  0.00  0.00    -0.228 N 
BRANCH  21  23
ATOM     23  C   UNL     1       3.765  -1.595  -3.325  0.00  0.00    +0.059 C 
ATOM     24  C   UNL     1       2.811  -2.154  -4.382  0.00  0.00    +0.011 C 
ATOM     25  C   UNL     1       3.389  -3.448  -4.957  0.00  0.00    +0.001 C 
ATOM     26  C   UNL     1       3.563  -4.473  -3.834  0.00  0.00    +0.000 C 
ATOM     27  C   UNL     1       4.517  -3.913  -2.777  0.00  0.00    +0.001 C 
ATOM     28  C   UNL     1       3.939  -2.619  -2.202  0.00  0.00    +0.011 C 
ENDBRANCH  21  23
BRANCH  22  29
ATOM     29  N   UNL     1       4.985   1.242  -3.351  0.00  0.00    -0.295 N 
ATOM     30  H   UNL     1       4.879   1.504  -4.320  0.00  0.00    +0.163 HD
ATOM     31  H   UNL     1       5.438   1.975  -2.826  0.00  0.00    +0.163 HD
ENDBRANCH  22  29
ENDBRANCH  17  18
ENDBRANCH   1  17
TORSDOF 6
