REMARK  Name = ZINC05019526
REMARK  6 active torsions:
REMARK  status: ('A' for Active; 'I' for Inactive)
REMARK    1  A    between atoms: C_1  and  C_2
REMARK    2  A    between atoms: C_5  and  C_25
REMARK    3  A    between atoms: C_6  and  S_8
REMARK    4  A    between atoms: S_8  and  C_9
REMARK    5  A    between atoms: C_9  and  C_10
REMARK    6  A    between atoms: N_12  and  N_13
REMARK                            x       y       z     vdW  Elec       q    Type
REMARK                         _______ _______ _______ _____ _____    ______ ____
ROOT
ATOM      1  C   UNL     1      -1.187   1.624   0.017  0.00  0.00    +0.240 C 
ATOM      2  O   UNL     1      -1.204   2.837   0.023  0.00  0.00    -0.273 OA
ATOM      3  N   UNL     1      -0.011   0.966   0.007  0.00  0.00    -0.223 N 
ATOM      4  H   UNL     1       0.002  -0.004   0.002  0.00  0.00    +0.174 HD
ENDROOT
BRANCH   3   5
ATOM      5  N   UNL     1       1.193   1.683  -0.000  0.00  0.00    -0.137 N 
ATOM      6  C   UNL     1       2.002   1.817   1.071  0.00  0.00    +0.263 C 
ATOM      7  O   UNL     1       1.834   1.358   2.180  0.00  0.00    -0.271 OA
ATOM      8  C   UNL     1       3.163   2.660   0.596  0.00  0.00    +0.114 C 
ATOM      9  C   UNL     1       4.469   1.881   0.716  0.00  0.00    +0.035 C 
ATOM     10  C   UNL     1       5.628   2.741   0.204  0.00  0.00    +0.003 C 
ATOM     11  C   UNL     1       5.706   4.030   1.025  0.00  0.00    +0.000 C 
ATOM     12  C   UNL     1       4.399   4.811   0.874  0.00  0.00    +0.003 C 
ATOM     13  C   UNL     1       3.235   3.960   1.389  0.00  0.00    +0.035 C 
ATOM     14  N   UNL     1       2.854   2.932  -0.814  0.00  0.00    -0.284 N 
ATOM     15  C   UNL     1       1.685   2.315  -1.073  0.00  0.00    +0.326 C 
ATOM     16  O   UNL     1       1.137   2.333  -2.157  0.00  0.00    -0.251 OA
ATOM     17  H   UNL     1       3.388   3.450  -1.436  0.00  0.00    +0.151 HD
ENDBRANCH   3   5
BRANCH   1  18
ATOM     18  C   UNL     1      -2.482   0.853   0.018  0.00  0.00    +0.171 C 
BRANCH  18  19
ATOM     19  S   UNL     1      -3.877   2.013   0.031  0.00  0.00    -0.116 S 
BRANCH  19  25
ATOM     20  C   UNL     1      -6.103  -2.723   0.016  0.00  0.00    +0.044 C 
ATOM     21  C   UNL     1      -6.264  -1.224   0.025  0.00  0.00    -0.049 A 
ATOM     22  C   UNL     1      -7.529  -0.666   0.035  0.00  0.00    +0.004 A 
ATOM     23  C   UNL     1      -7.682   0.709   0.042  0.00  0.00    +0.005 A 
ATOM     24  C   UNL     1      -6.570   1.528   0.047  0.00  0.00    -0.037 A 
ATOM     25  C   UNL     1      -5.298   0.971   0.033  0.00  0.00    +0.011 A 
ATOM     26  C   UNL     1      -5.148  -0.411   0.024  0.00  0.00    +0.018 A 
ATOM     27  C   UNL     1      -6.737   3.026   0.062  0.00  0.00    +0.045 C 
ENDBRANCH  19  25
ENDBRANCH  18  19
ENDBRANCH   1  18
TORSDOF 4
