REMARK  Name = ZINC59515599
REMARK  6 active torsions:
REMARK  status: ('A' for Active; 'I' for Inactive)
REMARK    1  A    between atoms: C_1  and  C_2
REMARK    2  A    between atoms: C_2  and  C_4
REMARK    3  A    between atoms: C_2  and  N_10
REMARK    4  A    between atoms: C_11  and  C_13
REMARK    5  A    between atoms: N_15  and  N_16
REMARK    6  A    between atoms: C_17  and  C_18
REMARK                            x       y       z     vdW  Elec       q    Type
REMARK                         _______ _______ _______ _____ _____    ______ ____
ROOT
ATOM      1  C   UNL     1       0.773  -1.128   3.564  0.00  0.00    +0.318 C 
ATOM      2  O   UNL     1       1.954  -1.400   3.497  0.00  0.00    -0.263 OA
ATOM      3  N   UNL     1       0.113  -1.272   4.731  0.00  0.00    -0.199 N 
ATOM      4  H   UNL     1      -0.831  -1.054   4.784  0.00  0.00    +0.178 HD
ENDROOT
BRANCH   1   6
ATOM      5  N   UNL     1       0.711  -0.489   1.189  0.00  0.00    -0.301 N 
ATOM      6  C   UNL     1       0.051  -0.633   2.355  0.00  0.00    +0.301 C 
ATOM      7  O   UNL     1      -1.130  -0.361   2.423  0.00  0.00    -0.265 OA
ATOM      8  H   UNL     1       1.654  -0.707   1.135  0.00  0.00    +0.150 HD
BRANCH   5  10
ATOM      9  C   UNL     1      -0.019   1.526   0.010  0.00  0.00    +0.033 C 
ATOM     10  C   UNL     1       0.002  -0.004   0.002  0.00  0.00    +0.101 C 
BRANCH  10  11
ATOM     11  C   UNL     1       0.707  -0.490  -1.238  0.00  0.00    -0.027 A 
ATOM     12  C   UNL     1       2.089  -0.511  -1.284  0.00  0.00    +0.005 A 
ATOM     13  C   UNL     1       2.736  -0.957  -2.421  0.00  0.00    +0.000 A 
ATOM     14  C   UNL     1       2.002  -1.382  -3.512  0.00  0.00    +0.000 A 
ATOM     15  C   UNL     1       0.620  -1.362  -3.466  0.00  0.00    +0.000 A 
ATOM     16  C   UNL     1      -0.027  -0.920  -2.327  0.00  0.00    +0.005 A 
ENDBRANCH  10  11
ENDBRANCH   5  10
ENDBRANCH   1   6
BRANCH   3  17
ATOM     17  N   UNL     1       0.791  -1.736   5.865  0.00  0.00    -0.187 NA
ATOM     18  C   UNL     1       0.155  -1.875   6.990  0.00  0.00    +0.139 C 
BRANCH  18  19
ATOM     19  C   UNL     1       0.868  -2.363   8.184  0.00  0.00    +0.012 A 
ATOM     20  C   UNL     1       0.184  -2.518   9.393  0.00  0.00    +0.060 A 
ATOM     21  C   UNL     1       0.856  -2.976  10.510  0.00  0.00    +0.167 A 
ATOM     22  C   UNL     1       2.215  -3.283  10.430  0.00  0.00    +0.167 A 
ATOM     23  C   UNL     1       2.894  -3.129   9.230  0.00  0.00    +0.065 A 
ATOM     24  C   UNL     1       2.228  -2.677   8.109  0.00  0.00    +0.030 A 
ATOM     25 BR   UNL     1       3.156  -2.477   6.473  0.00  0.00    -0.050 Br
ATOM     26  O   UNL     1       2.638  -3.709  11.656  0.00  0.00    -0.453 OA
ATOM     27  C   UNL     1       1.628  -3.273  12.584  0.00  0.00    +0.466 C 
ATOM     28  O   UNL     1       0.431  -3.212  11.786  0.00  0.00    -0.453 OA
ENDBRANCH  18  19
ENDBRANCH   3  17
TORSDOF 5
