REMARK  Name = ZINC40775284
REMARK  5 active torsions:
REMARK  status: ('A' for Active; 'I' for Inactive)
REMARK    1  A    between atoms: C_1  and  C_2
REMARK    2  A    between atoms: C_2  and  N_3
REMARK    3  A    between atoms: C_11  and  C_14
REMARK    4  A    between atoms: C_11  and  C_15
REMARK    5  A    between atoms: N_17  and  C_18
REMARK                            x       y       z     vdW  Elec       q    Type
REMARK                         _______ _______ _______ _____ _____    ______ ____
ROOT
ATOM      1  N   UNL     1       0.688  -0.476  -1.203  0.00  0.00    -0.269 N 
ATOM      2  C   UNL     1      -0.102  -0.684  -2.330  0.00  0.00    +0.050 A 
ATOM      3  C   UNL     1      -1.375  -0.126  -2.379  0.00  0.00    +0.024 A 
ATOM      4  C   UNL     1      -2.174  -0.310  -3.490  0.00  0.00    +0.002 A 
ATOM      5  C   UNL     1      -1.719  -1.049  -4.567  0.00  0.00    +0.001 A 
ATOM      6  C   UNL     1      -0.457  -1.613  -4.531  0.00  0.00    +0.016 A 
ATOM      7  C   UNL     1       0.347  -1.435  -3.417  0.00  0.00    +0.031 A 
ATOM      8  S   UNL     1       1.951  -2.170  -3.354  0.00  0.00    -0.098 S 
ATOM      9  C   UNL     1       2.870  -1.018  -2.287  0.00  0.00    +0.170 C 
ATOM     10  C   UNL     1       2.001  -0.658  -1.110  0.00  0.00    +0.245 C 
ATOM     11  O   UNL     1       2.525  -0.532  -0.024  0.00  0.00    -0.273 OA
ATOM     12  C   UNL     1       4.155  -1.688  -1.794  0.00  0.00    +0.043 C 
ENDROOT
BRANCH   9  13
ATOM     13  C   UNL     1       3.209   0.229  -3.061  0.00  0.00    +0.239 C 
ATOM     14  O   UNL     1       3.044   1.320  -2.556  0.00  0.00    -0.274 OA
ATOM     15  N   UNL     1       3.695   0.134  -4.314  0.00  0.00    -0.307 N 
ATOM     16  H   UNL     1       3.826  -0.739  -4.718  0.00  0.00    +0.149 HD
BRANCH  15  17
ATOM     17  C   UNL     1       4.024   1.347  -5.067  0.00  0.00    +0.103 C 
ATOM     18  C   UNL     1       5.089   1.018  -6.111  0.00  0.00    +0.027 C 
ATOM     19  C   UNL     1       5.261   2.236  -7.027  0.00  0.00    +0.007 C 
ATOM     20  C   UNL     1       4.004   2.375  -7.884  0.00  0.00    +0.035 C 
ATOM     21  C   UNL     1       2.769   2.350  -7.021  0.00  0.00    -0.042 A 
ATOM     22  C   UNL     1       2.778   1.873  -5.729  0.00  0.00    -0.024 A 
ATOM     23  C   UNL     1       1.602   1.872  -4.990  0.00  0.00    +0.006 A 
ATOM     24  C   UNL     1       0.428   2.346  -5.539  0.00  0.00    +0.000 A 
ATOM     25  C   UNL     1       0.421   2.827  -6.835  0.00  0.00    +0.000 A 
ATOM     26  C   UNL     1       1.587   2.829  -7.570  0.00  0.00    +0.004 A 
ENDBRANCH  15  17
ENDBRANCH   9  13
BRANCH   1  28
ATOM     27  C   UNL     1      -0.019   1.526   0.010  0.00  0.00    +0.025 C 
ATOM     28  C   UNL     1       0.002  -0.004   0.002  0.00  0.00    +0.110 C 
ENDBRANCH   1  28
TORSDOF 3
