REMARK  Name = ZINC21602475
REMARK  11 active torsions:
REMARK  status: ('A' for Active; 'I' for Inactive)
REMARK    1  A    between atoms: C_1  and  C_2
REMARK    2  A    between atoms: C_2  and  C_4
REMARK    3  A    between atoms: C_2  and  O_14
REMARK    4  A    between atoms: N_9  and  C_10
REMARK    5  A    between atoms: C_10  and  C_11
REMARK    6  A    between atoms: C_10  and  C_12
REMARK    7  A    between atoms: C_10  and  C_13
REMARK    8  A    between atoms: O_14  and  C_15
REMARK    9  A    between atoms: C_15  and  C_17
REMARK   10  A    between atoms: C_21  and  N_22
REMARK   11  A    between atoms: C_23  and  C_25
REMARK                            x       y       z     vdW  Elec       q    Type
REMARK                         _______ _______ _______ _____ _____    ______ ____
ROOT
ATOM      1  C   UNL     1      -3.945   3.090   0.051  0.00  0.00    +0.343 C 
ATOM      2  O   UNL     1      -4.063   3.699  -0.995  0.00  0.00    -0.245 OA
ENDROOT
BRANCH   1   3
ATOM      3  C   UNL     1      -3.680   1.650   0.034  0.00  0.00    +0.091 A 
ATOM      4  C   UNL     1      -4.765   0.683   0.028  0.00  0.00    -0.021 A 
ATOM      5  C   UNL     1      -4.381  -0.611   0.020  0.00  0.00    -0.004 A 
ATOM      6  S   UNL     1      -2.612  -0.560   0.012  0.00  0.00    -0.077 S 
ATOM      7  C   UNL     1      -2.381   1.157   0.020  0.00  0.00    +0.086 A 
ATOM      8  C   UNL     1      -5.271  -1.817   0.018  0.00  0.00    +0.043 C 
ATOM      9  C   UNL     1      -6.689  -1.372   0.405  0.00  0.00    +0.005 C 
ATOM     10  C   UNL     1      -7.062  -0.140  -0.424  0.00  0.00    +0.005 C 
ATOM     11  C   UNL     1      -6.240   1.065   0.035  0.00  0.00    +0.037 C 
BRANCH   7  12
ATOM     12  N   UNL     1      -1.191   1.867   0.018  0.00  0.00    -0.280 N 
ATOM     13  C   UNL     1      -0.014   1.209   0.009  0.00  0.00    +0.214 C 
ATOM     14  O   UNL     1       0.002  -0.004   0.002  0.00  0.00    -0.276 OA
ATOM     15  C   UNL     1       1.280   1.980   0.001  0.00  0.00    +0.109 C 
ATOM     16  H   UNL     1      -1.205   2.966   0.024  0.00  0.00    +0.155 HD
ENDBRANCH   7  12
ENDBRANCH   1   3
BRANCH   1  17
ATOM     17  O   UNL     1      -4.058   3.741   1.227  0.00  0.00    -0.449 OA
BRANCH  17  19
ATOM     18  C   UNL     1      -2.996   5.931   1.139  0.00  0.00    +0.062 C 
ATOM     19  C   UNL     1      -4.322   5.168   1.167  0.00  0.00    +0.259 C 
BRANCH  19  20
ATOM     20  C   UNL     1      -5.114   5.584   2.380  0.00  0.00    +0.261 C 
ATOM     21  O   UNL     1      -5.348   4.779   3.256  0.00  0.00    -0.271 OA
ATOM     22  N   UNL     1      -5.562   6.850   2.491  0.00  0.00    -0.237 N 
ATOM     23  C   UNL     1      -6.271   7.221   3.576  0.00  0.00    +0.306 C 
ATOM     24  O   UNL     1      -6.505   6.414   4.454  0.00  0.00    -0.252 OA
ATOM     25  N   UNL     1      -6.719   8.487   3.687  0.00  0.00    -0.294 N 
ATOM     26  H   UNL     1      -5.350   7.580   1.696  0.00  0.00    +0.159 HD
ATOM     27  H   UNL     1      -6.507   9.217   2.892  0.00  0.00    +0.151 HD
BRANCH  25  28
ATOM     28  C   UNL     1      -7.489   8.891   4.866  0.00  0.00    +0.028 C 
ATOM     29  C   UNL     1      -6.641   8.688   6.123  0.00  0.00    +0.031 C 
ATOM     30  C   UNL     1      -7.874  10.367   4.743  0.00  0.00    +0.031 C 
ATOM     31  C   UNL     1      -8.757   8.040   4.963  0.00  0.00    +0.031 C 
ENDBRANCH  25  28
ENDBRANCH  19  20
ENDBRANCH  17  19
ENDBRANCH   1  17
TORSDOF 6
