REMARK  Name = ZINC06134321
REMARK  12 active torsions:
REMARK  status: ('A' for Active; 'I' for Inactive)
REMARK    1  A    between atoms: C_1  and  C_2
REMARK    2  A    between atoms: C_2  and  C_3
REMARK    3  A    between atoms: C_2  and  C_4
REMARK    4  A    between atoms: C_4  and  C_5
REMARK    5  A    between atoms: C_5  and  N_6
REMARK    6  A    between atoms: C_7  and  C_9
REMARK    7  A    between atoms: C_9  and  C_11
REMARK    8  A    between atoms: C_9  and  N_16
REMARK    9  A    between atoms: N_16  and  C_17
REMARK   10  A    between atoms: C_24  and  C_26
REMARK   11  A    between atoms: C_27  and  N_34
REMARK   12  A    between atoms: C_28  and  C_31
REMARK                            x       y       z     vdW  Elec       q    Type
REMARK                         _______ _______ _______ _____ _____    ______ ____
ROOT
ATOM      1  N   UNL     1      -0.497   1.423   5.036  0.00  0.00    -0.250 N 
ATOM      2  C   UNL     1       0.414   2.382   5.296  0.00  0.00    +0.262 C 
ATOM      3  O   UNL     1       0.312   3.475   4.771  0.00  0.00    -0.269 OA
ENDROOT
BRANCH   1   4
ATOM      4  C   UNL     1      -0.411   0.183   5.680  0.00  0.00    +0.038 A 
ATOM      5  C   UNL     1       0.297  -0.858   5.093  0.00  0.00    +0.025 A 
ATOM      6  C   UNL     1       0.384  -2.078   5.732  0.00  0.00    +0.022 A 
ATOM      7  C   UNL     1      -0.241  -2.268   6.952  0.00  0.00    +0.041 A 
ATOM      8  C   UNL     1      -0.951  -1.234   7.537  0.00  0.00    +0.022 A 
ATOM      9  C   UNL     1      -1.037  -0.010   6.904  0.00  0.00    +0.025 A 
ATOM     10 CL   UNL     1      -0.134  -3.806   7.751  0.00  0.00    -0.084 Cl
ENDBRANCH   1   4
BRANCH   2  11
ATOM     11  C   UNL     1       1.524   2.108   6.210  0.00  0.00    +0.116 A 
ATOM     12  C   UNL     1       2.510   2.974   6.689  0.00  0.00    +0.076 A 
ATOM     13  C   UNL     1       3.403   2.340   7.552  0.00  0.00    +0.155 A 
ATOM     14  N   UNL     1       3.250   1.060   7.811  0.00  0.00    -0.203 NA
ATOM     15  S   UNL     1       1.985   0.581   7.001  0.00  0.00    +0.019 S 
BRANCH  13  16
ATOM     16  C   UNL     1       4.511   3.096   8.164  0.00  0.00    +0.262 C 
ATOM     17  O   UNL     1       4.647   4.279   7.921  0.00  0.00    -0.269 OA
ATOM     18  N   UNL     1       5.374   2.475   8.993  0.00  0.00    -0.324 N 
ATOM     19  H   UNL     1       5.265   1.531   9.187  0.00  0.00    +0.145 HD
ATOM     20  H   UNL     1       6.103   2.972   9.396  0.00  0.00    +0.145 HD
ENDBRANCH  13  16
BRANCH  12  21
ATOM     21  N   UNL     1       2.589   4.317   6.347  0.00  0.00    -0.355 N 
ATOM     22  H   UNL     1       1.936   4.703   5.742  0.00  0.00    +0.142 HD
ATOM     23  H   UNL     1       3.297   4.870   6.712  0.00  0.00    +0.142 HD
ENDBRANCH  12  21
ENDBRANCH   2  11
BRANCH   1  24
ATOM     24  C   UNL     1      -1.577   1.678   4.080  0.00  0.00    +0.204 C 
BRANCH  24  25
ATOM     25  C   UNL     1      -2.905   1.392   4.734  0.00  0.00    +0.019 A 
ATOM     26  C   UNL     1      -4.015   2.168   4.787  0.00  0.00    +0.013 A 
ATOM     27  C   UNL     1      -5.133   1.694   5.447  0.00  0.00    +0.008 A 
ATOM     28  C   UNL     1      -5.083   0.472   6.031  0.00  0.00    +0.045 A 
ATOM     29  S   UNL     1      -3.421  -0.053   5.647  0.00  0.00    -0.099 S 
ENDBRANCH  24  25
BRANCH  24  31
ATOM     30  N   UNL     1      -2.421   0.629   2.005  0.00  0.00    -0.313 N 
ATOM     31  C   UNL     1      -1.407   0.784   2.879  0.00  0.00    +0.239 C 
ATOM     32  O   UNL     1      -0.357   0.205   2.699  0.00  0.00    -0.273 OA
ATOM     33  H   UNL     1      -3.260   1.093   2.149  0.00  0.00    +0.149 HD
BRANCH  30  34
ATOM     34  C   UNL     1      -2.255  -0.239   0.837  0.00  0.00    +0.104 C 
BRANCH  34  35
ATOM     35  C   UNL     1      -3.545  -0.240   0.014  0.00  0.00    +0.022 C 
BRANCH  35  37
ATOM     36  C   UNL     1      -3.186  -2.594  -0.743  0.00  0.00    +0.007 C 
ATOM     37  C   UNL     1      -3.371  -1.147  -1.206  0.00  0.00    -0.016 C 
ATOM     38  C   UNL     1      -4.613  -1.051  -2.094  0.00  0.00    +0.007 C 
ENDBRANCH  35  37
ENDBRANCH  34  35
ENDBRANCH  30  34
ENDBRANCH  24  31
ENDBRANCH   1  24
TORSDOF 10
