REMARK  Name = ZINC05204158
REMARK  9 active torsions:
REMARK  status: ('A' for Active; 'I' for Inactive)
REMARK    1  A    between atoms: C_1  and  C_2
REMARK    2  A    between atoms: C_5  and  C_29
REMARK    3  A    between atoms: C_6  and  N_8
REMARK    4  A    between atoms: C_9  and  C_11
REMARK    5  A    between atoms: C_14  and  N_17
REMARK    6  A    between atoms: N_17  and  S_18
REMARK    7  A    between atoms: S_18  and  C_21
REMARK    8  A    between atoms: C_24  and  O_27
REMARK    9  A    between atoms: O_27  and  C_28
REMARK                            x       y       z     vdW  Elec       q    Type
REMARK                         _______ _______ _______ _____ _____    ______ ____
ROOT
ATOM      1  C   UNL     1       0.188   1.499  -0.106  0.00  0.00    +0.037 A 
ATOM      2  C   UNL     1       1.369   2.242  -0.206  0.00  0.00    +0.015 A 
ATOM      3  C   UNL     1       2.585   1.599  -0.223  0.00  0.00    +0.025 A 
ATOM      4  C   UNL     1       2.641   0.210  -0.141  0.00  0.00    +0.048 A 
ATOM      5  C   UNL     1       1.468  -0.532  -0.042  0.00  0.00    +0.025 A 
ATOM      6  C   UNL     1       0.248   0.105  -0.024  0.00  0.00    +0.015 A 
ENDROOT
BRANCH   1   8
ATOM      7  N   UNL     1      -1.173   3.529  -0.173  0.00  0.00    -0.281 N 
ATOM      8  C   UNL     1      -1.117   2.185  -0.094  0.00  0.00    +0.248 C 
ATOM      9  O   UNL     1      -2.143   1.537  -0.012  0.00  0.00    -0.270 OA
ATOM     10  H   UNL     1      -0.355   4.050  -0.158  0.00  0.00    +0.155 HD
BRANCH   7  16
ATOM     11  C   UNL     1      -5.914   3.401  -1.468  0.00  0.00    +0.044 C 
ATOM     12  C   UNL     1      -4.726   4.134  -0.901  0.00  0.00    -0.049 A 
ATOM     13  C   UNL     1      -4.859   5.446  -0.482  0.00  0.00    +0.004 A 
ATOM     14  C   UNL     1      -3.771   6.122   0.038  0.00  0.00    +0.005 A 
ATOM     15  C   UNL     1      -2.549   5.488   0.148  0.00  0.00    -0.029 A 
ATOM     16  C   UNL     1      -2.411   4.173  -0.277  0.00  0.00    +0.037 A 
ATOM     17  C   UNL     1      -3.505   3.496  -0.800  0.00  0.00    +0.027 A 
ATOM     18  C   UNL     1      -1.365   6.223   0.722  0.00  0.00    +0.045 C 
ENDBRANCH   7  16
ENDBRANCH   1   8
BRANCH   4  19
ATOM     19  N   UNL     1       3.872  -0.437  -0.159  0.00  0.00    -0.216 N 
ATOM     20  H   UNL     1       4.059  -1.141   0.482  0.00  0.00    +0.174 HD
BRANCH  19  21
ATOM     21  S   UNL     1       5.018  -0.006  -1.274  0.00  0.00    +0.072 S 
ATOM     22  O   UNL     1       5.183   1.401  -1.164  0.00  0.00    -0.150 OA
ATOM     23  O   UNL     1       6.099  -0.915  -1.118  0.00  0.00    -0.150 OA
BRANCH  21  24
ATOM     24  C   UNL     1       4.332  -0.309  -2.869  0.00  0.00    +0.109 A 
ATOM     25  C   UNL     1       4.418  -1.570  -3.429  0.00  0.00    +0.032 A 
ATOM     26  C   UNL     1       3.876  -1.812  -4.677  0.00  0.00    +0.047 A 
ATOM     27  C   UNL     1       3.256  -0.784  -5.373  0.00  0.00    +0.120 A 
ATOM     28  C   UNL     1       3.176   0.481  -4.811  0.00  0.00    +0.047 A 
ATOM     29  C   UNL     1       3.714   0.716  -3.560  0.00  0.00    +0.032 A 
BRANCH  27  30
ATOM     30  O   UNL     1       2.727  -1.018  -6.602  0.00  0.00    -0.495 OA
ATOM     31  C   UNL     1       2.846  -2.345  -7.118  0.00  0.00    +0.277 C 
ENDBRANCH  27  30
ENDBRANCH  21  24
ENDBRANCH  19  21
ENDBRANCH   4  19
TORSDOF 6
