REMARK  Name = ZINC03663747
REMARK  8 active torsions:
REMARK  status: ('A' for Active; 'I' for Inactive)
REMARK    1  A    between atoms: C_1  and  C_2
REMARK    2  A    between atoms: C_5  and  C_10
REMARK    3  A    between atoms: C_6  and  C_9
REMARK    4  A    between atoms: C_7  and  C_8
REMARK    5  A    between atoms: N_11  and  N_12
REMARK    6  A    between atoms: C_13  and  C_15
REMARK    7  A    between atoms: C_18  and  C_21
REMARK    8  A    between atoms: C_21  and  N_60
REMARK                            x       y       z     vdW  Elec       q    Type
REMARK                         _______ _______ _______ _____ _____    ______ ____
ROOT
ATOM      1  C   UNL     1      -5.966  -1.269  -0.015  0.00  0.00    +0.038 A 
ATOM      2  C   UNL     1      -5.888  -2.656   0.117  0.00  0.00    +0.013 A 
ATOM      3  C   UNL     1      -7.044  -3.407   0.163  0.00  0.00    +0.002 A 
ATOM      4  C   UNL     1      -8.279  -2.789   0.068  0.00  0.00    -0.064 A 
ATOM      5  C   UNL     1      -8.363  -1.415  -0.070  0.00  0.00    +0.002 A 
ATOM      6  C   UNL     1      -7.214  -0.652  -0.112  0.00  0.00    +0.013 A 
ENDROOT
BRANCH   1   8
ATOM      7  N   UNL     1      -3.528  -1.056   0.033  0.00  0.00    -0.203 N 
ATOM      8  C   UNL     1      -4.731  -0.457  -0.060  0.00  0.00    +0.263 C 
ATOM      9  O   UNL     1      -4.802   0.751  -0.180  0.00  0.00    -0.268 OA
ATOM     10  H   UNL     1      -3.471  -2.019   0.130  0.00  0.00    +0.178 HD
BRANCH   7  12
ATOM     11  C   UNL     1      -1.198  -0.863   0.081  0.00  0.00    +0.138 C 
ATOM     12  N   UNL     1      -2.357  -0.286  -0.009  0.00  0.00    -0.187 NA
BRANCH  11  17
ATOM     13  C   UNL     1       3.605   2.295  -0.094  0.00  0.00    +0.044 C 
ATOM     14  C   UNL     1       2.347   1.468  -0.048  0.00  0.00    -0.047 A 
ATOM     15  C   UNL     1       2.424   0.110   0.207  0.00  0.00    +0.004 A 
ATOM     16  C   UNL     1       1.276  -0.654   0.250  0.00  0.00    +0.010 A 
ATOM     17  C   UNL     1       0.033  -0.053   0.037  0.00  0.00    -0.002 A 
ATOM     18  C   UNL     1      -0.037   1.318  -0.220  0.00  0.00    -0.039 A 
ATOM     19  C   UNL     1       1.119   2.069  -0.260  0.00  0.00    -0.044 A 
ATOM     20  C   UNL     1       1.045   3.549  -0.537  0.00  0.00    +0.044 C 
ATOM     21  C   UNL     1      -1.373   1.974  -0.457  0.00  0.00    +0.044 C 
ENDBRANCH  11  17
ENDBRANCH   7  12
ENDBRANCH   1   8
BRANCH   4  22
ATOM     22  C   UNL     1      -9.537  -3.617   0.113  0.00  0.00    -0.043 C 
BRANCH  22  32
ATOM     23  C   UNL     1     -11.239  -4.645  -1.272  0.00  0.00    -0.073 C 
ATOM     24  C   UNL     1     -11.723  -4.706  -2.721  0.00  0.00    +0.017 C 
ATOM     25  C   UNL     1     -10.657  -5.318  -3.593  0.00  0.00    -0.048 A 
ATOM     26  C   UNL     1     -11.016  -5.784  -4.849  0.00  0.00    +0.004 A 
ATOM     27  C   UNL     1     -10.070  -6.347  -5.681  0.00  0.00    +0.000 A 
ATOM     28  C   UNL     1      -8.757  -6.447  -5.261  0.00  0.00    +0.000 A 
ATOM     29  C   UNL     1      -8.398  -5.985  -4.011  0.00  0.00    +0.002 A 
ATOM     30  C   UNL     1      -9.348  -5.420  -3.172  0.00  0.00    -0.061 A 
ATOM     31  C   UNL     1      -8.909  -4.934  -1.816  0.00  0.00    -0.042 C 
ATOM     32  N   UNL     1      -9.909  -4.004  -1.267  0.00  0.00    +0.385 N 
ATOM     33  H   UNL     1      -9.941  -3.161  -1.853  0.00  0.00    -0.081 HD
ENDBRANCH  22  32
ENDBRANCH   4  22
TORSDOF 5
