REMARK  Name = ZINC09611424
REMARK  8 active torsions:
REMARK  status: ('A' for Active; 'I' for Inactive)
REMARK    1  A    between atoms: C_1  and  C_2
REMARK    2  A    between atoms: C_8  and  N_10
REMARK    3  A    between atoms: C_11  and  C_13
REMARK    4  A    between atoms: C_13  and  C_15
REMARK    5  A    between atoms: C_13  and  N_22
REMARK    6  A    between atoms: C_15  and  C_16
REMARK    7  A    between atoms: N_22  and  S_23
REMARK    8  A    between atoms: S_23  and  C_26
REMARK                            x       y       z     vdW  Elec       q    Type
REMARK                         _______ _______ _______ _____ _____    ______ ____
ROOT
ATOM      1  C   UNL     1       2.369   1.225  -0.067  0.00  0.00    +0.166 C 
ENDROOT
BRANCH   1   3
ATOM      2  N   UNL     1      -0.053   1.708   0.078  0.00  0.00    -0.311 N 
ATOM      3  C   UNL     1       1.201   2.178  -0.078  0.00  0.00    +0.232 C 
ATOM      4  O   UNL     1       1.390   3.367  -0.227  0.00  0.00    -0.274 OA
ATOM      5  H   UNL     1      -0.203   0.758   0.197  0.00  0.00    +0.149 HD
BRANCH   2  12
ATOM      6  C   UNL     1      -1.930   1.763   2.282  0.00  0.00    +0.009 C 
ATOM      7  C   UNL     1      -2.357   2.021   0.836  0.00  0.00    +0.006 C 
ATOM      8  C   UNL     1      -2.765   0.700   0.182  0.00  0.00    +0.005 C 
ATOM      9  C   UNL     1      -3.192   0.957  -1.265  0.00  0.00    +0.000 C 
ATOM     10  C   UNL     1      -2.024   1.570  -2.040  0.00  0.00    +0.002 C 
ATOM     11  C   UNL     1      -1.615   2.891  -1.386  0.00  0.00    +0.022 C 
ATOM     12  C   UNL     1      -1.188   2.634   0.061  0.00  0.00    +0.076 C 
ENDBRANCH   2  12
ENDBRANCH   1   3
BRANCH   1  13
ATOM     13  N   UNL     1       3.613   1.976  -0.253  0.00  0.00    -0.178 NA
ATOM     14  H   UNL     1       3.914   2.203  -1.147  0.00  0.00    +0.149 HD
BRANCH  13  15
ATOM     15  S   UNL     1       4.506   2.438   1.063  0.00  0.00    +0.059 S 
ATOM     16  O   UNL     1       5.648   3.119   0.560  0.00  0.00    -0.153 OA
ATOM     17  O   UNL     1       3.601   3.041   1.977  0.00  0.00    -0.153 OA
BRANCH  15  18
ATOM     18  C   UNL     1       5.097   0.968   1.834  0.00  0.00    +0.106 A 
ATOM     19  C   UNL     1       6.354   0.483   1.524  0.00  0.00    +0.030 A 
ATOM     20  C   UNL     1       6.821  -0.668   2.127  0.00  0.00    +0.025 A 
ATOM     21  C   UNL     1       6.024  -1.340   3.045  0.00  0.00    +0.037 A 
ATOM     22  C   UNL     1       4.762  -0.851   3.354  0.00  0.00    -0.024 A 
ATOM     23  C   UNL     1       4.304   0.304   2.752  0.00  0.00    +0.034 A 
ATOM     24  C   UNL     1       3.899  -1.579   4.351  0.00  0.00    +0.046 C 
ATOM     25  C   UNL     1       4.151  -3.083   4.242  0.00  0.00    +0.101 C 
ATOM     26  C   UNL     1       5.630  -3.357   4.249  0.00  0.00    +0.218 C 
ATOM     27  O   UNL     1       6.053  -4.357   4.790  0.00  0.00    -0.275 OA
ATOM     28  N   UNL     1       6.490  -2.506   3.659  0.00  0.00    -0.285 N 
ATOM     29  H   UNL     1       7.440  -2.703   3.661  0.00  0.00    +0.155 HD
ENDBRANCH  15  18
ENDBRANCH  13  15
ENDBRANCH   1  13
BRANCH   1  30
ATOM     30  C   UNL     1       2.211   0.211  -1.201  0.00  0.00    +0.065 C 
BRANCH  30  31
ATOM     31  C   UNL     1       3.302  -0.824  -1.105  0.00  0.00    -0.045 A 
ATOM     32  C   UNL     1       4.526  -0.595  -1.705  0.00  0.00    +0.004 A 
ATOM     33  C   UNL     1       5.529  -1.542  -1.614  0.00  0.00    +0.000 A 
ATOM     34  C   UNL     1       5.304  -2.723  -0.931  0.00  0.00    +0.000 A 
ATOM     35  C   UNL     1       4.078  -2.954  -0.336  0.00  0.00    +0.000 A 
ATOM     36  C   UNL     1       3.077  -2.005  -0.423  0.00  0.00    +0.004 A 
ENDBRANCH  30  31
ENDBRANCH   1  30
TORSDOF 7
