REMARK  Name = ZINC13786858
REMARK  3 active torsions:
REMARK  status: ('A' for Active; 'I' for Inactive)
REMARK    1  A    between atoms: C_4  and  N_20
REMARK    2  A    between atoms: C_5  and  C_7
REMARK    3  A    between atoms: C_10  and  C_12
REMARK                            x       y       z     vdW  Elec       q    Type
REMARK                         _______ _______ _______ _____ _____    ______ ____
ROOT
ATOM      1  C   UNL     1      -3.384   2.493   0.032  0.00  0.00    +0.138 A 
ATOM      2  C   UNL     1      -2.750   3.752   0.035  0.00  0.00    +0.050 A 
ATOM      3  C   UNL     1      -1.407   3.536   0.034  0.00  0.00    +0.050 A 
ATOM      4  C   UNL     1      -1.224   2.080   0.019  0.00  0.00    +0.130 A 
ATOM      5  O   UNL     1      -2.455   1.522   0.022  0.00  0.00    -0.455 OA
ENDROOT
BRANCH   4   6
ATOM      6  C   UNL     1      -0.017   1.406   0.010  0.00  0.00    +0.063 C 
ATOM      7  C   UNL     1       0.002  -0.004   0.002  0.00  0.00    +0.049 C 
ATOM      8  C   UNL     1       1.163  -0.925  -0.020  0.00  0.00    +0.093 C 
ATOM      9  S   UNL     1       2.773  -0.346  -0.041  0.00  0.00    -0.034 S 
ATOM     10  N   UNL     1       0.887  -2.220  -0.018  0.00  0.00    -0.269 N 
ATOM     11  C   UNL     1      -0.394  -2.639  -0.009  0.00  0.00    +0.281 C 
ATOM     12  O   UNL     1      -0.813  -3.780  -0.011  0.00  0.00    -0.262 OA
ATOM     13  S   UNL     1      -1.328  -1.120   0.008  0.00  0.00    -0.029 S 
ATOM     14  H   UNL     1       1.609  -2.868  -0.028  0.00  0.00    +0.156 HD
ENDBRANCH   4   6
BRANCH   1  19
ATOM     15  C   UNL     1      -7.003   2.728   0.971  0.00  0.00    +0.001 A 
ATOM     16  C   UNL     1      -7.573   1.866   0.046  0.00  0.00    +0.002 A 
ATOM     17  C   UNL     1      -6.782   1.208  -0.882  0.00  0.00    +0.033 A 
ATOM     18  C   UNL     1      -5.420   1.408  -0.898  0.00  0.00    +0.137 A 
ATOM     19  C   UNL     1      -4.831   2.276   0.037  0.00  0.00    +0.047 A 
ATOM     20  C   UNL     1      -5.642   2.938   0.975  0.00  0.00    +0.014 A 
BRANCH  18  21
ATOM     21  N   UNL     1      -4.578   0.708  -1.895  0.00  0.00    +0.057 N 
ATOM     22  O   UNL     1      -5.132  -0.104  -2.771  0.00  0.00    -0.126 OA
ATOM     23  O   UNL     1      -3.275   0.898  -1.905  0.00  0.00    -0.126 OA
ENDBRANCH  18  21
ENDBRANCH   1  19
TORSDOF 3
