REMARK  Name = ZINC02771497
REMARK  4 active torsions:
REMARK  status: ('A' for Active; 'I' for Inactive)
REMARK    1  A    between atoms: C_1  and  O_2
REMARK    2  A    between atoms: O_2  and  C_3
REMARK    3  A    between atoms: C_6  and  C_9
REMARK    4  A    between atoms: C_12  and  C_20
REMARK                            x       y       z     vdW  Elec       q    Type
REMARK                         _______ _______ _______ _____ _____    ______ ____
ROOT
ATOM      1  C   UNL     1       2.505  -2.503  -4.381  0.00  0.00    +0.144 C 
ATOM      2  C   UNL     1       1.491  -3.391  -5.115  0.00  0.00    +0.059 C 
ATOM      3  C   UNL     1       2.219  -4.283  -6.127  0.00  0.00    +0.106 C 
ATOM      4  N   UNL     1       3.145  -5.169  -5.396  0.00  0.00    -0.305 N 
ATOM      5  C   UNL     1       3.889  -4.577  -4.385  0.00  0.00    +0.236 A 
ATOM      6  N   UNL     1       3.606  -3.337  -3.907  0.00  0.00    -0.206 N 
ATOM      7  N   UNL     1       4.561  -3.087  -2.921  0.00  0.00    -0.042 NA
ATOM      8  N   UNL     1       5.318  -4.134  -2.868  0.00  0.00    -0.021 NA
ATOM      9  N   UNL     1       4.923  -5.019  -3.727  0.00  0.00    -0.092 NA
ATOM     10  H   UNL     1       3.228  -6.112  -5.609  0.00  0.00    +0.150 HD
ENDROOT
BRANCH   1  14
ATOM     11  C   UNL     1       0.606  -0.607  -1.056  0.00  0.00    +0.120 A 
ATOM     12  C   UNL     1       1.173   0.161  -2.062  0.00  0.00    +0.046 A 
ATOM     13  C   UNL     1       1.786  -0.455  -3.136  0.00  0.00    +0.009 A 
ATOM     14  C   UNL     1       1.835  -1.835  -3.209  0.00  0.00    -0.023 A 
ATOM     15  C   UNL     1       1.270  -2.602  -2.207  0.00  0.00    +0.009 A 
ATOM     16  C   UNL     1       0.661  -1.992  -1.128  0.00  0.00    +0.046 A 
BRANCH  11  18
ATOM     17  C   UNL     1      -0.017   1.425   0.010  0.00  0.00    +0.277 C 
ATOM     18  O   UNL     1       0.002  -0.004   0.002  0.00  0.00    -0.495 OA
ENDBRANCH  11  18
ENDBRANCH   1  14
BRANCH   3  19
ATOM     19  C   UNL     1       2.993  -3.424  -7.093  0.00  0.00    -0.027 A 
ATOM     20  C   UNL     1       4.222  -2.907  -6.727  0.00  0.00    +0.005 A 
ATOM     21  C   UNL     1       4.932  -2.119  -7.613  0.00  0.00    +0.000 A 
ATOM     22  C   UNL     1       4.414  -1.848  -8.866  0.00  0.00    +0.000 A 
ATOM     23  C   UNL     1       3.185  -2.365  -9.232  0.00  0.00    +0.000 A 
ATOM     24  C   UNL     1       2.477  -3.156  -8.348  0.00  0.00    +0.005 A 
ENDBRANCH   3  19
TORSDOF 3
