REMARK  Name = ZINC21732985
REMARK  8 active torsions:
REMARK  status: ('A' for Active; 'I' for Inactive)
REMARK    1  A    between atoms: C_1  and  C_2
REMARK    2  A    between atoms: C_5  and  C_8
REMARK    3  A    between atoms: C_8  and  C_10
REMARK    4  A    between atoms: C_8  and  N_15
REMARK    5  A    between atoms: C_16  and  C_18
REMARK    6  A    between atoms: C_18  and  N_19
REMARK    7  A    between atoms: C_22  and  C_26
REMARK    8  A    between atoms: C_22  and  C_27
REMARK                            x       y       z     vdW  Elec       q    Type
REMARK                         _______ _______ _______ _____ _____    ______ ____
ROOT
ATOM      1  N   UNL     1      -2.062   5.210  -0.839  0.00  0.00    -0.303 N 
ATOM      2  C   UNL     1      -2.323   5.119  -2.158  0.00  0.00    +0.232 C 
ATOM      3  O   UNL     1      -2.801   4.101  -2.612  0.00  0.00    -0.274 OA
ATOM      4  H   UNL     1      -1.629   6.133  -0.427  0.00  0.00    +0.150 HD
ENDROOT
BRANCH   1   5
ATOM      5  C   UNL     1      -2.355   4.080   0.046  0.00  0.00    +0.140 C 
BRANCH   5  10
ATOM      6  C   UNL     1      -3.183   6.012   5.429  0.00  0.00    +0.044 C 
ATOM      7  C   UNL     1      -2.966   5.507   4.025  0.00  0.00    -0.050 A 
ATOM      8  C   UNL     1      -3.767   4.499   3.522  0.00  0.00    +0.004 A 
ATOM      9  C   UNL     1      -3.569   4.037   2.234  0.00  0.00    +0.006 A 
ATOM     10  C   UNL     1      -2.571   4.583   1.450  0.00  0.00    -0.022 A 
ATOM     11  C   UNL     1      -1.766   5.588   1.955  0.00  0.00    +0.006 A 
ATOM     12  C   UNL     1      -1.967   6.053   3.241  0.00  0.00    +0.004 A 
ENDBRANCH   5  10
BRANCH   5  13
ATOM     13  C   UNL     1      -1.196   3.116   0.030  0.00  0.00    +0.014 A 
ATOM     14  C   UNL     1      -1.213   1.761   0.017  0.00  0.00    +0.013 A 
ATOM     15  C   UNL     1      -0.013   1.076   0.008  0.00  0.00    +0.008 A 
ATOM     16  C   UNL     1       1.146   1.780   0.001  0.00  0.00    +0.045 A 
ATOM     17  S   UNL     1       0.555   3.464   0.015  0.00  0.00    -0.099 S 
ENDBRANCH   5  13
ENDBRANCH   1   5
BRANCH   2  18
ATOM     18  C   UNL     1      -2.022   6.281  -3.068  0.00  0.00    +0.213 C 
BRANCH  18  19
ATOM     19  N   UNL     1      -2.393   5.935  -4.442  0.00  0.00    -0.215 N 
ATOM     20  C   UNL     1      -3.610   6.158  -4.978  0.00  0.00    +0.254 C 
ATOM     21  O   UNL     1      -4.567   6.663  -4.433  0.00  0.00    -0.272 OA
ATOM     22  C   UNL     1      -3.531   5.645  -6.402  0.00  0.00    +0.168 C 
ATOM     23  N   UNL     1      -2.150   5.145  -6.514  0.00  0.00    -0.279 N 
ATOM     24  C   UNL     1      -1.564   5.362  -5.323  0.00  0.00    +0.310 C 
ATOM     25  O   UNL     1      -0.411   5.069  -5.073  0.00  0.00    -0.252 OA
ATOM     26  C   UNL     1      -4.534   4.510  -6.621  0.00  0.00    +0.050 C 
ATOM     27  H   UNL     1      -1.800   4.702  -7.458  0.00  0.00    +0.152 HD
BRANCH  22  28
ATOM     28  C   UNL     1      -3.775   6.763  -7.382  0.00  0.00    +0.137 A 
ATOM     29  C   UNL     1      -3.254   6.853  -8.619  0.00  0.00    +0.047 A 
ATOM     30  C   UNL     1      -3.746   8.051  -9.185  0.00  0.00    +0.041 A 
ATOM     31  C   UNL     1      -4.532   8.627  -8.257  0.00  0.00    +0.195 A 
ATOM     32  O   UNL     1      -4.546   7.842  -7.167  0.00  0.00    -0.465 OA
ENDBRANCH  22  28
ENDBRANCH  18  19
ENDBRANCH   2  18
TORSDOF 6
