REMARK  Name = ZINC15699496
REMARK  7 active torsions:
REMARK  status: ('A' for Active; 'I' for Inactive)
REMARK    1  A    between atoms: C_1  and  C_2
REMARK    2  A    between atoms: C_2  and  C_4
REMARK    3  A    between atoms: C_2  and  S_20
REMARK    4  A    between atoms: N_6  and  C_7
REMARK    5  A    between atoms: C_12  and  S_13
REMARK    6  A    between atoms: S_13  and  C_14
REMARK    7  A    between atoms: S_20  and  C_21
REMARK                            x       y       z     vdW  Elec       q    Type
REMARK                         _______ _______ _______ _____ _____    ______ ____
ROOT
ATOM      1  C   UNL     1       0.865   0.051   1.370  0.00  0.00    +0.230 C 
ATOM      2  O   UNL     1       0.364   0.174   2.467  0.00  0.00    -0.274 OA
ATOM      3  N   UNL     1       2.079  -0.521   1.243  0.00  0.00    -0.284 N 
ATOM      4  H   UNL     1       2.451  -0.678   0.361  0.00  0.00    +0.155 HD
ENDROOT
BRANCH   3   5
ATOM      5  C   UNL     1       2.802  -0.888   2.385  0.00  0.00    +0.047 A 
ATOM      6  C   UNL     1       2.138  -1.353   3.510  0.00  0.00    +0.024 A 
ATOM      7  C   UNL     1       2.854  -1.715   4.636  0.00  0.00    +0.002 A 
ATOM      8  C   UNL     1       4.233  -1.616   4.645  0.00  0.00    +0.001 A 
ATOM      9  C   UNL     1       4.904  -1.154   3.529  0.00  0.00    +0.017 A 
ATOM     10  C   UNL     1       4.194  -0.793   2.392  0.00  0.00    +0.034 A 
BRANCH  10  11
ATOM     11  S   UNL     1       5.047  -0.210   0.965  0.00  0.00    -0.088 S 
BRANCH  11  12
ATOM     12  C   UNL     1       6.750  -0.395   1.381  0.00  0.00    +0.013 A 
ATOM     13  C   UNL     1       7.388  -1.612   1.175  0.00  0.00    +0.015 A 
ATOM     14  C   UNL     1       8.722  -1.753   1.502  0.00  0.00    +0.001 A 
ATOM     15  C   UNL     1       9.423  -0.685   2.034  0.00  0.00    +0.000 A 
ATOM     16  C   UNL     1       8.790   0.527   2.240  0.00  0.00    +0.001 A 
ATOM     17  C   UNL     1       7.458   0.678   1.910  0.00  0.00    +0.015 A 
ENDBRANCH  11  12
ENDBRANCH  10  11
ENDBRANCH   3   5
BRANCH   1  19
ATOM     18  C   UNL     1       0.686   1.900  -0.273  0.00  0.00    +0.029 C 
ATOM     19  C   UNL     1       0.130   0.538   0.147  0.00  0.00    +0.136 C 
BRANCH  19  20
ATOM     20  S   UNL     1      -1.637   0.697   0.527  0.00  0.00    -0.084 S 
BRANCH  20  21
ATOM     21  C   UNL     1      -2.368   1.124  -1.019  0.00  0.00    +0.161 A 
ATOM     22  N   UNL     1      -1.797   1.290  -2.196  0.00  0.00    -0.133 NA
ATOM     23  N   UNL     1      -2.564   1.627  -3.287  0.00  0.00    -0.125 NA
ATOM     24  C   UNL     1      -3.866   1.782  -3.151  0.00  0.00    +0.180 A 
ATOM     25  S   UNL     1      -4.081   1.439  -1.411  0.00  0.00    -0.025 S 
ATOM     26  N   UNL     1      -4.818   2.116  -4.107  0.00  0.00    -0.336 N 
ATOM     27  H   UNL     1      -4.549   2.270  -5.026  0.00  0.00    +0.144 HD
ATOM     28  H   UNL     1      -5.752   2.195  -3.856  0.00  0.00    +0.144 HD
ENDBRANCH  20  21
ENDBRANCH  19  20
ENDBRANCH   1  19
TORSDOF 6
