REMARK  Name = ZINC00343096
REMARK  3 active torsions:
REMARK  status: ('A' for Active; 'I' for Inactive)
REMARK    1  A    between atoms: C_1  and  N_2
REMARK    2  A    between atoms: C_7  and  C_8
REMARK    3  A    between atoms: C_7  and  O_14
REMARK                            x       y       z     vdW  Elec       q    Type
REMARK                         _______ _______ _______ _____ _____    ______ ____
ROOT
ATOM      1  C   UNL     1       0.002  -0.004   0.002  0.00  0.00    +0.133 C 
ATOM      2  N   UNL     1      -0.018   1.461   0.010  0.00  0.00    -0.290 N 
ATOM      3  C   UNL     1      -1.193   2.106   0.019  0.00  0.00    +0.111 C 
ATOM      4  S   UNL     1      -2.756   1.408   0.022  0.00  0.00    -0.028 S 
ATOM      5  S   UNL     1      -0.791   3.842   0.029  0.00  0.00    -0.098 S 
ATOM      6  C   UNL     1       1.039   3.721   0.012  0.00  0.00    +0.136 C 
ATOM      7  C   UNL     1       1.229   2.191   0.002  0.00  0.00    +0.169 C 
ENDROOT
BRANCH   7   8
ATOM      8  C   UNL     1       2.006   1.807  -1.231  0.00  0.00    +0.003 A 
ATOM      9  C   UNL     1       1.337   1.427  -2.379  0.00  0.00    +0.008 A 
ATOM     10  C   UNL     1       2.051   1.080  -3.511  0.00  0.00    +0.000 A 
ATOM     11  C   UNL     1       3.433   1.103  -3.492  0.00  0.00    +0.000 A 
ATOM     12  C   UNL     1       4.101   1.478  -2.341  0.00  0.00    +0.000 A 
ATOM     13  C   UNL     1       3.388   1.829  -1.211  0.00  0.00    +0.008 A 
ENDBRANCH   7   8
BRANCH   7  14
ATOM     14  O   UNL     1       1.986   1.818   1.155  0.00  0.00    -0.367 OA
ATOM     15  H   UNL     1       1.539   1.996   1.994  0.00  0.00    +0.212 HD
ENDBRANCH   7  14
TORSDOF 2
