REMARK  Name = ZINC03404314
REMARK  11 active torsions:
REMARK  status: ('A' for Active; 'I' for Inactive)
REMARK    1  A    between atoms: C_1  and  C_2
REMARK    2  A    between atoms: C_2  and  O_3
REMARK    3  A    between atoms: O_3  and  C_4
REMARK    4  A    between atoms: C_4  and  C_6
REMARK    5  A    between atoms: C_7  and  C_37
REMARK    6  A    between atoms: C_8  and  C_36
REMARK    7  A    between atoms: C_10  and  N_11
REMARK    8  A    between atoms: C_12  and  C_14
REMARK    9  A    between atoms: C_15  and  C_35
REMARK   10  A    between atoms: N_16  and  C_29
REMARK   11  A    between atoms: C_20  and  C_22
REMARK                            x       y       z     vdW  Elec       q    Type
REMARK                         _______ _______ _______ _____ _____    ______ ____
ROOT
ATOM      1  C   UNL     1       3.157   7.046  -0.817  0.00  0.00    +0.056 C 
ATOM      2  C   UNL     1       3.159   8.396  -0.802  0.00  0.00    +0.025 C 
ATOM      3  N   UNL     1       4.121   9.092  -0.125  0.00  0.00    -0.255 N 
ATOM      4  C   UNL     1       5.120   8.511   0.552  0.00  0.00    +0.142 C 
ATOM      5  S   UNL     1       6.264   9.502   1.352  0.00  0.00    -0.018 S 
ATOM      6  N   UNL     1       5.254   7.172   0.624  0.00  0.00    -0.315 N 
ATOM      7  C   UNL     1       4.263   6.330  -0.069  0.00  0.00    +0.139 C 
ATOM      8  C   UNL     1       2.081   9.147  -1.539  0.00  0.00    +0.062 C 
ATOM      9  H   UNL     1       5.985   6.772   1.120  0.00  0.00    +0.149 HD
ENDROOT
BRANCH   7  10
ATOM     10  C   UNL     1       5.001   5.458  -1.052  0.00  0.00    -0.020 A 
ATOM     11  C   UNL     1       5.897   6.024  -1.940  0.00  0.00    +0.006 A 
ATOM     12  C   UNL     1       6.578   5.225  -2.839  0.00  0.00    +0.003 A 
ATOM     13  C   UNL     1       6.356   3.861  -2.858  0.00  0.00    +0.038 A 
ATOM     14  C   UNL     1       5.455   3.294  -1.973  0.00  0.00    +0.124 A 
ATOM     15  C   UNL     1       4.777   4.095  -1.069  0.00  0.00    +0.044 A 
ATOM     16  F   UNL     1       5.237   1.961  -1.991  0.00  0.00    -0.205 F 
ENDBRANCH   7  10
BRANCH   3  17
ATOM     17  C   UNL     1       4.062  10.491  -0.145  0.00  0.00    +0.040 A 
ATOM     18  C   UNL     1       3.292  11.169   0.791  0.00  0.00    +0.024 A 
ATOM     19  C   UNL     1       3.240  12.549   0.772  0.00  0.00    +0.002 A 
ATOM     20  C   UNL     1       3.945  13.255  -0.185  0.00  0.00    +0.000 A 
ATOM     21  C   UNL     1       4.709  12.583  -1.122  0.00  0.00    +0.002 A 
ATOM     22  C   UNL     1       4.769  11.204  -1.105  0.00  0.00    +0.024 A 
ENDBRANCH   3  17
BRANCH   1  24
ATOM     23  N   UNL     1       2.248   6.165  -2.849  0.00  0.00    -0.275 N 
ATOM     24  C   UNL     1       2.158   6.323  -1.514  0.00  0.00    +0.248 C 
ATOM     25  O   UNL     1       1.218   5.844  -0.906  0.00  0.00    -0.270 OA
ATOM     26  H   UNL     1       2.956   6.607  -3.343  0.00  0.00    +0.156 HD
BRANCH  23  31
ATOM     27  C   UNL     1       1.258   5.090  -4.877  0.00  0.00    +0.091 A 
ATOM     28  C   UNL     1       0.185   4.223  -5.303  0.00  0.00    -0.025 A 
ATOM     29  C   UNL     1      -0.652   3.768  -4.354  0.00  0.00    -0.008 A 
ATOM     30  S   UNL     1      -0.008   4.490  -2.859  0.00  0.00    -0.078 S 
ATOM     31  C   UNL     1       1.330   5.372  -3.516  0.00  0.00    +0.087 A 
ATOM     32  C   UNL     1      -1.847   2.865  -4.516  0.00  0.00    +0.052 C 
ATOM     33  C   UNL     1       0.007   3.847  -6.752  0.00  0.00    +0.045 C 
BRANCH  27  34
ATOM     34  C   UNL     1       2.221   5.646  -5.828  0.00  0.00    +0.342 C 
ATOM     35  O   UNL     1       2.000   6.715  -6.364  0.00  0.00    -0.245 OA
BRANCH  34  36
ATOM     36  O   UNL     1       3.355   4.972  -6.111  0.00  0.00    -0.461 OA
BRANCH  36  38
ATOM     37  C   UNL     1       5.485   4.679  -7.255  0.00  0.00    +0.048 C 
ATOM     38  C   UNL     1       4.265   5.583  -7.064  0.00  0.00    +0.229 C 
ENDBRANCH  36  38
ENDBRANCH  34  36
ENDBRANCH  27  34
ENDBRANCH  23  31
ENDBRANCH   1  24
TORSDOF 7
