REMARK  Name = ZINC35226820
REMARK  17 active torsions:
REMARK  status: ('A' for Active; 'I' for Inactive)
REMARK    1  A    between atoms: C_1  and  C_2
REMARK    2  A    between atoms: C_7  and  C_8
REMARK    3  A    between atoms: C_8  and  N_9
REMARK    4  A    between atoms: N_9  and  C_10
REMARK    5  A    between atoms: N_9  and  C_31
REMARK    6  A    between atoms: C_10  and  C_11
REMARK    7  A    between atoms: C_14  and  C_16
REMARK    8  A    between atoms: N_18  and  C_19
REMARK    9  A    between atoms: C_19  and  C_20
REMARK   10  A    between atoms: C_20  and  C_21
REMARK   11  A    between atoms: C_24  and  O_29
REMARK   12  A    between atoms: C_25  and  O_27
REMARK   13  A    between atoms: O_27  and  C_28
REMARK   14  A    between atoms: O_29  and  C_30
REMARK   15  A    between atoms: C_31  and  C_32
REMARK   16  A    between atoms: C_31  and  C_33
REMARK   17  A    between atoms: C_31  and  C_34
REMARK                            x       y       z     vdW  Elec       q    Type
REMARK                         _______ _______ _______ _____ _____    ______ ____
ROOT
ATOM      1  C   UNL     1      -3.764   1.339   1.444  0.00  0.00    +0.090 A 
ATOM      2  C   UNL     1      -4.746   0.414   1.365  0.00  0.00    +0.043 A 
ATOM      3  C   UNL     1      -5.304   0.514   0.081  0.00  0.00    +0.055 A 
ATOM      4  C   UNL     1      -4.626   1.507  -0.566  0.00  0.00    +0.189 A 
ATOM      5  O   UNL     1      -3.698   1.999   0.281  0.00  0.00    -0.457 OA
ENDROOT
BRANCH   4   6
ATOM      6  C   UNL     1      -4.867   1.963  -1.939  0.00  0.00    +0.279 C 
ATOM      7  O   UNL     1      -5.740   1.442  -2.608  0.00  0.00    -0.267 OA
ATOM      8  N   UNL     1      -4.122   2.958  -2.460  0.00  0.00    -0.309 N 
ATOM      9  H   UNL     1      -3.426   3.373  -1.926  0.00  0.00    +0.149 HD
BRANCH   8  10
ATOM     10  C   UNL     1      -4.363   3.413  -3.831  0.00  0.00    +0.109 C 
BRANCH  10  11
ATOM     11  C   UNL     1      -3.389   4.542  -4.173  0.00  0.00    +0.054 C 
BRANCH  11  12
ATOM     12  C   UNL     1      -3.637   5.010  -5.583  0.00  0.00    -0.042 A 
ATOM     13  C   UNL     1      -2.965   4.417  -6.635  0.00  0.00    +0.007 A 
ATOM     14  C   UNL     1      -3.188   4.842  -7.931  0.00  0.00    +0.049 A 
ATOM     15  C   UNL     1      -4.089   5.866  -8.178  0.00  0.00    +0.161 A 
ATOM     16  C   UNL     1      -4.767   6.463  -7.120  0.00  0.00    +0.162 A 
ATOM     17  C   UNL     1      -4.541   6.028  -5.824  0.00  0.00    +0.053 A 
BRANCH  16  18
ATOM     18  O   UNL     1      -5.652   7.468  -7.357  0.00  0.00    -0.491 OA
ATOM     19  C   UNL     1      -6.310   8.034  -6.223  0.00  0.00    +0.277 C 
ENDBRANCH  16  18
BRANCH  15  20
ATOM     20  O   UNL     1      -4.310   6.286  -9.453  0.00  0.00    -0.491 OA
ATOM     21  C   UNL     1      -3.579   5.628 -10.489  0.00  0.00    +0.277 C 
ENDBRANCH  15  20
ENDBRANCH  11  12
ENDBRANCH  10  11
ENDBRANCH   8  10
ENDBRANCH   4   6
BRANCH   1  22
ATOM     22  C   UNL     1      -2.891   1.591   2.647  0.00  0.00    -0.002 C 
BRANCH  22  23
ATOM     23  N   UNL     1      -1.495   1.742   2.215  0.00  0.00    +0.390 N 
ATOM     24  H   UNL     1      -1.468   2.206   1.319  0.00  0.00    -0.080 HD
BRANCH  23  25
ATOM     25  C   UNL     1      -0.872   0.417   2.098  0.00  0.00    -0.073 C 
ATOM     26  C   UNL     1      -0.566  -0.128   3.495  0.00  0.00    -0.010 C 
ATOM     27  C   UNL     1      -1.829  -0.535   1.378  0.00  0.00    -0.010 C 
ATOM     28  C   UNL     1       0.428   0.533   1.300  0.00  0.00    -0.010 C 
ENDBRANCH  23  25
BRANCH  23  29
ATOM     29  C   UNL     1      -0.761   2.543   3.204  0.00  0.00    -0.041 C 
BRANCH  29  36
ATOM     30  C   UNL     1      -0.837   4.510   1.089  0.00  0.00    +0.044 C 
ATOM     31  C   UNL     1       0.486   3.983   1.581  0.00  0.00    -0.049 A 
ATOM     32  C   UNL     1       1.664   4.446   1.024  0.00  0.00    +0.003 A 
ATOM     33  C   UNL     1       2.878   3.963   1.475  0.00  0.00    +0.000 A 
ATOM     34  C   UNL     1       2.915   3.018   2.483  0.00  0.00    +0.000 A 
ATOM     35  C   UNL     1       1.737   2.556   3.041  0.00  0.00    +0.002 A 
ATOM     36  C   UNL     1       0.523   3.042   2.592  0.00  0.00    -0.061 A 
ENDBRANCH  29  36
ENDBRANCH  23  29
ENDBRANCH  22  23
ENDBRANCH   1  22
TORSDOF 11
