REMARK  Name = ZINC00962304
REMARK  8 active torsions:
REMARK  status: ('A' for Active; 'I' for Inactive)
REMARK    1  A    between atoms: C_1  and  C_2
REMARK    2  A    between atoms: C_2  and  C_4
REMARK    3  A    between atoms: C_2  and  N_12
REMARK    4  A    between atoms: C_4  and  C_5
REMARK    5  A    between atoms: C_5  and  C_6
REMARK    6  A    between atoms: C_13  and  N_23
REMARK    7  A    between atoms: N_23  and  C_24
REMARK    8  A    between atoms: C_27  and  C_30
REMARK                            x       y       z     vdW  Elec       q    Type
REMARK                         _______ _______ _______ _____ _____    ______ ____
ROOT
ATOM      1  N   UNL     1       3.664   1.515   1.942  0.00  0.00    -0.272 N 
ATOM      2  C   UNL     1       3.914   0.084   1.734  0.00  0.00    +0.193 C 
ATOM      3  C   UNL     1       3.695  -0.581   3.070  0.00  0.00    +0.003 A 
ATOM      4  C   UNL     1       3.780  -1.886   3.498  0.00  0.00    +0.008 A 
ATOM      5  C   UNL     1       3.507  -2.199   4.819  0.00  0.00    +0.000 A 
ATOM      6  C   UNL     1       3.148  -1.204   5.710  0.00  0.00    +0.001 A 
ATOM      7  C   UNL     1       3.060   0.107   5.291  0.00  0.00    +0.013 A 
ATOM      8  C   UNL     1       3.333   0.431   3.961  0.00  0.00    +0.043 A 
ATOM      9  C   UNL     1       3.325   1.712   3.228  0.00  0.00    +0.249 C 
ATOM     10  O   UNL     1       3.052   2.791   3.717  0.00  0.00    -0.270 OA
ENDROOT
BRANCH   1  12
ATOM     11  C   UNL     1       4.809   3.590   1.336  0.00  0.00    +0.028 C 
ATOM     12  C   UNL     1       3.761   2.557   0.916  0.00  0.00    +0.076 C 
BRANCH  12  13
ATOM     13  C   UNL     1       2.403   3.243   0.756  0.00  0.00    +0.027 C 
BRANCH  13  14
ATOM     14  C   UNL     1       1.384   2.238   0.217  0.00  0.00    +0.037 C 
BRANCH  14  15
ATOM     15  C   UNL     1       0.046   2.914   0.060  0.00  0.00    -0.047 A 
ATOM     16  C   UNL     1      -0.857   2.911   1.106  0.00  0.00    +0.003 A 
ATOM     17  C   UNL     1      -2.082   3.536   0.963  0.00  0.00    +0.000 A 
ATOM     18  C   UNL     1      -2.408   4.155  -0.229  0.00  0.00    +0.000 A 
ATOM     19  C   UNL     1      -1.506   4.154  -1.277  0.00  0.00    +0.000 A 
ATOM     20  C   UNL     1      -0.279   3.534  -1.133  0.00  0.00    +0.003 A 
ENDBRANCH  14  15
ENDBRANCH  13  14
ENDBRANCH  12  13
ENDBRANCH   1  12
BRANCH   2  21
ATOM     21  N   UNL     1       2.979  -0.451   0.742  0.00  0.00    -0.322 N 
ATOM     22  H   UNL     1       2.049  -0.592   0.978  0.00  0.00    +0.148 HD
BRANCH  21  23
ATOM     23  C   UNL     1       3.424  -0.756  -0.540  0.00  0.00    +0.029 A 
ATOM     24  C   UNL     1       2.575  -1.402  -1.435  0.00  0.00    +0.024 A 
ATOM     25  C   UNL     1       3.011  -1.701  -2.705  0.00  0.00    +0.015 A 
ATOM     26  C   UNL     1       4.311  -1.365  -3.094  0.00  0.00    +0.037 A 
ATOM     27  C   UNL     1       5.163  -0.721  -2.191  0.00  0.00    +0.015 A 
ATOM     28  C   UNL     1       4.719  -0.420  -0.924  0.00  0.00    +0.024 A 
BRANCH  26  29
ATOM     29  C   UNL     1       4.784  -1.690  -4.453  0.00  0.00    +0.247 C 
ATOM     30  O   UNL     1       5.538  -0.931  -5.031  0.00  0.00    -0.270 OA
ATOM     31  N   UNL     1       4.380  -2.826  -5.053  0.00  0.00    -0.297 N 
ATOM     32  C   UNL     1       3.579  -3.816  -4.319  0.00  0.00    +0.113 C 
ATOM     33  C   UNL     1       4.262  -5.179  -4.417  0.00  0.00    +0.084 C 
ATOM     34  C   UNL     1       4.501  -5.523  -5.888  0.00  0.00    +0.173 C 
ATOM     35  C   UNL     1       5.413  -4.474  -6.526  0.00  0.00    +0.084 C 
ATOM     36  C   UNL     1       4.737  -3.102  -6.451  0.00  0.00    +0.113 C 
ATOM     37  O   UNL     1       5.110  -6.816  -5.988  0.00  0.00    -0.346 OA
ATOM     38  C   UNL     1       4.226  -7.647  -6.768  0.00  0.00    +0.191 C 
ATOM     39  C   UNL     1       3.377  -6.615  -7.552  0.00  0.00    +0.191 C 
ATOM     40  O   UNL     1       3.243  -5.547  -6.583  0.00  0.00    -0.346 OA
ENDBRANCH  26  29
ENDBRANCH  21  23
ENDBRANCH   2  21
TORSDOF 7
