REMARK  Name = ZINC39483317
REMARK  10 active torsions:
REMARK  status: ('A' for Active; 'I' for Inactive)
REMARK    1  A    between atoms: C_1  and  C_2
REMARK    2  A    between atoms: C_2  and  C_3
REMARK    3  A    between atoms: C_3  and  C_4
REMARK    4  A    between atoms: C_19  and  C_20
REMARK    5  A    between atoms: C_22  and  C_32
REMARK    6  A    between atoms: C_24  and  S_26
REMARK    7  A    between atoms: S_26  and  C_29
REMARK    8  A    between atoms: C_29  and  C_30
REMARK    9  A    between atoms: C_29  and  C_31
REMARK   10  A    between atoms: C_37  and  O_38
REMARK                            x       y       z     vdW  Elec       q    Type
REMARK                         _______ _______ _______ _____ _____    ______ ____
ROOT
ATOM      1  C   UNL     1      -4.460   0.074  -4.306  0.00  0.00    -0.022 A 
ATOM      2  C   UNL     1      -4.124   1.083  -5.211  0.00  0.00    +0.016 A 
ATOM      3  C   UNL     1      -5.130   1.785  -5.865  0.00  0.00    -0.012 A 
ATOM      4  C   UNL     1      -6.468   1.479  -5.614  0.00  0.00    +0.035 A 
ATOM      5  C   UNL     1      -6.797   0.480  -4.718  0.00  0.00    +0.090 A 
ATOM      6  C   UNL     1      -5.805  -0.226  -4.069  0.00  0.00    +0.035 A 
ENDROOT
BRANCH   1  22
ATOM      7  C   UNL     1       0.240  -1.743  -0.447  0.00  0.00    -0.021 A 
ATOM      8  C   UNL     1       1.232  -2.359   0.282  0.00  0.00    +0.006 A 
ATOM      9  C   UNL     1       1.302  -3.744   0.360  0.00  0.00    +0.001 A 
ATOM     10  C   UNL     1       0.375  -4.531  -0.287  0.00  0.00    +0.015 A 
ATOM     11  C   UNL     1      -0.641  -3.930  -1.026  0.00  0.00    +0.065 A 
ATOM     12  C   UNL     1      -0.713  -2.520  -1.114  0.00  0.00    +0.082 A 
ATOM     13  N   UNL     1      -1.684  -1.962  -1.856  0.00  0.00    -0.229 NA
ATOM     14  C   UNL     1      -2.601  -2.680  -2.471  0.00  0.00    +0.140 A 
ATOM     15  N   UNL     1      -2.655  -4.048  -2.371  0.00  0.00    -0.293 N 
ATOM     16  C   UNL     1      -1.664  -4.717  -1.725  0.00  0.00    +0.262 A 
ATOM     17  O   UNL     1      -1.634  -5.934  -1.713  0.00  0.00    -0.267 OA
ATOM     18  C   UNL     1      -3.764  -4.822  -2.912  0.00  0.00    +0.127 C 
ATOM     19  C   UNL     1      -4.460  -4.165  -4.082  0.00  0.00    +0.026 C 
ATOM     20  C   UNL     1      -4.789  -2.704  -3.825  0.00  0.00    +0.040 C 
ATOM     21  C   UNL     1      -3.583  -1.976  -3.307  0.00  0.00    -0.004 C 
ATOM     22  C   UNL     1      -3.401  -0.675  -3.609  0.00  0.00    +0.015 C 
BRANCH   7  23
ATOM     23  C   UNL     1       0.178  -0.239  -0.522  0.00  0.00    +0.037 C 
BRANCH  23  25
ATOM     24  C   UNL     1      -0.844   1.812   0.473  0.00  0.00    +0.004 C 
ATOM     25  C   UNL     1      -0.781   0.285   0.549  0.00  0.00    +0.001 C 
ENDBRANCH  23  25
ENDBRANCH   7  23
ENDBRANCH   1  22
BRANCH   3  26
ATOM     26  C   UNL     1      -4.782   2.859  -6.827  0.00  0.00    +0.024 A 
ATOM     27  C   UNL     1      -5.361   2.878  -8.094  0.00  0.00    +0.012 A 
ATOM     28  C   UNL     1      -5.035   3.879  -8.986  0.00  0.00    +0.001 A 
ATOM     29  C   UNL     1      -4.133   4.865  -8.627  0.00  0.00    +0.004 A 
ATOM     30  C   UNL     1      -3.552   4.856  -7.373  0.00  0.00    +0.046 A 
ATOM     31  C   UNL     1      -3.876   3.860  -6.465  0.00  0.00    +0.125 A 
BRANCH  31  32
ATOM     32  O   UNL     1      -3.310   3.853  -5.230  0.00  0.00    -0.506 OA
ATOM     33  H   UNL     1      -2.480   3.359  -5.181  0.00  0.00    +0.292 HD
ENDBRANCH  31  32
ENDBRANCH   3  26
BRANCH   5  34
ATOM     34  S   UNL     1      -8.489   0.101  -4.409  0.00  0.00    -0.001 S 
ATOM     35  O   UNL     1      -8.504  -0.450  -3.099  0.00  0.00    -0.169 OA
ATOM     36  O   UNL     1      -9.189   1.304  -4.697  0.00  0.00    -0.169 OA
BRANCH  34  37
ATOM     37  C   UNL     1      -8.912  -1.174  -5.628  0.00  0.00    +0.130 C 
ATOM     38  C   UNL     1      -8.012  -2.394  -5.422  0.00  0.00    +0.032 C 
ATOM     39  C   UNL     1     -10.375  -1.584  -5.451  0.00  0.00    +0.032 C 
ENDBRANCH  34  37
ENDBRANCH   5  34
TORSDOF 7
