REMARK  Name = ZINC40683099
REMARK  6 active torsions:
REMARK  status: ('A' for Active; 'I' for Inactive)
REMARK    1  A    between atoms: C_1  and  C_2
REMARK    2  A    between atoms: C_9  and  O_12
REMARK    3  A    between atoms: O_12  and  C_13
REMARK    4  A    between atoms: C_14  and  N_30
REMARK    5  A    between atoms: C_15  and  O_19
REMARK    6  A    between atoms: O_19  and  C_20
REMARK                            x       y       z     vdW  Elec       q    Type
REMARK                         _______ _______ _______ _____ _____    ______ ____
ROOT
ATOM      1  C   UNL     1      -0.179  -2.700   4.737  0.00  0.00    +0.248 A 
ATOM      2  C   UNL     1      -0.222  -2.035   5.963  0.00  0.00    +0.150 A 
ATOM      3  C   UNL     1      -0.323  -2.800   7.125  0.00  0.00    +0.248 A 
ATOM      4  N   UNL     1      -0.375  -4.125   7.021  0.00  0.00    -0.199 NA
ATOM      5  C   UNL     1      -0.332  -4.714   5.843  0.00  0.00    +0.229 A 
ATOM      6  N   UNL     1      -0.242  -4.027   4.722  0.00  0.00    -0.199 NA
ENDROOT
BRANCH   2   7
ATOM      7  N   UNL     1      -0.164  -0.635   6.025  0.00  0.00    -0.350 N 
ATOM      8  H   UNL     1      -0.093  -0.115   5.209  0.00  0.00    +0.143 HD
ATOM      9  H   UNL     1      -0.195  -0.186   6.885  0.00  0.00    +0.143 HD
ENDBRANCH   2   7
BRANCH   1  10
ATOM     10  O   UNL     1      -0.081  -2.002   3.578  0.00  0.00    -0.434 OA
BRANCH  10  19
ATOM     11  C   UNL     1      -4.944  -2.721   2.701  0.00  0.00    +0.065 C 
ATOM     12  C   UNL     1      -3.683  -3.102   1.970  0.00  0.00    +0.039 A 
ATOM     13  C   UNL     1      -3.779  -3.813   0.775  0.00  0.00    +0.023 A 
ATOM     14  C   UNL     1      -2.646  -4.166   0.099  0.00  0.00    +0.012 A 
ATOM     15  C   UNL     1      -1.403  -3.792   0.644  0.00  0.00    +0.004 A 
ATOM     16  C   UNL     1      -0.196  -4.120   0.005  0.00  0.00    +0.010 A 
ATOM     17  C   UNL     1       0.987  -3.741   0.562  0.00  0.00    +0.004 A 
ATOM     18  C   UNL     1       1.020  -3.031   1.760  0.00  0.00    +0.048 A 
ATOM     19  C   UNL     1      -0.133  -2.695   2.410  0.00  0.00    +0.156 A 
ATOM     20  C   UNL     1      -1.378  -3.070   1.863  0.00  0.00    +0.113 A 
ATOM     21  N   UNL     1      -2.523  -2.751   2.471  0.00  0.00    -0.248 NA
ENDBRANCH  10  19
ENDBRANCH   1  10
BRANCH   3  22
ATOM     22  O   UNL     1      -0.368  -2.203   8.341  0.00  0.00    -0.436 OA
BRANCH  22  23
ATOM     23  C   UNL     1      -0.346  -2.997   9.443  0.00  0.00    +0.138 A 
ATOM     24  C   UNL     1      -1.521  -3.348  10.069  0.00  0.00    +0.047 A 
ATOM     25  C   UNL     1      -1.510  -4.162  11.198  0.00  0.00    +0.004 A 
ATOM     26  C   UNL     1      -0.341  -4.631  11.715  0.00  0.00    +0.009 A 
ATOM     27  C   UNL     1       0.880  -4.295  11.105  0.00  0.00    -0.014 A 
ATOM     28  C   UNL     1       0.880  -3.473   9.952  0.00  0.00    +0.024 A 
ATOM     29  C   UNL     1       2.100  -3.142   9.341  0.00  0.00    +0.012 A 
ATOM     30  C   UNL     1       3.264  -3.619   9.860  0.00  0.00    +0.001 A 
ATOM     31  C   UNL     1       3.265  -4.434  10.991  0.00  0.00    +0.001 A 
ATOM     32  C   UNL     1       2.102  -4.765  11.616  0.00  0.00    +0.008 A 
ENDBRANCH  22  23
ENDBRANCH   3  22
TORSDOF 5
