REMARK  Name = ZINC03129630
REMARK  5 active torsions:
REMARK  status: ('A' for Active; 'I' for Inactive)
REMARK    1  A    between atoms: C_3  and  N_16
REMARK    2  A    between atoms: C_9  and  C_12
REMARK    3  A    between atoms: N_16  and  C_17
REMARK    4  A    between atoms: C_17  and  N_19
REMARK    5  A    between atoms: N_19  and  C_20
REMARK                            x       y       z     vdW  Elec       q    Type
REMARK                         _______ _______ _______ _____ _____    ______ ____
ROOT
ATOM      1  C   UNL     1      -0.732   1.887   1.410  0.00  0.00    +0.019 A 
ATOM      2  C   UNL     1      -1.643   2.361   0.476  0.00  0.00    +0.028 A 
ATOM      3  C   UNL     1      -1.636   3.717   0.175  0.00  0.00    +0.071 A 
ATOM      4  C   UNL     1      -0.710   4.547   0.811  0.00  0.00    +0.120 A 
ATOM      5  C   UNL     1       0.154   2.766   1.999  0.00  0.00    +0.084 A 
ATOM      6  N   UNL     1      -0.686   5.907   0.518  0.00  0.00    -0.315 N 
ATOM      7  C   UNL     1      -1.764   6.616   1.218  0.00  0.00    +0.107 C 
ATOM      8  C   UNL     1      -1.797   8.076   0.761  0.00  0.00    +0.031 C 
ATOM      9  C   UNL     1      -0.448   8.733   1.065  0.00  0.00    +0.096 C 
ATOM     10  C   UNL     1       0.663   7.946   0.364  0.00  0.00    +0.031 C 
ATOM     11  C   UNL     1       0.625   6.490   0.833  0.00  0.00    +0.107 C 
ATOM     12  N   UNL     1       0.195   4.099   1.727  0.00  0.00    -0.348 N 
ATOM     13  H   UNL     1       0.867   4.728   2.183  0.00  0.00    +0.167 HD
ENDROOT
BRANCH   9  14
ATOM     14  C   UNL     1      -0.454  10.175   0.555  0.00  0.00    +0.393 C 
ATOM     15  F   UNL     1      -0.680  10.181  -0.825  0.00  0.00    -0.170 F 
ATOM     16  F   UNL     1      -1.469  10.892   1.197  0.00  0.00    -0.170 F 
ATOM     17  F   UNL     1       0.782  10.771   0.828  0.00  0.00    -0.170 F 
ENDBRANCH   9  14
BRANCH   3  18
ATOM     18  N   UNL     1      -2.541   4.243  -0.757  0.00  0.00    -0.294 N 
ATOM     19  H   UNL     1      -2.235   4.875  -1.427  0.00  0.00    +0.154 HD
BRANCH  18  20
ATOM     20  C   UNL     1      -3.836   3.871  -0.724  0.00  0.00    +0.139 C 
ATOM     21  S   UNL     1      -4.384   2.787   0.482  0.00  0.00    -0.018 S 
BRANCH  20  22
ATOM     22  N   UNL     1      -4.699   4.353  -1.640  0.00  0.00    -0.297 N 
ATOM     23  H   UNL     1      -4.403   5.013  -2.285  0.00  0.00    +0.154 HD
BRANCH  22  24
ATOM     24  C   UNL     1      -6.022   3.899  -1.661  0.00  0.00    +0.033 A 
ATOM     25  C   UNL     1      -6.629   3.578  -2.868  0.00  0.00    +0.025 A 
ATOM     26  C   UNL     1      -7.934   3.124  -2.885  0.00  0.00    +0.022 A 
ATOM     27  C   UNL     1      -8.640   3.002  -1.701  0.00  0.00    +0.041 A 
ATOM     28  C   UNL     1      -8.040   3.327  -0.497  0.00  0.00    +0.022 A 
ATOM     29  C   UNL     1      -6.734   3.775  -0.474  0.00  0.00    +0.025 A 
ATOM     30 CL   UNL     1     -10.282   2.439  -1.726  0.00  0.00    -0.084 Cl
ENDBRANCH  22  24
ENDBRANCH  20  22
ENDBRANCH  18  20
ENDBRANCH   3  18
TORSDOF 5
