REMARK  Name = ZINC35270654
REMARK  11 active torsions:
REMARK  status: ('A' for Active; 'I' for Inactive)
REMARK    1  A    between atoms: C_1  and  C_2
REMARK    2  A    between atoms: C_4  and  O_25
REMARK    3  A    between atoms: C_5  and  C_24
REMARK    4  A    between atoms: C_6  and  O_8
REMARK    5  A    between atoms: O_8  and  C_9
REMARK    6  A    between atoms: C_10  and  C_23
REMARK    7  A    between atoms: C_13  and  O_22
REMARK    8  A    between atoms: C_15  and  C_19
REMARK    9  A    between atoms: C_15  and  O_20
REMARK   10  A    between atoms: C_16  and  O_18
REMARK   11  A    between atoms: O_20  and  C_21
REMARK                            x       y       z     vdW  Elec       q    Type
REMARK                         _______ _______ _______ _____ _____    ______ ____
ROOT
ATOM      1  C   UNL     1       0.066  -1.591   3.466  0.00  0.00    +0.143 C 
ATOM      2  C   UNL     1      -0.084  -0.255   3.517  0.00  0.00    +0.035 C 
ATOM      3  C   UNL     1      -0.204   0.427   4.736  0.00  0.00    +0.193 C 
ATOM      4  O   UNL     1      -0.334   1.635   4.739  0.00  0.00    -0.289 OA
ATOM      5  C   UNL     1      -0.174  -0.325   6.041  0.00  0.00    +0.219 C 
ATOM      6  C   UNL     1      -0.715  -1.740   5.815  0.00  0.00    +0.132 C 
ATOM      7  C   UNL     1       0.111  -2.420   4.722  0.00  0.00    +0.215 C 
ATOM      8  C   UNL     1      -2.178  -1.666   5.374  0.00  0.00    +0.048 C 
ATOM      9  C   UNL     1      -0.122   0.528   2.230  0.00  0.00    +0.051 C 
ENDROOT
BRANCH   7  10
ATOM     10  O   UNL     1       1.465  -2.544   5.162  0.00  0.00    -0.381 OA
ATOM     11  H   UNL     1       2.050  -2.968   4.520  0.00  0.00    +0.210 HD
ENDBRANCH   7  10
BRANCH   6  12
ATOM     12  O   UNL     1      -0.615  -2.490   7.027  0.00  0.00    -0.371 OA
ATOM     13  C   UNL     1      -1.001  -3.860   6.897  0.00  0.00    +0.195 C 
ENDBRANCH   6  12
BRANCH   5  14
ATOM     14  O   UNL     1      -0.987   0.351   7.002  0.00  0.00    -0.381 OA
ATOM     15  H   UNL     1      -0.705   1.257   7.188  0.00  0.00    +0.210 HD
ENDBRANCH   5  14
BRANCH   1  16
ATOM     16  O   UNL     1       0.171  -2.200   2.269  0.00  0.00    -0.457 OA
BRANCH  16  22
ATOM     17  C   UNL     1      -4.071  -4.390   3.284  0.00  0.00    +0.044 C 
ATOM     18  C   UNL     1      -2.924  -4.113   2.346  0.00  0.00    -0.044 A 
ATOM     19  C   UNL     1      -2.902  -4.694   1.093  0.00  0.00    +0.049 A 
ATOM     20  C   UNL     1      -1.847  -4.440   0.228  0.00  0.00    +0.123 A 
ATOM     21  C   UNL     1      -0.815  -3.602   0.622  0.00  0.00    +0.033 A 
ATOM     22  C   UNL     1      -0.839  -3.021   1.880  0.00  0.00    +0.135 A 
ATOM     23  C   UNL     1      -1.899  -3.274   2.740  0.00  0.00    +0.050 A 
ATOM     24  C   UNL     1       0.332  -3.325  -0.316  0.00  0.00    +0.051 C 
BRANCH  20  25
ATOM     25  O   UNL     1      -1.826  -5.012  -1.005  0.00  0.00    -0.506 OA
ATOM     26  H   UNL     1      -2.256  -4.484  -1.691  0.00  0.00    +0.292 HD
ENDBRANCH  20  25
ENDBRANCH  16  22
ENDBRANCH   1  16
TORSDOF 6
