REMARK  Name = ZINC39895702
REMARK  5 active torsions:
REMARK  status: ('A' for Active; 'I' for Inactive)
REMARK    1  A    between atoms: C_1  and  C_2
REMARK    2  A    between atoms: C_5  and  C_8
REMARK    3  A    between atoms: C_11  and  C_17
REMARK    4  A    between atoms: C_22  and  C_32
REMARK    5  A    between atoms: N_24  and  C_25
REMARK                            x       y       z     vdW  Elec       q    Type
REMARK                         _______ _______ _______ _____ _____    ______ ____
ROOT
ATOM      1  C   UNL     1       0.491  -5.829   4.592  0.00  0.00    +0.197 C 
ATOM      2  N   UNL     1       1.001  -4.469   4.776  0.00  0.00    -0.288 N 
ATOM      3  C   UNL     1       2.302  -4.256   5.057  0.00  0.00    +0.258 C 
ATOM      4  O   UNL     1       2.727  -3.120   5.167  0.00  0.00    -0.269 OA
ATOM      5  C   UNL     1       3.202  -5.399   5.229  0.00  0.00    +0.142 C 
ATOM      6  C   UNL     1       2.634  -6.670   5.416  0.00  0.00    +0.103 C 
ATOM      7  N   UNL     1       1.265  -6.763   5.416  0.00  0.00    -0.270 N 
ATOM      8  S   UNL     1       3.645  -8.095   5.641  0.00  0.00    -0.033 SA
ATOM      9  H   UNL     1       0.397  -3.714   4.696  0.00  0.00    +0.151 HD
ENDROOT
BRANCH   1  13
ATOM     10  C   UNL     1       0.626  -4.902  -0.370  0.00  0.00    +0.175 A 
ATOM     11  C   UNL     1       0.655  -5.607   0.831  0.00  0.00    +0.049 A 
ATOM     12  C   UNL     1       0.540  -5.253   2.189  0.00  0.00    +0.021 A 
ATOM     13  C   UNL     1       0.616  -6.218   3.142  0.00  0.00    -0.008 A 
ATOM     14  C   UNL     1       0.806  -7.562   2.813  0.00  0.00    +0.009 A 
ATOM     15  C   UNL     1       0.925  -7.973   1.526  0.00  0.00    +0.032 A 
ATOM     16  C   UNL     1       0.855  -7.023   0.481  0.00  0.00    +0.114 A 
ATOM     17  N   UNL     1       0.931  -7.087  -0.832  0.00  0.00    -0.078 NA
ATOM     18  O   UNL     1       0.785  -5.785  -1.366  0.00  0.00    -0.353 OA
BRANCH  10  23
ATOM     19  C   UNL     1      -0.078   0.775  -0.954  0.00  0.00    +0.044 C 
ATOM     20  C   UNL     1       0.106  -0.712  -0.800  0.00  0.00    -0.050 A 
ATOM     21  C   UNL     1       1.105  -1.359  -1.508  0.00  0.00    +0.004 A 
ATOM     22  C   UNL     1       1.280  -2.720  -1.373  0.00  0.00    +0.012 A 
ATOM     23  C   UNL     1       0.446  -3.447  -0.519  0.00  0.00    +0.021 A 
ATOM     24  C   UNL     1      -0.561  -2.787   0.192  0.00  0.00    +0.012 A 
ATOM     25  C   UNL     1      -0.720  -1.425   0.051  0.00  0.00    +0.004 A 
ENDBRANCH  10  23
ENDBRANCH   1  13
BRANCH   7  26
ATOM     26  C   UNL     1       0.620  -7.733   6.189  0.00  0.00    +0.036 A 
ATOM     27  C   UNL     1      -0.170  -7.352   7.267  0.00  0.00    +0.023 A 
ATOM     28  C   UNL     1      -0.806  -8.312   8.028  0.00  0.00    +0.002 A 
ATOM     29  C   UNL     1      -0.658  -9.652   7.719  0.00  0.00    +0.000 A 
ATOM     30  C   UNL     1       0.128 -10.034   6.647  0.00  0.00    +0.002 A 
ATOM     31  C   UNL     1       0.762  -9.079   5.878  0.00  0.00    +0.023 A 
ENDBRANCH   7  26
BRANCH   5  32
ATOM     32  C   UNL     1       4.623  -5.225   5.208  0.00  0.00    +0.107 C 
ATOM     33  N   UNL     1       5.751  -5.087   5.191  0.00  0.00    -0.191 NA
ENDBRANCH   5  32
TORSDOF 4
