REMARK  Name = ZINC20982785
REMARK  5 active torsions:
REMARK  status: ('A' for Active; 'I' for Inactive)
REMARK    1  A    between atoms: C_1  and  C_2
REMARK    2  A    between atoms: C_6  and  C_8
REMARK    3  A    between atoms: C_11  and  S_14
REMARK    4  A    between atoms: S_14  and  C_15
REMARK    5  A    between atoms: C_15  and  C_16
REMARK                            x       y       z     vdW  Elec       q    Type
REMARK                         _______ _______ _______ _____ _____    ______ ____
ROOT
ATOM      1  C   UNL     1      -0.383  10.124   0.056  0.00  0.00    +0.133 C 
ENDROOT
BRANCH   1   2
ATOM      2  C   UNL     1      -0.999  11.500   0.069  0.00  0.00    +0.059 A 
ATOM      3  C   UNL     1      -1.000  12.258   1.220  0.00  0.00    +0.095 A 
ATOM      4  C   UNL     1      -1.569  13.531   1.211  0.00  0.00    +0.259 A 
ATOM      5  O   UNL     1      -1.567  14.210   2.226  0.00  0.00    -0.267 OA
ATOM      6  N   UNL     1      -2.135  14.016   0.065  0.00  0.00    -0.259 N 
ATOM      7  C   UNL     1      -2.739  15.258  -0.075  0.00  0.00    +0.039 A 
ATOM      8  C   UNL     1      -3.247  15.587  -1.269  0.00  0.00    +0.013 A 
ATOM      9  S   UNL     1      -2.910  14.168  -2.278  0.00  0.00    -0.054 S 
ATOM     10  C   UNL     1      -2.095  13.197  -1.028  0.00  0.00    +0.181 A 
ATOM     11  N   UNL     1      -1.557  12.002  -1.030  0.00  0.00    -0.227 NA
ATOM     12  C   UNL     1      -3.938  16.855  -1.658  0.00  0.00    +0.044 C 
ATOM     13  C   UNL     1      -4.314  17.614  -0.376  0.00  0.00    +0.006 C 
ATOM     14  C   UNL     1      -3.095  17.637   0.552  0.00  0.00    +0.006 C 
ATOM     15  C   UNL     1      -2.829  16.234   1.097  0.00  0.00    +0.055 C 
ENDBRANCH   1   2
BRANCH   1  16
ATOM     16  S   UNL     1      -1.694   8.876   0.063  0.00  0.00    -0.080 S 
BRANCH  16  20
ATOM     17  C   UNL     1      -0.070   5.323   0.031  0.00  0.00    +0.182 A 
ATOM     18  N   UNL     1      -1.188   6.126   0.040  0.00  0.00    -0.201 NA
ATOM     19  H   UNL     1       1.339   8.153   0.036  0.00  0.00    +0.191 HD
ATOM     20  C   UNL     1      -0.720   7.409   0.047  0.00  0.00    +0.185 A 
ATOM     21  N   UNL     1       0.593   7.345   0.038  0.00  0.00    -0.253 N 
ATOM     22  N   UNL     1       0.975   6.117   0.032  0.00  0.00    -0.152 NA
BRANCH  17  28
ATOM     23  C   UNL     1       2.490   1.040  -0.025  0.00  0.00    +0.044 C 
ATOM     24  C   UNL     1       1.178   1.781  -0.006  0.00  0.00    -0.050 A 
ATOM     25  C   UNL     1      -0.013   1.076   0.002  0.00  0.00    +0.003 A 
ATOM     26  C   UNL     1      -1.222   1.748   0.013  0.00  0.00    +0.001 A 
ATOM     27  C   UNL     1      -1.247   3.128   0.029  0.00  0.00    +0.011 A 
ATOM     28  C   UNL     1      -0.050   3.845   0.021  0.00  0.00    +0.021 A 
ATOM     29  C   UNL     1       1.166   3.160   0.003  0.00  0.00    +0.015 A 
ENDBRANCH  17  28
ENDBRANCH  16  20
ENDBRANCH   1  16
TORSDOF 4
