REMARK  Name = ZINC65414330
REMARK  11 active torsions:
REMARK  status: ('A' for Active; 'I' for Inactive)
REMARK    1  A    between atoms: C_1  and  C_2
REMARK    2  A    between atoms: C_3  and  C_9
REMARK    3  A    between atoms: C_4  and  C_8
REMARK    4  A    between atoms: N_5  and  C_7
REMARK    5  A    between atoms: C_9  and  C_10
REMARK    6  A    between atoms: C_9  and  N_11
REMARK    7  A    between atoms: N_14  and  C_15
REMARK    8  A    between atoms: C_18  and  N_21
REMARK    9  A    between atoms: N_21  and  C_22
REMARK   10  A    between atoms: N_21  and  C_23
REMARK   11  A    between atoms: N_26  and  C_29
REMARK                            x       y       z     vdW  Elec       q    Type
REMARK                         _______ _______ _______ _____ _____    ______ ____
ROOT
ATOM      1  N   UNL     1      -2.818   1.620  -1.570  0.00  0.00    -0.292 N 
ATOM      2  C   UNL     1      -3.374   1.834  -2.779  0.00  0.00    +0.304 C 
ATOM      3  O   UNL     1      -4.449   2.396  -2.862  0.00  0.00    -0.252 OA
ATOM      4  N   UNL     1      -2.738   1.426  -3.895  0.00  0.00    -0.269 N 
ATOM      5  H   UNL     1      -1.960   1.172  -1.504  0.00  0.00    +0.151 HD
ATOM      6  H   UNL     1      -1.851   1.040  -3.834  0.00  0.00    +0.156 HD
ENDROOT
BRANCH   4   7
ATOM      7  C   UNL     1      -3.361   1.559  -5.144  0.00  0.00    +0.035 A 
ATOM      8  C   UNL     1      -3.166   0.594  -6.123  0.00  0.00    +0.025 A 
ATOM      9  C   UNL     1      -3.779   0.724  -7.353  0.00  0.00    +0.025 A 
ATOM     10  C   UNL     1      -4.590   1.821  -7.612  0.00  0.00    +0.030 A 
ATOM     11  C   UNL     1      -4.785   2.787  -6.633  0.00  0.00    +0.025 A 
ATOM     12  C   UNL     1      -4.176   2.653  -5.401  0.00  0.00    +0.025 A 
BRANCH  10  13
ATOM     13  N   UNL     1      -5.211   1.954  -8.859  0.00  0.00    -0.330 N 
ATOM     14  C   UNL     1      -5.106   0.879  -9.847  0.00  0.00    +0.129 C 
BRANCH  13  15
ATOM     15  C   UNL     1      -5.966   3.169  -9.175  0.00  0.00    +0.070 C 
ATOM     16  C   UNL     1      -7.445   2.819  -9.362  0.00  0.00    +0.004 C 
ATOM     17  C   UNL     1      -8.214   4.077  -9.770  0.00  0.00    -0.077 C 
ATOM     18  N   UNL     1      -7.671   4.600 -11.029  0.00  0.00    +0.378 N 
ATOM     19  C   UNL     1      -6.273   5.005 -10.839  0.00  0.00    -0.077 C 
ATOM     20  C   UNL     1      -5.429   3.783 -10.472  0.00  0.00    +0.004 C 
ATOM     21  C   UNL     1      -8.462   5.762 -11.457  0.00  0.00    -0.096 C 
ATOM     22  H   UNL     1      -7.719   3.884 -11.738  0.00  0.00    -0.082 HD
ENDBRANCH  13  15
ENDBRANCH  10  13
ENDBRANCH   4   7
BRANCH   1  23
ATOM     23  C   UNL     1      -3.509   2.063  -0.357  0.00  0.00    +0.105 C 
ATOM     24  C   UNL     1      -4.438   0.953   0.136  0.00  0.00    +0.033 C 
BRANCH  23  27
ATOM     25  C   UNL     1      -3.482   4.645   1.481  0.00  0.00    +0.068 C 
ATOM     26  C   UNL     1      -2.482   3.518   1.524  0.00  0.00    +0.065 A 
ATOM     27  C   UNL     1      -2.494   2.379   0.712  0.00  0.00    +0.016 A 
ATOM     28  C   UNL     1      -1.434   1.611   1.056  0.00  0.00    +0.041 A 
ATOM     29  N   UNL     1      -0.775   2.242   2.050  0.00  0.00    -0.271 N 
ATOM     30  N   UNL     1      -1.449   3.439   2.323  0.00  0.00    -0.176 NA
ATOM     31  C   UNL     1       0.435   1.761   2.722  0.00  0.00    +0.172 C 
ATOM     32  C   UNL     1      -1.058   0.288   0.440  0.00  0.00    +0.065 C 
ENDBRANCH  23  27
ENDBRANCH   1  23
TORSDOF 5
