REMARK  Name = ZINC35877597
REMARK  11 active torsions:
REMARK  status: ('A' for Active; 'I' for Inactive)
REMARK    1  A    between atoms: C_1  and  C_2
REMARK    2  A    between atoms: C_2  and  O_3
REMARK    3  A    between atoms: O_3  and  C_4
REMARK    4  A    between atoms: C_4  and  C_6
REMARK    5  A    between atoms: C_9  and  N_12
REMARK    6  A    between atoms: C_13  and  C_15
REMARK    7  A    between atoms: C_18  and  C_33
REMARK    8  A    between atoms: C_24  and  C_32
REMARK    9  A    between atoms: C_26  and  C_31
REMARK   10  A    between atoms: C_33  and  C_35
REMARK   11  A    between atoms: C_33  and  O_36
REMARK                            x       y       z     vdW  Elec       q    Type
REMARK                         _______ _______ _______ _____ _____    ______ ____
ROOT
ATOM      1  C   UNL     1       4.125  -5.987  -7.187  0.00  0.00    +0.076 C 
ATOM      2  C   UNL     1       3.423  -5.589  -8.508  0.00  0.00    -0.001 C 
ATOM      3  C   UNL     1       2.462  -6.777  -8.762  0.00  0.00    -0.040 C 
ATOM      4  N   UNL     1       3.245  -7.956  -8.304  0.00  0.00    +0.395 N 
ATOM      5  C   UNL     1       3.970  -7.510  -7.100  0.00  0.00    +0.049 C 
ATOM      6  C   UNL     1       5.309  -8.186  -6.988  0.00  0.00    -0.027 A 
ATOM      7  C   UNL     1       6.423  -8.217  -7.797  0.00  0.00    +0.008 A 
ATOM      8  C   UNL     1       7.534  -8.948  -7.417  0.00  0.00    -0.050 A 
ATOM      9  C   UNL     1       7.523  -9.647  -6.223  0.00  0.00    +0.008 A 
ATOM     10  C   UNL     1       6.410  -9.617  -5.409  0.00  0.00    -0.029 A 
ATOM     11  C   UNL     1       5.287  -8.883  -5.784  0.00  0.00    +0.039 A 
ATOM     12  N   UNL     1       4.061  -8.698  -5.142  0.00  0.00    -0.286 N 
ATOM     13  C   UNL     1       3.232  -7.905  -5.847  0.00  0.00    +0.211 C 
ATOM     14  O   UNL     1       2.109  -7.573  -5.533  0.00  0.00    -0.277 OA
ATOM     15  C   UNL     1       6.408 -10.382  -4.111  0.00  0.00    +0.045 C 
ATOM     16  C   UNL     1       8.754  -8.984  -8.302  0.00  0.00    +0.044 C 
ATOM     17  H   UNL     1       2.625  -8.719  -8.075  0.00  0.00    -0.083 HD
ATOM     18  H   UNL     1       3.833  -9.096  -4.287  0.00  0.00    +0.155 HD
ATOM     19  H   UNL     1       3.899  -8.239  -9.018  0.00  0.00    -0.083 HD
ENDROOT
BRANCH   1  21
ATOM     20  N   UNL     1       4.165  -5.013  -4.914  0.00  0.00    -0.285 N 
ATOM     21  C   UNL     1       3.451  -5.323  -6.014  0.00  0.00    +0.220 C 
ATOM     22  O   UNL     1       2.267  -5.067  -6.061  0.00  0.00    -0.275 OA
ATOM     23  H   UNL     1       5.124  -5.161  -4.900  0.00  0.00    +0.155 HD
BRANCH  20  27
ATOM     24  C   UNL     1       2.254  -3.425  -1.571  0.00  0.00    +0.059 A 
ATOM     25  C   UNL     1       1.812  -3.092  -2.855  0.00  0.00    +0.017 A 
ATOM     26  C   UNL     1       2.446  -3.619  -3.957  0.00  0.00    +0.024 A 
ATOM     27  C   UNL     1       3.525  -4.482  -3.795  0.00  0.00    +0.033 A 
ATOM     28  C   UNL     1       3.968  -4.816  -2.518  0.00  0.00    +0.024 A 
ATOM     29  C   UNL     1       3.342  -4.288  -1.411  0.00  0.00    +0.017 A 
BRANCH  24  30
ATOM     30  C   UNL     1       1.577  -2.863  -0.387  0.00  0.00    +0.339 C 
ATOM     31  O   UNL     1       1.966  -3.149   0.728  0.00  0.00    -0.245 OA
BRANCH  30  32
ATOM     32  O   UNL     1       0.528  -2.031  -0.542  0.00  0.00    -0.461 OA
BRANCH  32  34
ATOM     33  C   UNL     1      -1.244  -0.605   0.274  0.00  0.00    +0.048 C 
ATOM     34  C   UNL     1      -0.079  -1.524   0.647  0.00  0.00    +0.229 C 
ENDBRANCH  32  34
ENDBRANCH  30  32
ENDBRANCH  24  30
ENDBRANCH  20  27
ENDBRANCH   1  21
BRANCH   3  35
ATOM     35  C   UNL     1       2.128  -6.893 -10.251  0.00  0.00    +0.098 C 
ATOM     36  C   UNL     1       1.314  -5.673 -10.687  0.00  0.00    +0.036 C 
BRANCH  35  37
ATOM     37  O   UNL     1       3.338  -6.953 -11.007  0.00  0.00    -0.394 OA
ATOM     38  H   UNL     1       3.907  -6.178 -10.902  0.00  0.00    +0.210 HD
ENDBRANCH  35  37
ENDBRANCH   3  35
TORSDOF 7
