REMARK  Name = ZINC36313545
REMARK  10 active torsions:
REMARK  status: ('A' for Active; 'I' for Inactive)
REMARK    1  A    between atoms: C_3  and  C_6
REMARK    2  A    between atoms: C_6  and  N_7
REMARK    3  A    between atoms: N_7  and  C_8
REMARK    4  A    between atoms: N_7  and  C_25
REMARK    5  A    between atoms: C_8  and  C_9
REMARK    6  A    between atoms: C_25  and  C_26
REMARK    7  A    between atoms: C_26  and  C_28
REMARK    8  A    between atoms: C_26  and  O_37
REMARK    9  A    between atoms: C_28  and  O_29
REMARK   10  A    between atoms: O_29  and  C_30
REMARK                            x       y       z     vdW  Elec       q    Type
REMARK                         _______ _______ _______ _____ _____    ______ ____
ROOT
ATOM      1  N   UNL     1       4.349   0.617   1.311  0.00  0.00    +0.391 N 
ATOM      2  H   UNL     1       4.016   1.484   1.706  0.00  0.00    -0.080 HD
ENDROOT
BRANCH   1   3
ATOM      3  C   UNL     1       3.918   0.519  -0.089  0.00  0.00    -0.002 C 
BRANCH   3   6
ATOM      4  C   UNL     1       0.380   1.534  -0.279  0.00  0.00    +0.041 A 
ATOM      5  C   UNL     1       1.756   1.848  -0.213  0.00  0.00    +0.042 A 
ATOM      6  C   UNL     1       2.421   0.679  -0.166  0.00  0.00    +0.089 A 
ATOM      7  O   UNL     1       1.525  -0.320  -0.199  0.00  0.00    -0.470 OA
ATOM      8  C   UNL     1       0.285   0.192  -0.268  0.00  0.00    +0.195 A 
ENDBRANCH   3   6
ENDBRANCH   1   3
BRANCH   1   9
ATOM      9  C   UNL     1       3.800  -0.512   2.073  0.00  0.00    -0.003 C 
BRANCH   9  10
ATOM     10  C   UNL     1       4.094  -0.320   3.539  0.00  0.00    +0.094 A 
ATOM     11  N   UNL     1       3.791  -1.312   4.415  0.00  0.00    -0.312 N 
ATOM     12  H   UNL     1       3.391  -2.132   4.085  0.00  0.00    +0.170 HD
ATOM     13  C   UNL     1       4.036  -1.182   5.732  0.00  0.00    +0.260 A 
ATOM     14  O   UNL     1       3.760  -2.082   6.507  0.00  0.00    -0.267 OA
ATOM     15  C   UNL     1       4.629   0.034   6.209  0.00  0.00    +0.075 A 
ATOM     16  C   UNL     1       4.980   0.390   7.586  0.00  0.00    -0.023 A 
ATOM     17  C   UNL     1       5.528   1.608   7.776  0.00  0.00    -0.004 A 
ATOM     18  S   UNL     1       5.616   2.333   6.159  0.00  0.00    -0.073 S 
ATOM     19  C   UNL     1       4.906   0.999   5.230  0.00  0.00    +0.116 A 
ATOM     20  N   UNL     1       4.639   0.796   3.942  0.00  0.00    -0.229 NA
ATOM     21  C   UNL     1       5.959   2.231   9.068  0.00  0.00    +0.043 C 
ATOM     22  C   UNL     1       6.829   1.233   9.845  0.00  0.00    +0.005 C 
ATOM     23  C   UNL     1       5.918   0.387  10.728  0.00  0.00    +0.001 C 
ATOM     24  C   UNL     1       4.568   0.181  10.042  0.00  0.00    +0.005 C 
ATOM     25  C   UNL     1       4.743  -0.585   8.736  0.00  0.00    +0.037 C 
ENDBRANCH   9  10
ENDBRANCH   1   9
BRANCH   1  26
ATOM     26  C   UNL     1       5.817   0.583   1.375  0.00  0.00    -0.043 C 
BRANCH  26  27
ATOM     27  C   UNL     1       6.386   1.826   0.688  0.00  0.00    +0.135 C 
BRANCH  27  28
ATOM     28  O   UNL     1       6.003   2.992   1.420  0.00  0.00    -0.390 OA
ATOM     29  H   UNL     1       6.316   3.003   2.335  0.00  0.00    +0.210 HD
ENDBRANCH  27  28
BRANCH  27  30
ATOM     30  C   UNL     1       7.912   1.730   0.644  0.00  0.00    +0.258 C 
BRANCH  30  31
ATOM     31  O   UNL     1       8.437   2.832  -0.099  0.00  0.00    -0.489 OA
BRANCH  31  32
ATOM     32  C   UNL     1       9.788   2.898  -0.234  0.00  0.00    +0.121 A 
ATOM     33  C   UNL     1      10.591   1.918   0.332  0.00  0.00    +0.047 A 
ATOM     34  C   UNL     1      11.964   1.986   0.193  0.00  0.00    +0.023 A 
ATOM     35  C   UNL     1      12.538   3.031  -0.509  0.00  0.00    +0.041 A 
ATOM     36  C   UNL     1      11.739   4.009  -1.074  0.00  0.00    +0.023 A 
ATOM     37  C   UNL     1      10.366   3.941  -0.943  0.00  0.00    +0.047 A 
ATOM     38 CL   UNL     1      14.264   3.115  -0.682  0.00  0.00    -0.084 Cl
ENDBRANCH  31  32
ENDBRANCH  30  31
ENDBRANCH  27  30
ENDBRANCH  26  27
ENDBRANCH   1  26
TORSDOF 10
