REMARK  Name = ZINC48533211
REMARK  6 active torsions:
REMARK  status: ('A' for Active; 'I' for Inactive)
REMARK    1  A    between atoms: C_1  and  C_2
REMARK    2  A    between atoms: C_14  and  O_26
REMARK    3  A    between atoms: C_17  and  C_20
REMARK    4  A    between atoms: C_17  and  C_23
REMARK    5  A    between atoms: C_20  and  C_21
REMARK    6  A    between atoms: C_23  and  C_24
REMARK                            x       y       z     vdW  Elec       q    Type
REMARK                         _______ _______ _______ _____ _____    ______ ____
ROOT
ATOM      1  C   UNL     1       0.124   2.259  -1.092  0.00  0.00    +0.016 C 
ATOM      2  C   UNL     1       0.047   0.774  -0.731  0.00  0.00    -0.005 C 
ATOM      3  C   UNL     1      -1.417   0.400  -0.515  0.00  0.00    +0.016 C 
ATOM      4  C   UNL     1      -1.802   0.611   0.949  0.00  0.00    +0.066 C 
ATOM      5  C   UNL     1      -1.051   1.799   1.546  0.00  0.00    +0.174 C 
ATOM      6  C   UNL     1       0.431   1.443   1.721  0.00  0.00    +0.096 C 
ATOM      7  C   UNL     1       0.808   0.550   0.550  0.00  0.00    -0.062 C 
ATOM      8  C   UNL     1       1.714  -0.362   0.702  0.00  0.00    -0.026 C 
ATOM      9  C   UNL     1       2.104  -1.340  -0.369  0.00  0.00    +0.038 C 
ATOM     10  C   UNL     1       0.976  -1.439  -1.402  0.00  0.00    +0.066 C 
ATOM     11  C   UNL     1       0.637  -0.036  -1.876  0.00  0.00    +0.038 C 
ATOM     12  C   UNL     1      -0.362  -0.121  -3.029  0.00  0.00    +0.120 C 
ATOM     13  C   UNL     1       0.266  -0.863  -4.210  0.00  0.00    +0.046 C 
ATOM     14  C   UNL     1       0.572  -2.307  -3.799  0.00  0.00    +0.038 C 
ATOM     15  C   UNL     1       1.450  -2.267  -2.575  0.00  0.00    +0.144 C 
ATOM     16  O   UNL     1       2.475  -2.902  -2.511  0.00  0.00    -0.296 OA
ATOM     17  O   UNL     1      -1.613   2.133   2.825  0.00  0.00    -0.346 OA
ATOM     18  C   UNL     1      -1.528   3.577   2.901  0.00  0.00    +0.191 C 
ATOM     19  C   UNL     1      -1.800   3.986   1.432  0.00  0.00    +0.191 C 
ATOM     20  O   UNL     1      -1.168   2.933   0.677  0.00  0.00    -0.346 OA
ENDROOT
BRANCH  12  21
ATOM     21  O   UNL     1      -1.528  -0.825  -2.596  0.00  0.00    -0.391 OA
ATOM     22  H   UNL     1      -2.208  -0.918  -3.277  0.00  0.00    +0.210 HD
ENDBRANCH  12  21
BRANCH  14  23
ATOM     23  C   UNL     1       1.326  -3.013  -4.927  0.00  0.00    +0.041 C 
BRANCH  23  24
ATOM     24  C   UNL     1       1.508  -4.468  -4.576  0.00  0.00    -0.034 C 
ATOM     25  C   UNL     1       1.028  -5.397  -5.365  0.00  0.00    +0.004 C 
ENDBRANCH  23  24
ENDBRANCH  14  23
BRANCH  14  26
ATOM     26  C   UNL     1      -0.735  -3.046  -3.507  0.00  0.00    +0.041 C 
BRANCH  26  27
ATOM     27  C   UNL     1      -1.660  -2.917  -4.690  0.00  0.00    -0.034 C 
ATOM     28  C   UNL     1      -2.141  -3.991  -5.266  0.00  0.00    +0.004 C 
ENDBRANCH  26  27
ENDBRANCH  14  26
TORSDOF 5
