REMARK  Name = ZINC14112086
REMARK  7 active torsions:
REMARK  status: ('A' for Active; 'I' for Inactive)
REMARK    1  A    between atoms: C_3  and  O_29
REMARK    2  A    between atoms: C_6  and  C_7
REMARK    3  A    between atoms: N_10  and  C_13
REMARK    4  A    between atoms: C_13  and  C_14
REMARK    5  A    between atoms: C_14  and  C_16
REMARK    6  A    between atoms: C_17  and  N_28
REMARK    7  A    between atoms: N_18  and  C_25
REMARK                            x       y       z     vdW  Elec       q    Type
REMARK                         _______ _______ _______ _____ _____    ______ ____
ROOT
ATOM      1  C   UNL     1      -5.340  -3.275  -1.754  0.00  0.00    +0.185 C 
ATOM      2  O   UNL     1      -4.416  -3.325  -2.541  0.00  0.00    -0.290 OA
ENDROOT
BRANCH   1   3
ATOM      3  C   UNL     1      -6.377  -4.229  -1.821  0.00  0.00    +0.121 A 
ATOM      4  C   UNL     1      -6.436  -5.164  -2.870  0.00  0.00    +0.116 A 
ATOM      5  N   UNL     1      -7.459  -6.068  -2.892  0.00  0.00    -0.278 N 
ATOM      6  C   UNL     1      -8.402  -6.079  -1.937  0.00  0.00    +0.331 A 
ATOM      7  O   UNL     1      -9.292  -6.904  -2.002  0.00  0.00    -0.246 OA
ATOM      8  N   UNL     1      -8.398  -5.211  -0.912  0.00  0.00    -0.274 N 
ATOM      9  H   UNL     1      -9.100  -5.256  -0.244  0.00  0.00    +0.173 HD
ATOM     10  C   UNL     1      -7.426  -4.282  -0.795  0.00  0.00    +0.266 A 
ATOM     11  O   UNL     1      -7.423  -3.501   0.138  0.00  0.00    -0.267 OA
BRANCH   5  12
ATOM     12  C   UNL     1      -7.530  -7.046  -3.981  0.00  0.00    +0.094 C 
ATOM     13  C   UNL     1      -7.773  -8.508  -3.603  0.00  0.00    +0.027 C 
ATOM     14  C   UNL     1      -6.393  -8.064  -4.091  0.00  0.00    +0.027 C 
ENDBRANCH   5  12
BRANCH   4  15
ATOM     15  N   UNL     1      -5.490  -5.167  -3.848  0.00  0.00    -0.344 N 
ATOM     16  H   UNL     1      -4.596  -4.841  -3.658  0.00  0.00    +0.144 HD
ATOM     17  H   UNL     1      -5.709  -5.494  -4.734  0.00  0.00    +0.144 HD
ENDBRANCH   4  15
ENDBRANCH   1   3
BRANCH   1  18
ATOM     18  C   UNL     1      -5.378  -2.194  -0.705  0.00  0.00    +0.164 C 
BRANCH  18  22
ATOM     19  C   UNL     1      -2.397   0.749  -1.119  0.00  0.00    -0.042 C 
ATOM     20  C   UNL     1      -3.082   0.374  -2.178  0.00  0.00    -0.008 C 
ATOM     21  C   UNL     1      -4.228  -0.594  -2.111  0.00  0.00    +0.112 C 
ATOM     22  N   UNL     1      -4.194  -1.335  -0.844  0.00  0.00    -0.291 NA
ATOM     23  C   UNL     1      -4.084  -0.402   0.290  0.00  0.00    +0.090 C 
ATOM     24  C   UNL     1      -2.688   0.230   0.261  0.00  0.00    +0.051 C 
BRANCH  19  30
ATOM     25  C   UNL     1      -1.560   3.017  -1.716  0.00  0.00    +0.012 A 
ATOM     26  C   UNL     1      -0.526   3.914  -1.878  0.00  0.00    +0.046 A 
ATOM     27  C   UNL     1       0.782   3.522  -1.625  0.00  0.00    +0.117 A 
ATOM     28  C   UNL     1       1.054   2.226  -1.207  0.00  0.00    +0.046 A 
ATOM     29  C   UNL     1       0.025   1.323  -1.042  0.00  0.00    +0.012 A 
ATOM     30  C   UNL     1      -1.291   1.713  -1.295  0.00  0.00    -0.022 A 
BRANCH  27  31
ATOM     31  O   UNL     1       1.798   4.409  -1.788  0.00  0.00    -0.507 OA
ATOM     32  H   UNL     1       2.005   4.919  -0.993  0.00  0.00    +0.292 HD
ENDBRANCH  27  31
ENDBRANCH  19  30
ENDBRANCH  18  22
ENDBRANCH   1  18
TORSDOF 7
