REMARK  Name = ZINC36641814
REMARK  6 active torsions:
REMARK  status: ('A' for Active; 'I' for Inactive)
REMARK    1  A    between atoms: C_1  and  O_2
REMARK    2  A    between atoms: O_2  and  C_3
REMARK    3  A    between atoms: C_6  and  C_22
REMARK    4  A    between atoms: C_8  and  C_9
REMARK    5  A    between atoms: C_9  and  S_10
REMARK    6  A    between atoms: S_10  and  C_11
REMARK                            x       y       z     vdW  Elec       q    Type
REMARK                         _______ _______ _______ _____ _____    ______ ____
ROOT
ATOM      1  C   UNL     1      -1.200  -0.637   0.010  0.00  0.00    +0.124 A 
ATOM      2  C   UNL     1      -2.375   0.101   0.019  0.00  0.00    +0.046 A 
ATOM      3  C   UNL     1      -3.596  -0.545   0.027  0.00  0.00    +0.006 A 
ATOM      4  C   UNL     1      -3.648  -1.927   0.026  0.00  0.00    -0.055 A 
ATOM      5  C   UNL     1      -2.479  -2.665   0.017  0.00  0.00    +0.010 A 
ATOM      6  C   UNL     1      -1.255  -2.023   0.003  0.00  0.00    +0.005 A 
ENDROOT
BRANCH   4   7
ATOM      7  C   UNL     1      -4.981  -2.629   0.034  0.00  0.00    +0.011 C 
ATOM      8  C   UNL     1      -5.559  -2.636  -1.359  0.00  0.00    +0.052 A 
ATOM      9  C   UNL     1      -6.862  -2.381  -1.621  0.00  0.00    +0.035 A 
ATOM     10  N   UNL     1      -7.026  -2.468  -2.966  0.00  0.00    -0.348 N 
ATOM     11  C   UNL     1      -5.817  -2.778  -3.491  0.00  0.00    +0.196 A 
ATOM     12  N   UNL     1      -4.947  -2.876  -2.519  0.00  0.00    -0.242 NA
ATOM     13  H   UNL     1      -7.851  -2.334  -3.457  0.00  0.00    +0.166 HD
ATOM     14  C   UNL     1      -7.874  -2.068  -0.549  0.00  0.00    +0.036 C 
ATOM     15  C   UNL     1      -7.264  -2.475   0.800  0.00  0.00    -0.075 C 
ATOM     16  N   UNL     1      -5.910  -1.916   0.925  0.00  0.00    +0.388 N 
ATOM     17  H   UNL     1      -5.595  -2.006   1.879  0.00  0.00    -0.084 HD
ATOM     18  H   UNL     1      -5.931  -0.939   0.674  0.00  0.00    -0.084 HD
ENDBRANCH   4   7
BRANCH   1  20
ATOM     19  C   UNL     1      -0.017   1.425   0.010  0.00  0.00    +0.277 C 
ATOM     20  O   UNL     1       0.002  -0.004   0.002  0.00  0.00    -0.495 OA
ENDBRANCH   1  20
BRANCH   6  21
ATOM     21  C   UNL     1       0.018  -2.829  -0.013  0.00  0.00    +0.115 C 
BRANCH  21  22
ATOM     22  S   UNL     1       0.545  -3.161   1.691  0.00  0.00    -0.088 S 
BRANCH  22  23
ATOM     23  C   UNL     1       2.026  -4.098   1.504  0.00  0.00    +0.129 C 
ATOM     24  N   UNL     1       2.534  -4.413   0.317  0.00  0.00    -0.363 N 
ATOM     25  C   UNL     1       3.662  -5.327   0.547  0.00  0.00    +0.101 C 
ATOM     26  C   UNL     1       4.778  -5.148  -0.438  0.00  0.00    +0.026 C 
ATOM     27  C   UNL     1       5.725  -4.013  -0.066  0.00  0.00    +0.002 C 
ATOM     28  C   UNL     1       6.258  -4.283   1.346  0.00  0.00    +0.002 C 
ATOM     29  C   UNL     1       5.099  -4.170   2.326  0.00  0.00    +0.024 C 
ATOM     30  C   UNL     1       3.989  -5.136   2.018  0.00  0.00    +0.094 C 
ATOM     31  N   UNL     1       2.731  -4.543   2.537  0.00  0.00    -0.321 N 
ATOM     32  H   UNL     1       2.469  -4.491   3.470  0.00  0.00    +0.148 HD
ATOM     33  H   UNL     1       2.219  -4.098  -0.544  0.00  0.00    +0.162 HD
ENDBRANCH  22  23
ENDBRANCH  21  22
ENDBRANCH   6  21
TORSDOF 5
