REMARK  Name = ZINC64920429
REMARK  5 active torsions:
REMARK  status: ('A' for Active; 'I' for Inactive)
REMARK    1  A    between atoms: C_3  and  S_15
REMARK    2  A    between atoms: C_5  and  C_6
REMARK    3  A    between atoms: C_9  and  C_11
REMARK    4  A    between atoms: S_15  and  N_18
REMARK    5  A    between atoms: N_18  and  C_19
REMARK                            x       y       z     vdW  Elec       q    Type
REMARK                         _______ _______ _______ _____ _____    ______ ____
ROOT
ATOM      1  C   UNL     1      -0.017   1.378   0.010  0.00  0.00    +0.023 A 
ATOM      2  C   UNL     1       1.184   2.049   0.002  0.00  0.00    +0.037 A 
ATOM      3  C   UNL     1       2.342   1.339  -0.013  0.00  0.00    +0.143 A 
ATOM      4  S   UNL     1       1.754  -0.346  -0.017  0.00  0.00    -0.064 S 
ATOM      5  C   UNL     1       0.002  -0.004   0.002  0.00  0.00    +0.077 A 
ENDROOT
BRANCH   5   6
ATOM      6  C   UNL     1      -1.127  -0.947   0.008  0.00  0.00    +0.255 A 
ATOM      7  N   UNL     1      -2.404  -0.635   0.017  0.00  0.00    -0.107 NA
ATOM      8  N   UNL     1      -3.104  -1.714   0.021  0.00  0.00    -0.112 NA
ATOM      9  C   UNL     1      -2.312  -2.749   0.014  0.00  0.00    +0.221 A 
ATOM     10  O   UNL     1      -1.046  -2.293   0.000  0.00  0.00    -0.419 OA
BRANCH   9  11
ATOM     11  C   UNL     1      -2.736  -4.194   0.016  0.00  0.00    +0.077 C 
ATOM     12  C   UNL     1      -3.977  -4.471   0.881  0.00  0.00    +0.013 C 
ATOM     13  C   UNL     1      -4.820  -4.169  -0.369  0.00  0.00    +0.001 C 
ATOM     14  C   UNL     1      -3.594  -4.586  -1.199  0.00  0.00    +0.013 C 
ENDBRANCH   9  11
ENDBRANCH   5   6
BRANCH   3  15
ATOM     15  S   UNL     1       4.002   1.931  -0.027  0.00  0.00    +0.065 S 
ATOM     16  O   UNL     1       4.797   0.897  -0.590  0.00  0.00    -0.153 OA
ATOM     17  O   UNL     1       3.961   3.243  -0.571  0.00  0.00    -0.153 OA
BRANCH  15  18
ATOM     18  N   UNL     1       4.479   2.088   1.552  0.00  0.00    -0.186 NA
ATOM     19  H   UNL     1       4.681   2.965   1.912  0.00  0.00    +0.148 HD
BRANCH  18  20
ATOM     20  C   UNL     1       4.595   0.901   2.403  0.00  0.00    +0.077 C 
ATOM     21  C   UNL     1       3.322   0.739   3.260  0.00  0.00    +0.020 C 
ATOM     22  C   UNL     1       3.846   0.217   4.622  0.00  0.00    +0.002 C 
ATOM     23  C   UNL     1       5.167   1.004   4.804  0.00  0.00    +0.002 C 
ATOM     24  C   UNL     1       5.768   1.070   3.385  0.00  0.00    +0.020 C 
ENDBRANCH  18  20
ENDBRANCH  15  18
ENDBRANCH   3  15
TORSDOF 5
