REMARK  Name = ZINC27580377
REMARK  8 active torsions:
REMARK  status: ('A' for Active; 'I' for Inactive)
REMARK    1  A    between atoms: C_1  and  C_2
REMARK    2  A    between atoms: C_4  and  C_29
REMARK    3  A    between atoms: C_6  and  C_28
REMARK    4  A    between atoms: C_7  and  C_11
REMARK    5  A    between atoms: N_13  and  C_14
REMARK    6  A    between atoms: C_14  and  C_15
REMARK    7  A    between atoms: C_15  and  N_21
REMARK    8  A    between atoms: N_24  and  C_27
REMARK                            x       y       z     vdW  Elec       q    Type
REMARK                         _______ _______ _______ _____ _____    ______ ____
ROOT
ATOM      1  C   UNL     1       0.887   4.967   1.694  0.00  0.00    +0.280 C 
ATOM      2  O   UNL     1      -0.041   5.748   1.782  0.00  0.00    -0.267 OA
ATOM      3  N   UNL     1       0.650   3.642   1.630  0.00  0.00    -0.307 N 
ATOM      4  H   UNL     1       1.489   2.936   1.551  0.00  0.00    +0.149 HD
ENDROOT
BRANCH   1  11
ATOM      5  C   UNL     1       8.239   5.839   1.405  0.00  0.00    +0.044 C 
ATOM      6  C   UNL     1       6.772   6.171   1.491  0.00  0.00    -0.047 A 
ATOM      7  C   UNL     1       6.372   7.497   1.586  0.00  0.00    +0.007 A 
ATOM      8  C   UNL     1       5.046   7.817   1.665  0.00  0.00    -0.039 A 
ATOM      9  C   UNL     1       4.087   6.801   1.651  0.00  0.00    +0.027 A 
ATOM     10  C   UNL     1       2.627   6.778   1.718  0.00  0.00    +0.008 A 
ATOM     11  C   UNL     1       2.268   5.469   1.659  0.00  0.00    +0.193 A 
ATOM     12  O   UNL     1       3.373   4.698   1.570  0.00  0.00    -0.450 OA
ATOM     13  C   UNL     1       4.487   5.455   1.556  0.00  0.00    +0.137 A 
ATOM     14  C   UNL     1       5.842   5.155   1.476  0.00  0.00    +0.050 A 
ATOM     15  C   UNL     1       1.705   7.965   1.827  0.00  0.00    +0.048 C 
ATOM     16  C   UNL     1       4.620   9.259   1.766  0.00  0.00    +0.044 C 
ENDBRANCH   1  11
BRANCH   3  17
ATOM     17  C   UNL     1      -0.727   3.143   1.665  0.00  0.00    +0.127 C 
BRANCH  17  18
ATOM     18  C   UNL     1      -0.717   1.615   1.577  0.00  0.00    +0.037 C 
ATOM     19  C   UNL     1      -0.051   1.183   0.269  0.00  0.00    +0.024 C 
ATOM     20  C   UNL     1      -0.832   1.757  -0.915  0.00  0.00    +0.002 C 
ATOM     21  C   UNL     1      -2.270   1.235  -0.878  0.00  0.00    +0.000 C 
ATOM     22  C   UNL     1      -2.936   1.667   0.430  0.00  0.00    +0.002 C 
ATOM     23  C   UNL     1      -2.155   1.093   1.613  0.00  0.00    +0.024 C 
BRANCH  18  24
ATOM     24  N   UNL     1       0.033   1.064   2.714  0.00  0.00    -0.299 NA
ATOM     25  C   UNL     1       0.140  -0.398   2.615  0.00  0.00    +0.066 C 
ATOM     26  C   UNL     1       0.994  -0.924   3.771  0.00  0.00    -0.064 C 
ATOM     27  N   UNL     1       0.381  -0.529   5.047  0.00  0.00    +0.379 N 
ATOM     28  C   UNL     1       0.274   0.933   5.146  0.00  0.00    -0.064 C 
ATOM     29  C   UNL     1      -0.580   1.459   3.990  0.00  0.00    +0.066 C 
ATOM     30  C   UNL     1       1.131  -1.080   6.184  0.00  0.00    -0.096 C 
ATOM     31  H   UNL     1      -0.636  -0.947   5.080  0.00  0.00    -0.082 HD
ENDBRANCH  18  24
ENDBRANCH  17  18
ENDBRANCH   3  17
TORSDOF 4
