REMARK  Name = ZINC06660268
REMARK  8 active torsions:
REMARK  status: ('A' for Active; 'I' for Inactive)
REMARK    1  A    between atoms: C_1  and  C_2
REMARK    2  A    between atoms: C_4  and  O_27
REMARK    3  A    between atoms: C_6  and  C_26
REMARK    4  A    between atoms: C_7  and  C_13
REMARK    5  A    between atoms: C_13  and  C_14
REMARK    6  A    between atoms: N_16  and  C_17
REMARK    7  A    between atoms: C_21  and  C_23
REMARK    8  A    between atoms: C_23  and  C_25
REMARK                            x       y       z     vdW  Elec       q    Type
REMARK                         _______ _______ _______ _____ _____    ______ ____
ROOT
ATOM      1  C   UNL     1      -8.386   6.181   1.042  0.00  0.00    +0.044 C 
ATOM      2  C   UNL     1      -7.251   5.191   1.106  0.00  0.00    -0.043 A 
ATOM      3  C   UNL     1      -6.659   4.907   2.326  0.00  0.00    +0.049 A 
ATOM      4  C   UNL     1      -5.616   4.001   2.401  0.00  0.00    +0.128 A 
ATOM      5  C   UNL     1      -5.162   3.373   1.231  0.00  0.00    +0.062 A 
ATOM      6  C   UNL     1      -4.065   2.405   1.271  0.00  0.00    -0.026 A 
ATOM      7  C   UNL     1      -3.669   1.835   0.103  0.00  0.00    +0.049 A 
ATOM      8  C   UNL     1      -4.321   2.176  -1.099  0.00  0.00    +0.341 A 
ATOM      9  O   UNL     1      -3.959   1.655  -2.139  0.00  0.00    -0.245 OA
ATOM     10  O   UNL     1      -5.329   3.061  -1.128  0.00  0.00    -0.422 OA
ATOM     11  C   UNL     1      -5.768   3.667  -0.003  0.00  0.00    +0.143 A 
ATOM     12  C   UNL     1      -6.813   4.579  -0.051  0.00  0.00    +0.050 A 
ATOM     13  C   UNL     1      -3.390   2.053   2.572  0.00  0.00    +0.045 C 
ENDROOT
BRANCH   4  14
ATOM     14  O   UNL     1      -5.037   3.723   3.596  0.00  0.00    -0.506 OA
ATOM     15  H   UNL     1      -5.447   2.987   4.070  0.00  0.00    +0.292 HD
ENDBRANCH   4  14
BRANCH   7  16
ATOM     16  C   UNL     1      -2.540   0.837   0.094  0.00  0.00    +0.138 C 
BRANCH  16  17
ATOM     17  C   UNL     1      -1.233   1.558  -0.114  0.00  0.00    +0.222 C 
ATOM     18  O   UNL     1      -1.220   2.764  -0.242  0.00  0.00    -0.275 OA
ATOM     19  N   UNL     1      -0.079   0.863  -0.158  0.00  0.00    -0.285 N 
ATOM     20  H   UNL     1      -0.095  -0.106  -0.122  0.00  0.00    +0.155 HD
BRANCH  19  21
ATOM     21  C   UNL     1       1.142   1.540  -0.260  0.00  0.00    +0.034 A 
ATOM     22  C   UNL     1       2.267   1.046   0.391  0.00  0.00    +0.023 A 
ATOM     23  C   UNL     1       3.477   1.706   0.289  0.00  0.00    +0.002 A 
ATOM     24  C   UNL     1       3.576   2.867  -0.450  0.00  0.00    +0.011 A 
ATOM     25  C   UNL     1       2.449   3.376  -1.105  0.00  0.00    +0.019 A 
ATOM     26  C   UNL     1       1.228   2.704  -1.006  0.00  0.00    +0.034 A 
BRANCH  25  27
ATOM     27  C   UNL     1       2.550   4.614  -1.894  0.00  0.00    +0.160 C 
ATOM     28  O   UNL     1       1.572   5.053  -2.461  0.00  0.00    -0.292 OA
ATOM     29  C   UNL     1       3.869   5.335  -1.999  0.00  0.00    +0.091 C 
ENDBRANCH  25  27
ENDBRANCH  19  21
ENDBRANCH  16  17
ENDBRANCH   7  16
TORSDOF 5
