REMARK  Name = ZINC66818322
REMARK  6 active torsions:
REMARK  status: ('A' for Active; 'I' for Inactive)
REMARK    1  A    between atoms: C_1  and  C_2
REMARK    2  A    between atoms: C_2  and  C_4
REMARK    3  A    between atoms: C_2  and  N_15
REMARK    4  A    between atoms: C_8  and  S_10
REMARK    5  A    between atoms: S_10  and  N_13
REMARK    6  A    between atoms: N_13  and  C_14
REMARK                            x       y       z     vdW  Elec       q    Type
REMARK                         _______ _______ _______ _____ _____    ______ ____
ROOT
ATOM      1  N   UNL     1       0.688  -0.476  -1.203  0.00  0.00    -0.320 N 
ATOM      2  C   UNL     1       2.070  -0.590  -1.215  0.00  0.00    +0.166 A 
ATOM      3  C   UNL     1       2.739  -1.035  -2.362  0.00  0.00    +0.194 A 
ATOM      4  C   UNL     1       4.134  -1.128  -2.310  0.00  0.00    +0.122 A 
ATOM      5  C   UNL     1       4.550  -1.614  -3.636  0.00  0.00    +0.046 A 
ATOM      6  C   UNL     1       5.779  -1.910  -4.218  0.00  0.00    +0.014 A 
ATOM      7  C   UNL     1       5.829  -2.359  -5.520  0.00  0.00    +0.001 A 
ATOM      8  C   UNL     1       4.660  -2.515  -6.249  0.00  0.00    +0.004 A 
ATOM      9  C   UNL     1       3.437  -2.224  -5.684  0.00  0.00    +0.047 A 
ATOM     10  C   UNL     1       3.365  -1.771  -4.372  0.00  0.00    +0.138 A 
ATOM     11  O   UNL     1       2.324  -1.420  -3.586  0.00  0.00    -0.450 OA
ATOM     12  N   UNL     1       4.771  -0.796  -1.190  0.00  0.00    -0.231 NA
ATOM     13  C   UNL     1       4.099  -0.383  -0.136  0.00  0.00    +0.224 A 
ATOM     14  N   UNL     1       2.784  -0.274  -0.141  0.00  0.00    -0.217 NA
ATOM     15  H   UNL     1       0.175  -0.710  -1.993  0.00  0.00    +0.148 HD
ENDROOT
BRANCH   1  17
ATOM     16  C   UNL     1      -0.019   1.526   0.010  0.00  0.00    +0.033 C 
ATOM     17  C   UNL     1       0.002  -0.004   0.002  0.00  0.00    +0.099 C 
BRANCH  17  18
ATOM     18  C   UNL     1      -1.412  -0.526   0.013  0.00  0.00    -0.026 A 
ATOM     19  C   UNL     1      -2.142  -0.569  -1.161  0.00  0.00    +0.005 A 
ATOM     20  C   UNL     1      -3.438  -1.047  -1.151  0.00  0.00    +0.002 A 
ATOM     21  C   UNL     1      -4.005  -1.483   0.032  0.00  0.00    +0.028 A 
ATOM     22  C   UNL     1      -3.275  -1.441   1.205  0.00  0.00    +0.106 A 
ATOM     23  C   UNL     1      -1.977  -0.966   1.195  0.00  0.00    +0.034 A 
BRANCH  22  24
ATOM     24  S   UNL     1      -3.998  -1.996   2.713  0.00  0.00    +0.058 S 
ATOM     25  O   UNL     1      -3.297  -1.344   3.764  0.00  0.00    -0.153 OA
ATOM     26  O   UNL     1      -5.406  -1.885   2.554  0.00  0.00    -0.153 OA
BRANCH  24  27
ATOM     27  N   UNL     1      -3.663  -3.611   2.851  0.00  0.00    -0.193 NA
ATOM     28  C   UNL     1      -2.277  -4.062   3.005  0.00  0.00    +0.127 C 
ATOM     29  H   UNL     1      -4.384  -4.260   2.831  0.00  0.00    +0.148 HD
ENDBRANCH  24  27
ENDBRANCH  22  24
ENDBRANCH  17  18
ENDBRANCH   1  17
TORSDOF 4
