REMARK  Name = ZINC00036624
REMARK  5 active torsions:
REMARK  status: ('A' for Active; 'I' for Inactive)
REMARK    1  A    between atoms: C_1  and  C_2
REMARK    2  A    between atoms: C_2  and  O_4
REMARK    3  A    between atoms: O_4  and  C_5
REMARK    4  A    between atoms: C_11  and  C_14
REMARK    5  A    between atoms: C_14  and  C_16
REMARK                            x       y       z     vdW  Elec       q    Type
REMARK                         _______ _______ _______ _____ _____    ______ ____
ROOT
ATOM      1  C   UNL     1       0.052  -2.026  -1.224  0.00  0.00    +0.132 A 
ATOM      2  C   UNL     1       0.030  -2.775  -0.051  0.00  0.00    +0.050 A 
ATOM      3  C   UNL     1       0.082  -4.151  -0.096  0.00  0.00    +0.050 A 
ATOM      4  C   UNL     1       0.156  -4.805  -1.320  0.00  0.00    +0.136 A 
ATOM      5  C   UNL     1       0.178  -4.051  -2.502  0.00  0.00    +0.035 A 
ATOM      6  C   UNL     1       0.120  -2.662  -2.450  0.00  0.00    +0.058 A 
ATOM      7  C   UNL     1       0.259  -5.038  -3.597  0.00  0.00    +0.071 A 
ATOM      8  C   UNL     1       0.279  -6.258  -2.993  0.00  0.00    +0.208 A 
ATOM      9  O   UNL     1       0.218  -6.108  -1.665  0.00  0.00    -0.462 OA
ENDROOT
BRANCH   7  10
ATOM     10  C   UNL     1       0.308  -4.760  -5.041  0.00  0.00    +0.232 C 
ATOM     11  O   UNL     1       0.282  -3.610  -5.441  0.00  0.00    -0.283 OA
BRANCH  10  12
ATOM     12  C   UNL     1       0.389  -5.870  -6.000  0.00  0.00    +0.176 A 
ATOM     13  C   UNL     1       0.445  -5.734  -7.352  0.00  0.00    +0.061 A 
ATOM     14  C   UNL     1       0.515  -7.091  -7.893  0.00  0.00    +0.021 A 
ATOM     15  C   UNL     1       0.591  -7.622  -9.183  0.00  0.00    +0.011 A 
ATOM     16  C   UNL     1       0.643  -8.976  -9.355  0.00  0.00    +0.001 A 
ATOM     17  C   UNL     1       0.623  -9.826  -8.258  0.00  0.00    +0.004 A 
ATOM     18  C   UNL     1       0.548  -9.322  -6.977  0.00  0.00    +0.047 A 
ATOM     19  C   UNL     1       0.494  -7.948  -6.777  0.00  0.00    +0.136 A 
ATOM     20  O   UNL     1       0.424  -7.179  -5.673  0.00  0.00    -0.452 OA
ENDBRANCH  10  12
ENDBRANCH   7  10
BRANCH   1  21
ATOM     21  O   UNL     1       0.000  -0.669  -1.164  0.00  0.00    -0.426 OA
BRANCH  21  23
ATOM     22  C   UNL     1       1.145   1.497  -0.854  0.00  0.00    +0.136 C 
ATOM     23  C   UNL     1       1.120  -0.010  -0.826  0.00  0.00    +0.309 C 
ATOM     24  O   UNL     1       2.107  -0.625  -0.499  0.00  0.00    -0.251 OA
ENDBRANCH  21  23
ENDBRANCH   1  21
TORSDOF 4
