REMARK  Name = ZINC44786217
REMARK  7 active torsions:
REMARK  status: ('A' for Active; 'I' for Inactive)
REMARK    1  A    between atoms: C_1  and  C_2
REMARK    2  A    between atoms: C_5  and  C_7
REMARK    3  A    between atoms: C_7  and  C_9
REMARK    4  A    between atoms: C_7  and  N_10
REMARK    5  A    between atoms: C_11  and  C_13
REMARK    6  A    between atoms: C_13  and  C_19
REMARK    7  A    between atoms: N_20  and  O_21
REMARK                            x       y       z     vdW  Elec       q    Type
REMARK                         _______ _______ _______ _____ _____    ______ ____
ROOT
ATOM      1  C   UNL     1       4.649  -3.800   2.380  0.00  0.00    +0.105 C 
ATOM      2  C   UNL     1       4.152  -3.071   3.629  0.00  0.00    +0.024 C 
ATOM      3  C   UNL     1       3.051  -3.897   4.298  0.00  0.00    +0.001 C 
ATOM      4  C   UNL     1       3.611  -5.265   4.695  0.00  0.00    +0.000 C 
ATOM      5  C   UNL     1       4.109  -5.994   3.446  0.00  0.00    +0.001 C 
ATOM      6  C   UNL     1       5.209  -5.168   2.777  0.00  0.00    +0.024 C 
ENDROOT
BRANCH   1   7
ATOM      7  C   UNL     1       5.733  -2.986   1.721  0.00  0.00    +0.147 C 
ATOM      8  N   UNL     1       6.888  -3.517   1.488  0.00  0.00    -0.076 NA
ATOM      9  N   UNL     1       5.492  -1.677   1.368  0.00  0.00    -0.343 N 
ATOM     10  H   UNL     1       4.605  -1.301   1.474  0.00  0.00    +0.144 HD
ATOM     11  H   UNL     1       6.211  -1.131   1.012  0.00  0.00    +0.144 HD
BRANCH   8  12
ATOM     12  O   UNL     1       7.906  -2.752   0.869  0.00  0.00    -0.408 OA
ATOM     13  H   UNL     1       8.734  -3.233   0.736  0.00  0.00    +0.328 HD
ENDBRANCH   8  12
ENDBRANCH   1   7
BRANCH   1  15
ATOM     14  N   UNL     1       3.673  -4.731   0.306  0.00  0.00    -0.305 N 
ATOM     15  C   UNL     1       3.505  -3.986   1.417  0.00  0.00    +0.227 C 
ATOM     16  O   UNL     1       2.433  -3.466   1.641  0.00  0.00    -0.275 OA
ATOM     17  H   UNL     1       4.549  -5.087   0.089  0.00  0.00    +0.149 HD
BRANCH  14  18
ATOM     18  C   UNL     1       2.533  -5.003  -0.573  0.00  0.00    +0.136 C 
ATOM     19  C   UNL     1       1.765  -6.219  -0.051  0.00  0.00    +0.036 C 
BRANCH  18  24
ATOM     20  C   UNL     1       5.356  -6.750  -4.370  0.00  0.00    +0.086 C 
ATOM     21  C   UNL     1       4.258  -6.043  -3.619  0.00  0.00    +0.102 A 
ATOM     22  C   UNL     1       3.249  -5.346  -4.172  0.00  0.00    +0.045 A 
ATOM     23  C   UNL     1       2.458  -4.856  -3.107  0.00  0.00    +0.047 A 
ATOM     24  C   UNL     1       3.030  -5.283  -1.968  0.00  0.00    +0.125 A 
ATOM     25  O   UNL     1       4.117  -6.006  -2.284  0.00  0.00    -0.463 OA
ENDBRANCH  18  24
ENDBRANCH  14  18
ENDBRANCH   1  15
TORSDOF 5
