REMARK  Name = ZINC01420243
REMARK  15 active torsions:
REMARK  status: ('A' for Active; 'I' for Inactive)
REMARK    1  A    between atoms: C_1  and  C_2
REMARK    2  A    between atoms: C_5  and  C_8
REMARK    3  A    between atoms: C_8  and  N_9
REMARK    4  A    between atoms: N_9  and  C_10
REMARK    5  A    between atoms: C_10  and  C_12
REMARK    6  A    between atoms: C_10  and  C_13
REMARK    7  A    between atoms: N_15  and  C_16
REMARK    8  A    between atoms: C_19  and  N_22
REMARK    9  A    between atoms: N_22  and  C_23
REMARK   10  A    between atoms: N_22  and  C_24
REMARK   11  A    between atoms: C_25  and  C_27
REMARK   12  A    between atoms: C_27  and  S_28
REMARK   13  A    between atoms: S_28  and  C_29
REMARK   14  A    between atoms: C_31  and  C_36
REMARK   15  A    between atoms: C_33  and  C_35
REMARK                            x       y       z     vdW  Elec       q    Type
REMARK                         _______ _______ _______ _____ _____    ______ ____
ROOT
ATOM      1  N   UNL     1       1.821  -4.601  -0.103  0.00  0.00    -0.285 N 
ATOM      2  C   UNL     1       2.959  -4.880  -0.769  0.00  0.00    +0.227 C 
ATOM      3  O   UNL     1       3.958  -5.195  -0.157  0.00  0.00    -0.275 OA
ENDROOT
BRANCH   1   4
ATOM      4  C   UNL     1       1.763  -4.771   1.351  0.00  0.00    +0.159 C 
ATOM      5  C   UNL     1       0.680  -5.794   1.701  0.00  0.00    +0.038 C 
BRANCH   4   6
ATOM      6  C   UNL     1       1.435  -3.451   1.999  0.00  0.00    +0.237 C 
ATOM      7  O   UNL     1       1.167  -2.488   1.311  0.00  0.00    -0.273 OA
ATOM      8  N   UNL     1       1.440  -3.339   3.342  0.00  0.00    -0.284 N 
ATOM      9  H   UNL     1       1.728  -4.087   3.889  0.00  0.00    +0.155 HD
BRANCH   8  10
ATOM     10  C   UNL     1       1.030  -2.144   3.947  0.00  0.00    +0.034 A 
ATOM     11  C   UNL     1       1.614  -1.732   5.138  0.00  0.00    +0.025 A 
ATOM     12  C   UNL     1       1.210  -0.554   5.734  0.00  0.00    +0.025 A 
ATOM     13  C   UNL     1       0.219   0.219   5.143  0.00  0.00    +0.029 A 
ATOM     14  C   UNL     1      -0.365  -0.193   3.953  0.00  0.00    +0.025 A 
ATOM     15  C   UNL     1       0.042  -1.368   3.354  0.00  0.00    +0.025 A 
BRANCH  13  16
ATOM     16  N   UNL     1      -0.190   1.412   5.748  0.00  0.00    -0.336 N 
ATOM     17  C   UNL     1       0.426   1.846   7.004  0.00  0.00    +0.129 C 
ATOM     18  C   UNL     1      -1.236   2.228   5.125  0.00  0.00    +0.129 C 
ENDBRANCH  13  16
ENDBRANCH   8  10
ENDBRANCH   4   6
ENDBRANCH   1   4
BRANCH   1  19
ATOM     19  C   UNL     1       0.643  -4.127  -0.833  0.00  0.00    +0.143 C 
BRANCH  19  24
ATOM     20  C   UNL     1      -2.872  -8.582  -1.924  0.00  0.00    +0.044 C 
ATOM     21  C   UNL     1      -1.955  -7.420  -1.639  0.00  0.00    -0.050 A 
ATOM     22  C   UNL     1      -2.201  -6.595  -0.558  0.00  0.00    +0.003 A 
ATOM     23  C   UNL     1      -1.360  -5.529  -0.297  0.00  0.00    +0.005 A 
ATOM     24  C   UNL     1      -0.273  -5.289  -1.117  0.00  0.00    -0.030 A 
ATOM     25  C   UNL     1      -0.027  -6.116  -2.197  0.00  0.00    +0.005 A 
ATOM     26  C   UNL     1      -0.865  -7.184  -2.456  0.00  0.00    +0.003 A 
ENDBRANCH  19  24
ENDBRANCH   1  19
BRANCH   2  27
ATOM     27  C   UNL     1       2.991  -4.802  -2.273  0.00  0.00    +0.173 C 
BRANCH  27  28
ATOM     28  S   UNL     1       4.696  -5.011  -2.854  0.00  0.00    -0.077 S 
BRANCH  28  29
ATOM     29  C   UNL     1       4.567  -4.896  -4.608  0.00  0.00    +0.189 A 
ATOM     30  N   UNL     1       3.377  -4.692  -5.157  0.00  0.00    -0.227 NA
ATOM     31  C   UNL     1       3.246  -4.601  -6.469  0.00  0.00    +0.043 A 
ATOM     32  C   UNL     1       4.369  -4.721  -7.272  0.00  0.00    +0.046 A 
ATOM     33  C   UNL     1       5.598  -4.934  -6.665  0.00  0.00    +0.043 A 
ATOM     34  N   UNL     1       5.661  -5.010  -5.347  0.00  0.00    -0.227 NA
ATOM     35  C   UNL     1       6.846  -5.071  -7.498  0.00  0.00    +0.066 C 
ATOM     36  C   UNL     1       1.890  -4.369  -7.085  0.00  0.00    +0.066 C 
ENDBRANCH  28  29
ENDBRANCH  27  28
ENDBRANCH   2  27
TORSDOF 9
