REMARK  Name = ZINC03216448
REMARK  9 active torsions:
REMARK  status: ('A' for Active; 'I' for Inactive)
REMARK    1  A    between atoms: C_1  and  C_2
REMARK    2  A    between atoms: C_3  and  N_15
REMARK    3  A    between atoms: N_6  and  C_9
REMARK    4  A    between atoms: N_7  and  C_8
REMARK    5  A    between atoms: N_15  and  S_16
REMARK    6  A    between atoms: S_16  and  C_19
REMARK    7  A    between atoms: C_21  and  C_26
REMARK    8  A    between atoms: N_28  and  C_29
REMARK    9  A    between atoms: N_28  and  C_30
REMARK                            x       y       z     vdW  Elec       q    Type
REMARK                         _______ _______ _______ _____ _____    ______ ____
ROOT
ATOM      1  S   UNL     1      10.395   4.944  -1.813  0.00  0.00    +0.074 S 
ATOM      2  O   UNL     1      10.167   3.544  -1.891  0.00  0.00    -0.150 OA
ATOM      3  O   UNL     1      10.444   5.774  -2.966  0.00  0.00    -0.150 OA
ENDROOT
BRANCH   1   4
ATOM      4  C   UNL     1       9.134   5.602  -0.773  0.00  0.00    +0.127 A 
ATOM      5  C   UNL     1       8.386   6.681  -1.196  0.00  0.00    +0.043 A 
ATOM      6  C   UNL     1       7.387   7.201  -0.371  0.00  0.00    +0.039 A 
ATOM      7  C   UNL     1       7.155   6.628   0.881  0.00  0.00    +0.014 A 
ATOM      8  C   UNL     1       7.906   5.546   1.291  0.00  0.00    +0.023 A 
ATOM      9  C   UNL     1       8.896   5.035   0.468  0.00  0.00    +0.068 A 
ATOM     10 CL   UNL     1       9.841   3.677   0.993  0.00  0.00    -0.082 Cl
BRANCH   6  11
ATOM     11  C   UNL     1       6.583   8.357  -0.818  0.00  0.00    +0.251 C 
ATOM     12  O   UNL     1       6.200   8.422  -1.970  0.00  0.00    -0.270 OA
ATOM     13  N   UNL     1       6.274   9.340   0.051  0.00  0.00    -0.271 N 
ATOM     14  C   UNL     1       6.838   9.326   1.403  0.00  0.00    +0.138 C 
BRANCH  13  15
ATOM     15  C   UNL     1       5.416  10.373  -0.338  0.00  0.00    +0.036 A 
ATOM     16  C   UNL     1       4.966  11.294   0.599  0.00  0.00    +0.023 A 
ATOM     17  C   UNL     1       4.118  12.313   0.212  0.00  0.00    +0.002 A 
ATOM     18  C   UNL     1       3.716  12.416  -1.107  0.00  0.00    +0.000 A 
ATOM     19  C   UNL     1       4.161  11.500  -2.042  0.00  0.00    +0.002 A 
ATOM     20  C   UNL     1       5.010  10.479  -1.662  0.00  0.00    +0.023 A 
ENDBRANCH  13  15
ENDBRANCH   6  11
ENDBRANCH   1   4
BRANCH   1  21
ATOM     21  N   UNL     1      11.836   5.146  -1.023  0.00  0.00    -0.209 N 
ATOM     22  H   UNL     1      11.946   5.875  -0.393  0.00  0.00    +0.174 HD
BRANCH  21  25
ATOM     23  C   UNL     1      13.910   4.314   1.071  0.00  0.00    +0.067 C 
ATOM     24  C   UNL     1      13.834   3.869  -0.366  0.00  0.00    +0.061 A 
ATOM     25  C   UNL     1      12.904   4.256  -1.265  0.00  0.00    +0.135 A 
ATOM     26  C   UNL     1      13.185   3.606  -2.495  0.00  0.00    +0.295 A 
ATOM     27  O   UNL     1      12.548   3.717  -3.527  0.00  0.00    -0.264 OA
ATOM     28  N   UNL     1      14.285   2.848  -2.316  0.00  0.00    -0.216 N 
ATOM     29  N   UNL     1      14.699   3.001  -0.987  0.00  0.00    -0.282 N 
ATOM     30  C   UNL     1      15.854   2.347  -0.365  0.00  0.00    +0.171 C 
BRANCH  28  31
ATOM     31  C   UNL     1      14.899   2.046  -3.284  0.00  0.00    +0.067 A 
ATOM     32  C   UNL     1      15.224   2.578  -4.525  0.00  0.00    +0.028 A 
ATOM     33  C   UNL     1      15.835   1.785  -5.476  0.00  0.00    +0.002 A 
ATOM     34  C   UNL     1      16.114   0.459  -5.197  0.00  0.00    +0.000 A 
ATOM     35  C   UNL     1      15.786  -0.075  -3.965  0.00  0.00    +0.002 A 
ATOM     36  C   UNL     1      15.180   0.714  -3.007  0.00  0.00    +0.028 A 
ENDBRANCH  28  31
ENDBRANCH  21  25
ENDBRANCH   1  21
TORSDOF 6
