REMARK  Name = ZINC06143644
REMARK  9 active torsions:
REMARK  status: ('A' for Active; 'I' for Inactive)
REMARK    1  A    between atoms: C_1  and  C_2
REMARK    2  A    between atoms: C_2  and  C_3
REMARK    3  A    between atoms: C_3  and  S_4
REMARK    4  A    between atoms: S_4  and  C_5
REMARK    5  A    between atoms: C_16  and  C_18
REMARK    6  A    between atoms: C_20  and  O_26
REMARK    7  A    between atoms: C_23  and  O_24
REMARK    8  A    between atoms: O_24  and  C_25
REMARK    9  A    between atoms: O_26  and  C_27
REMARK                            x       y       z     vdW  Elec       q    Type
REMARK                         _______ _______ _______ _____ _____    ______ ____
ROOT
ATOM      1  C   UNL     1      -1.944   2.439   3.491  0.00  0.00    +0.171 A 
ATOM      2  N   UNL     1      -1.075   1.394   3.585  0.00  0.00    -0.302 N 
ATOM      3  H   UNL     1      -0.911   0.977   4.445  0.00  0.00    +0.171 HD
ATOM      4  C   UNL     1      -0.442   0.939   2.483  0.00  0.00    +0.258 A 
ATOM      5  O   UNL     1       0.339   0.004   2.556  0.00  0.00    -0.267 OA
ATOM      6  C   UNL     1      -0.697   1.561   1.255  0.00  0.00    +0.069 A 
ATOM      7  C   UNL     1      -1.589   2.618   1.214  0.00  0.00    +0.135 A 
ATOM      8  N   UNL     1      -2.188   3.028   2.338  0.00  0.00    -0.208 NA
ATOM      9  N   UNL     1      -1.855   3.242   0.011  0.00  0.00    -0.302 N 
ATOM     10  C   UNL     1      -1.587   2.612  -1.173  0.00  0.00    +0.017 C 
ATOM     11  C   UNL     1      -0.725   1.577  -1.227  0.00  0.00    +0.024 C 
ATOM     12  C   UNL     1      -0.013   1.086   0.008  0.00  0.00    +0.096 C 
ATOM     13  C   UNL     1      -0.459   0.918  -2.443  0.00  0.00    +0.162 C 
ATOM     14  O   UNL     1       0.331  -0.005  -2.460  0.00  0.00    -0.292 OA
ATOM     15  C   UNL     1      -1.134   1.334  -3.720  0.00  0.00    +0.080 C 
ATOM     16  C   UNL     1      -2.498   1.948  -3.387  0.00  0.00    +0.014 C 
ATOM     17  C   UNL     1      -2.281   3.112  -2.418  0.00  0.00    +0.051 C 
ATOM     18  H   UNL     1      -2.235   4.134   0.006  0.00  0.00    +0.153 HD
ENDROOT
BRANCH  12  19
ATOM     19  C   UNL     1       1.405   1.598  -0.003  0.00  0.00    +0.010 A 
ATOM     20  C   UNL     1       1.647   2.958  -0.004  0.00  0.00    +0.053 A 
ATOM     21  C   UNL     1       2.951   3.430  -0.010  0.00  0.00    +0.121 A 
ATOM     22  C   UNL     1       4.012   2.536  -0.024  0.00  0.00    +0.049 A 
ATOM     23  C   UNL     1       3.769   1.176  -0.028  0.00  0.00    +0.049 A 
ATOM     24  C   UNL     1       2.465   0.705  -0.018  0.00  0.00    +0.124 A 
BRANCH  24  25
ATOM     25  O   UNL     1       2.226  -0.634  -0.022  0.00  0.00    -0.495 OA
ATOM     26  C   UNL     1       3.365  -1.496  -0.037  0.00  0.00    +0.277 C 
ENDBRANCH  24  25
BRANCH  21  27
ATOM     27  O   UNL     1       3.190   4.769  -0.006  0.00  0.00    -0.495 OA
ATOM     28  C   UNL     1       4.558   5.183  -0.017  0.00  0.00    +0.277 C 
ENDBRANCH  21  27
ENDBRANCH  12  19
BRANCH   1  29
ATOM     29  S   UNL     1      -2.760   3.015   4.943  0.00  0.00    -0.088 S 
BRANCH  29  30
ATOM     30  C   UNL     1      -3.746   4.359   4.237  0.00  0.00    +0.077 C 
BRANCH  30  32
ATOM     31  C   UNL     1      -5.396   6.164   4.748  0.00  0.00    +0.004 C 
ATOM     32  C   UNL     1      -4.563   5.028   5.344  0.00  0.00    +0.008 C 
ENDBRANCH  30  32
ENDBRANCH  29  30
ENDBRANCH   1  29
TORSDOF 6
