REMARK  Name = ZINC40782103
REMARK  9 active torsions:
REMARK  status: ('A' for Active; 'I' for Inactive)
REMARK    1  A    between atoms: C_1  and  C_2
REMARK    2  A    between atoms: C_5  and  N_8
REMARK    3  A    between atoms: C_10  and  N_22
REMARK    4  A    between atoms: C_11  and  N_15
REMARK    5  A    between atoms: N_15  and  C_16
REMARK    6  A    between atoms: C_16  and  C_18
REMARK    7  A    between atoms: C_16  and  C_19
REMARK    8  A    between atoms: C_19  and  O_20
REMARK    9  A    between atoms: O_20  and  C_21
REMARK                            x       y       z     vdW  Elec       q    Type
REMARK                         _______ _______ _______ _____ _____    ______ ____
ROOT
ATOM      1  N   UNL     1       0.057  -4.168  -0.021  0.00  0.00    -0.298 N 
ATOM      2  C   UNL     1       0.177  -4.869   1.174  0.00  0.00    +0.149 A 
ATOM      3  C   UNL     1       0.307  -6.258   1.171  0.00  0.00    +0.105 A 
ATOM      4  C   UNL     1       0.425  -6.912   2.400  0.00  0.00    +0.145 A 
ATOM      5  N   UNL     1       0.409  -6.191   3.518  0.00  0.00    -0.219 NA
ATOM      6  C   UNL     1       0.285  -4.879   3.476  0.00  0.00    +0.225 A 
ATOM      7  N   UNL     1       0.176  -4.223   2.339  0.00  0.00    -0.219 NA
ATOM      8  H   UNL     1      -0.018  -4.649  -0.860  0.00  0.00    +0.154 HD
ENDROOT
BRANCH   1  13
ATOM      9  C   UNL     1       0.012   1.503   0.006  0.00  0.00    +0.044 C 
ATOM     10  C   UNL     1       0.024  -0.004  -0.001  0.00  0.00    -0.050 A 
ATOM     11  C   UNL     1       0.771  -0.692   0.938  0.00  0.00    +0.005 A 
ATOM     12  C   UNL     1       0.784  -2.073   0.934  0.00  0.00    +0.023 A 
ATOM     13  C   UNL     1       0.045  -2.771  -0.014  0.00  0.00    +0.032 A 
ATOM     14  C   UNL     1      -0.704  -2.076  -0.954  0.00  0.00    +0.023 A 
ATOM     15  C   UNL     1      -0.718  -0.695  -0.942  0.00  0.00    +0.005 A 
ENDBRANCH   1  13
BRANCH   3  16
ATOM     16  N   UNL     1       0.318  -6.980  -0.033  0.00  0.00    -0.353 N 
ATOM     17  H   UNL     1       0.235  -6.512  -0.879  0.00  0.00    +0.143 HD
ATOM     18  H   UNL     1       0.409  -7.945  -0.020  0.00  0.00    +0.143 HD
ENDBRANCH   3  16
BRANCH   4  19
ATOM     19  N   UNL     1       0.555  -8.295   2.453  0.00  0.00    -0.323 N 
ATOM     20  H   UNL     1       0.566  -8.813   1.634  0.00  0.00    +0.148 HD
BRANCH  19  21
ATOM     21  C   UNL     1       0.678  -8.969   3.748  0.00  0.00    +0.094 C 
ATOM     22  C   UNL     1       2.143  -8.960   4.191  0.00  0.00    +0.030 C 
BRANCH  21  23
ATOM     23  C   UNL     1       0.194 -10.414   3.619  0.00  0.00    +0.181 C 
BRANCH  23  24
ATOM     24  O   UNL     1       1.060 -11.130   2.736  0.00  0.00    -0.381 OA
ATOM     25  C   UNL     1       0.694 -12.498   2.545  0.00  0.00    +0.194 C 
ENDBRANCH  23  24
ENDBRANCH  21  23
ENDBRANCH  19  21
ENDBRANCH   4  19
TORSDOF 6
