REMARK  Name = ZINC23258847
REMARK  5 active torsions:
REMARK  status: ('A' for Active; 'I' for Inactive)
REMARK    1  A    between atoms: C_1  and  C_2
REMARK    2  A    between atoms: C_4  and  O_5
REMARK    3  A    between atoms: C_14  and  C_16
REMARK    4  A    between atoms: C_19  and  N_22
REMARK    5  A    between atoms: C_23  and  C_33
REMARK                            x       y       z     vdW  Elec       q    Type
REMARK                         _______ _______ _______ _____ _____    ______ ____
ROOT
ATOM      1  C   UNL     1       1.392   1.907   0.243  0.00  0.00    +0.037 A 
ATOM      2  C   UNL     1       2.562   1.224  -0.099  0.00  0.00    +0.015 A 
ATOM      3  C   UNL     1       3.763   1.897  -0.139  0.00  0.00    +0.027 A 
ATOM      4  C   UNL     1       3.814   3.252   0.170  0.00  0.00    +0.051 A 
ATOM      5  C   UNL     1       2.652   3.934   0.516  0.00  0.00    +0.027 A 
ATOM      6  C   UNL     1       1.447   3.269   0.553  0.00  0.00    +0.015 A 
ENDROOT
BRANCH   1  19
ATOM      7  C   UNL     1      -4.800  -4.381   1.029  0.00  0.00    +0.045 C 
ATOM      8  C   UNL     1      -4.776  -2.954   0.544  0.00  0.00    -0.033 A 
ATOM      9  C   UNL     1      -5.928  -2.306   0.228  0.00  0.00    +0.091 A 
ATOM     10  C   UNL     1      -5.880  -0.971  -0.223  0.00  0.00    +0.285 A 
ATOM     11  O   UNL     1      -4.718  -0.311  -0.351  0.00  0.00    -0.425 OA
ATOM     12  C   UNL     1      -3.538  -0.897  -0.053  0.00  0.00    +0.141 A 
ATOM     13  C   UNL     1      -3.513  -2.229   0.402  0.00  0.00    +0.021 A 
ATOM     14  C   UNL     1      -2.292  -2.840   0.713  0.00  0.00    +0.013 A 
ATOM     15  C   UNL     1      -1.128  -2.144   0.567  0.00  0.00    +0.024 A 
ATOM     16  C   UNL     1      -1.147  -0.822   0.121  0.00  0.00    +0.037 A 
ATOM     17  C   UNL     1      -2.348  -0.201  -0.191  0.00  0.00    +0.070 A 
ATOM     18  N   UNL     1       0.051  -0.122  -0.017  0.00  0.00    -0.281 N 
ATOM     19  C   UNL     1       0.102   1.191   0.282  0.00  0.00    +0.248 C 
ATOM     20  O   UNL     1      -0.915   1.787   0.580  0.00  0.00    -0.270 OA
ATOM     21  H   UNL     1       0.954  -0.641  -0.371  0.00  0.00    +0.155 HD
BRANCH  10  22
ATOM     22  O   UNL     1      -6.920  -0.402  -0.503  0.00  0.00    -0.480 OA
ATOM     23  H   UNL     1      -6.898   0.640  -0.856  0.00  0.00    +0.295 HD
ENDBRANCH  10  22
ENDBRANCH   1  19
BRANCH   4  24
ATOM     24  N   UNL     1       5.035   3.930   0.134  0.00  0.00    -0.265 N 
ATOM     25  C   UNL     1       5.257   4.869  -0.826  0.00  0.00    +0.114 A 
ATOM     26  N   UNL     1       6.362   5.543  -0.922  0.00  0.00    -0.233 NA
ATOM     27  C   UNL     1       7.393   5.346  -0.062  0.00  0.00    +0.078 A 
ATOM     28  C   UNL     1       8.584   6.067  -0.169  0.00  0.00    +0.028 A 
ATOM     29  C   UNL     1       9.604   5.834   0.725  0.00  0.00    +0.002 A 
ATOM     30  C   UNL     1       9.465   4.890   1.734  0.00  0.00    +0.001 A 
ATOM     31  C   UNL     1       8.300   4.166   1.859  0.00  0.00    +0.015 A 
ATOM     32  C   UNL     1       7.255   4.386   0.965  0.00  0.00    +0.065 A 
ATOM     33  C   UNL     1       5.989   3.643   1.050  0.00  0.00    +0.266 A 
ATOM     34  O   UNL     1       5.806   2.802   1.911  0.00  0.00    -0.267 OA
ATOM     35  C   UNL     1       4.162   5.144  -1.825  0.00  0.00    +0.086 C 
ENDBRANCH   4  24
TORSDOF 3
