REMARK  Name = ZINC20161611
REMARK  5 active torsions:
REMARK  status: ('A' for Active; 'I' for Inactive)
REMARK    1  A    between atoms: C_1  and  C_2
REMARK    2  A    between atoms: C_2  and  C_4
REMARK    3  A    between atoms: C_15  and  C_31
REMARK    4  A    between atoms: C_22  and  C_23
REMARK    5  A    between atoms: C_26  and  O_29
REMARK                            x       y       z     vdW  Elec       q    Type
REMARK                         _______ _______ _______ _____ _____    ______ ____
ROOT
ATOM      1  C   UNL     1       1.339  -0.450   0.989  0.00  0.00    +0.149 C 
ATOM      2  C   UNL     1       2.615   0.272   1.450  0.00  0.00    +0.142 C 
ATOM      3  C   UNL     1       2.630   0.282   2.963  0.00  0.00    +0.018 A 
ATOM      4  C   UNL     1       3.841   0.407   3.619  0.00  0.00    +0.009 A 
ATOM      5  C   UNL     1       3.883   0.429   5.000  0.00  0.00    +0.001 A 
ATOM      6  C   UNL     1       2.711   0.327   5.727  0.00  0.00    +0.004 A 
ATOM      7  C   UNL     1       1.502   0.199   5.076  0.00  0.00    +0.046 A 
ATOM      8  C   UNL     1       1.455   0.172   3.684  0.00  0.00    +0.129 A 
ATOM      9  O   UNL     1       0.247   0.022   3.084  0.00  0.00    -0.464 OA
ATOM     10  C   UNL     1       0.139   0.209   1.678  0.00  0.00    +0.213 C 
ATOM     11  N   UNL     1       0.092   1.634   1.336  0.00  0.00    -0.215 NA
ATOM     12  C   UNL     1       1.187   2.248   1.032  0.00  0.00    +0.176 A 
ATOM     13  N   UNL     1       2.464   1.697   1.030  0.00  0.00    -0.278 N 
ATOM     14  C   UNL     1       3.486   2.465   0.659  0.00  0.00    +0.268 A 
ATOM     15  O   UNL     1       4.619   2.024   0.615  0.00  0.00    -0.266 OA
ATOM     16  C   UNL     1       3.201   3.866   0.304  0.00  0.00    +0.081 A 
ATOM     17  C   UNL     1       4.055   4.845  -0.088  0.00  0.00    +0.028 C 
ATOM     18  S   UNL     1       1.428   3.931   0.530  0.00  0.00    -0.046 S 
ATOM     19  C   UNL     1      -1.149  -0.465   1.201  0.00  0.00    +0.084 C 
ENDROOT
BRANCH  17  20
ATOM     20  C   UNL     1       3.572   6.224  -0.235  0.00  0.00    -0.024 A 
ATOM     21  C   UNL     1       4.322   7.157  -0.963  0.00  0.00    +0.011 A 
ATOM     22  C   UNL     1       3.862   8.447  -1.103  0.00  0.00    +0.046 A 
ATOM     23  C   UNL     1       2.662   8.828  -0.514  0.00  0.00    +0.117 A 
ATOM     24  C   UNL     1       1.917   7.908   0.215  0.00  0.00    +0.046 A 
ATOM     25  C   UNL     1       2.364   6.614   0.356  0.00  0.00    +0.011 A 
BRANCH  23  26
ATOM     26  O   UNL     1       2.216  10.103  -0.650  0.00  0.00    -0.507 OA
ATOM     27  H   UNL     1       1.267  10.406  -0.185  0.00  0.00    +0.292 HD
ENDBRANCH  23  26
ENDBRANCH  17  20
BRANCH   1  29
ATOM     28  C   UNL     1       0.387  -1.341  -1.272  0.00  0.00    +0.086 C 
ATOM     29  C   UNL     1       1.197  -0.327  -0.506  0.00  0.00    +0.141 C 
ATOM     30  O   UNL     1       1.732   0.585  -1.090  0.00  0.00    -0.297 OA
ENDBRANCH   1  29
TORSDOF 3
