REMARK  Name = ZINC15587625
REMARK  6 active torsions:
REMARK  status: ('A' for Active; 'I' for Inactive)
REMARK    1  A    between atoms: C_1  and  C_2
REMARK    2  A    between atoms: N_10  and  N_11
REMARK    3  A    between atoms: C_12  and  C_13
REMARK    4  A    between atoms: C_15  and  C_26
REMARK    5  A    between atoms: N_16  and  C_19
REMARK    6  A    between atoms: C_17  and  C_18
REMARK                            x       y       z     vdW  Elec       q    Type
REMARK                         _______ _______ _______ _____ _____    ______ ____
ROOT
ATOM      1  C   UNL     1       6.003  -1.635  -0.036  0.00  0.00    +0.016 A 
ATOM      2  C   UNL     1       7.377  -2.146  -0.051  0.00  0.00    +0.032 A 
ATOM      3  C   UNL     1       8.187  -1.071  -0.047  0.00  0.00    +0.022 A 
ATOM      4  N   UNL     1       7.421   0.059  -0.029  0.00  0.00    -0.317 N 
ATOM      5  C   UNL     1       6.101  -0.274  -0.029  0.00  0.00    +0.030 A 
ATOM      6  C   UNL     1       4.947   0.695  -0.018  0.00  0.00    +0.064 C 
ATOM      7  C   UNL     1       9.694  -1.109  -0.058  0.00  0.00    +0.064 C 
ENDROOT
BRANCH   4   8
ATOM      8  C   UNL     1       7.920   1.369  -0.020  0.00  0.00    +0.047 A 
ATOM      9  C   UNL     1       7.707   2.186   1.081  0.00  0.00    +0.027 A 
ATOM     10  C   UNL     1       8.201   3.476   1.088  0.00  0.00    +0.016 A 
ATOM     11  C   UNL     1       8.907   3.954  -0.002  0.00  0.00    +0.014 A 
ATOM     12  C   UNL     1       9.120   3.141  -1.101  0.00  0.00    +0.016 A 
ATOM     13  C   UNL     1       8.634   1.849  -1.110  0.00  0.00    +0.027 A 
ATOM     14  I   UNL     1       9.653   5.911   0.013  0.00  0.00    -0.044 I 
ENDBRANCH   4   8
BRANCH   1  16
ATOM     15  N   UNL     1       3.610  -1.839  -0.025  0.00  0.00    -0.188 NA
ATOM     16  C   UNL     1       4.764  -2.433  -0.034  0.00  0.00    +0.140 C 
BRANCH  15  26
ATOM     17  C   UNL     1      -0.018   1.503   0.010  0.00  0.00    +0.066 C 
ATOM     18  C   UNL     1       0.002  -0.004   0.002  0.00  0.00    +0.047 A 
ATOM     19  C   UNL     1      -1.172  -0.701   0.004  0.00  0.00    +0.093 A 
ATOM     20  C   UNL     1      -1.128  -2.107  -0.004  0.00  0.00    +0.253 A 
ATOM     21  O   UNL     1      -2.157  -2.761  -0.003  0.00  0.00    -0.268 OA
ATOM     22  N   UNL     1       0.076  -2.718  -0.013  0.00  0.00    -0.294 N 
ATOM     23  H   UNL     1       0.130  -3.687  -0.019  0.00  0.00    +0.172 HD
ATOM     24  C   UNL     1       1.214  -1.970  -0.015  0.00  0.00    +0.216 A 
ATOM     25  N   UNL     1       1.164  -0.652  -0.013  0.00  0.00    -0.220 NA
ATOM     26  N   UNL     1       2.431  -2.597  -0.024  0.00  0.00    -0.207 N 
ATOM     27  H   UNL     1       2.478  -3.566  -0.029  0.00  0.00    +0.177 HD
ENDBRANCH  15  26
ENDBRANCH   1  16
TORSDOF 3
