REMARK  Name = ZINC67620798
REMARK  8 active torsions:
REMARK  status: ('A' for Active; 'I' for Inactive)
REMARK    1  A    between atoms: C_1  and  C_2
REMARK    2  A    between atoms: C_2  and  O_3
REMARK    3  A    between atoms: O_3  and  C_4
REMARK    4  A    between atoms: C_4  and  C_6
REMARK    5  A    between atoms: C_7  and  N_28
REMARK    6  A    between atoms: C_13  and  C_26
REMARK    7  A    between atoms: C_16  and  C_18
REMARK    8  A    between atoms: C_26  and  O_27
REMARK                            x       y       z     vdW  Elec       q    Type
REMARK                         _______ _______ _______ _____ _____    ______ ____
ROOT
ATOM      1  C   UNL     1      -2.787  -2.392  -0.011  0.00  0.00    +0.108 C 
ATOM      2  C   UNL     1      -2.937  -3.740  -0.087  0.00  0.00    +0.196 C 
ATOM      3  O   UNL     1      -4.154  -4.307  -0.054  0.00  0.00    -0.435 OA
ATOM      4  C   UNL     1      -5.208  -3.618   0.447  0.00  0.00    +0.215 A 
ATOM      5  C   UNL     1      -6.366  -4.331   0.869  0.00  0.00    +0.228 A 
ATOM      6  O   UNL     1      -6.421  -5.548   0.787  0.00  0.00    -0.284 OA
ATOM      7  C   UNL     1      -7.454  -3.584   1.389  0.00  0.00    +0.098 A 
ATOM      8  C   UNL     1      -7.342  -2.244   1.460  0.00  0.00    +0.134 A 
ATOM      9  O   UNL     1      -6.242  -1.608   1.057  0.00  0.00    -0.457 OA
ATOM     10  C   UNL     1      -5.190  -2.273   0.555  0.00  0.00    +0.163 A 
ATOM     11  C   UNL     1      -3.980  -1.488   0.119  0.00  0.00    +0.136 C 
ENDROOT
BRANCH  11  12
ATOM     12  C   UNL     1      -4.264  -0.843  -1.213  0.00  0.00    +0.038 A 
ATOM     13  C   UNL     1      -4.561  -1.629  -2.314  0.00  0.00    +0.130 A 
ATOM     14  C   UNL     1      -4.821  -1.035  -3.538  0.00  0.00    +0.039 A 
ATOM     15  C   UNL     1      -4.786   0.341  -3.660  0.00  0.00    +0.006 A 
ATOM     16  C   UNL     1      -4.489   1.126  -2.562  0.00  0.00    +0.039 A 
ATOM     17  C   UNL     1      -4.234   0.535  -1.336  0.00  0.00    +0.130 A 
ATOM     18  F   UNL     1      -3.951   1.303  -0.261  0.00  0.00    -0.205 F 
ATOM     19  F   UNL     1      -4.595  -2.974  -2.195  0.00  0.00    -0.205 F 
ENDBRANCH  11  12
BRANCH   2  20
ATOM     20  N   UNL     1      -1.828  -4.535  -0.200  0.00  0.00    -0.329 N 
ATOM     21  H   UNL     1      -0.942  -4.145  -0.133  0.00  0.00    +0.145 HD
ATOM     22  H   UNL     1      -1.927  -5.489  -0.347  0.00  0.00    +0.145 HD
ENDBRANCH   2  20
BRANCH   1  23
ATOM     23  C   UNL     1      -1.500  -1.836  -0.047  0.00  0.00    +0.341 C 
ATOM     24  O   UNL     1      -0.968  -1.463   0.984  0.00  0.00    -0.245 OA
BRANCH  23  25
ATOM     25  O   UNL     1      -0.850  -1.715  -1.224  0.00  0.00    -0.462 OA
BRANCH  25  27
ATOM     26  C   UNL     1       1.032  -1.085  -2.604  0.00  0.00    +0.048 C 
ATOM     27  C   UNL     1       0.458  -1.140  -1.187  0.00  0.00    +0.229 C 
ENDBRANCH  25  27
ENDBRANCH  23  25
ENDBRANCH   1  23
BRANCH   8  28
ATOM     28  C   UNL     1      -8.493  -1.441   2.010  0.00  0.00    +0.230 C 
BRANCH  28  29
ATOM     29  O   UNL     1      -9.556  -2.322   2.376  0.00  0.00    -0.387 OA
ATOM     30  H   UNL     1     -10.332  -1.873   2.739  0.00  0.00    +0.210 HD
ENDBRANCH  28  29
ENDBRANCH   8  28
TORSDOF 7
