REMARK  Name = ZINC00168000
REMARK  7 active torsions:
REMARK  status: ('A' for Active; 'I' for Inactive)
REMARK    1  A    between atoms: C_1  and  N_2
REMARK    2  A    between atoms: N_2  and  C_3
REMARK    3  A    between atoms: N_2  and  C_4
REMARK    4  A    between atoms: C_7  and  C_10
REMARK    5  A    between atoms: C_16  and  C_22
REMARK    6  A    between atoms: C_19  and  S_20
REMARK    7  A    between atoms: S_20  and  C_21
REMARK                            x       y       z     vdW  Elec       q    Type
REMARK                         _______ _______ _______ _____ _____    ______ ____
ROOT
ATOM      1  C   UNL     1       3.014   3.522  -0.006  0.00  0.00    +0.222 C 
ATOM      2  N   UNL     1       3.528   2.140  -0.019  0.00  0.00    -0.204 NA
ATOM      3  N   UNL     1       2.425   1.329  -0.013  0.00  0.00    -0.193 N 
ATOM      4  C   UNL     1       1.279   2.094   0.001  0.00  0.00    +0.157 C 
ATOM      5  N   UNL     1       1.553   3.374   0.007  0.00  0.00    -0.241 NA
ATOM      6  C   UNL     1      -0.017   1.388   0.010  0.00  0.00    +0.111 C 
ATOM      7  C   UNL     1       0.002  -0.004   0.002  0.00  0.00    +0.135 C 
ATOM      8  N   UNL     1       1.158  -0.651  -0.013  0.00  0.00    -0.231 NA
ATOM      9  C   UNL     1       2.321  -0.033  -0.021  0.00  0.00    +0.176 C 
ATOM     10  H   UNL     1       4.111   1.963   0.785  0.00  0.00    +0.148 HD
ENDROOT
BRANCH   1  14
ATOM     11  C   UNL     1       4.335   5.571   3.505  0.00  0.00    +0.029 A 
ATOM     12  C   UNL     1       3.122   5.907   2.918  0.00  0.00    +0.023 A 
ATOM     13  C   UNL     1       2.698   5.243   1.783  0.00  0.00    +0.009 A 
ATOM     14  C   UNL     1       3.480   4.244   1.232  0.00  0.00    -0.007 A 
ATOM     15  C   UNL     1       4.686   3.903   1.817  0.00  0.00    +0.009 A 
ATOM     16  C   UNL     1       5.118   4.567   2.948  0.00  0.00    +0.023 A 
BRANCH  11  18
ATOM     17  C   UNL     1       3.940   7.297   5.238  0.00  0.00    +0.129 C 
ATOM     18  N   UNL     1       4.767   6.240   4.652  0.00  0.00    -0.336 N 
ATOM     19  C   UNL     1       6.047   5.884   5.270  0.00  0.00    +0.129 C 
ENDBRANCH  11  18
ENDBRANCH   1  14
BRANCH   9  20
ATOM     20  S   UNL     1       3.796  -0.997  -0.041  0.00  0.00    -0.092 S 
ATOM     21  C   UNL     1       3.084  -2.661  -0.043  0.00  0.00    +0.093 C 
ENDBRANCH   9  20
BRANCH   6  22
ATOM     22  C   UNL     1      -1.253   2.110   0.019  0.00  0.00    +0.104 C 
ATOM     23  N   UNL     1      -2.234   2.684   0.027  0.00  0.00    -0.191 NA
ENDBRANCH   6  22
TORSDOF 4
