REMARK  Name = ZINC20898827
REMARK  9 active torsions:
REMARK  status: ('A' for Active; 'I' for Inactive)
REMARK    1  A    between atoms: C_1  and  C_2
REMARK    2  A    between atoms: C_2  and  C_3
REMARK    3  A    between atoms: C_3  and  C_4
REMARK    4  A    between atoms: C_3  and  C_5
REMARK    5  A    between atoms: C_3  and  C_6
REMARK    6  A    between atoms: N_14  and  C_18
REMARK    7  A    between atoms: C_18  and  C_19
REMARK    8  A    between atoms: N_21  and  N_22
REMARK    9  A    between atoms: N_22  and  C_23
REMARK                            x       y       z     vdW  Elec       q    Type
REMARK                         _______ _______ _______ _____ _____    ______ ____
ROOT
ATOM      1  C   UNL     1       8.700   8.162  -4.032  0.00  0.00    -0.005 C 
ATOM      2  C   UNL     1       8.363   6.928  -3.192  0.00  0.00    +0.006 C 
ATOM      3  C   UNL     1       8.172   7.344  -1.732  0.00  0.00    +0.035 C 
ATOM      4  C   UNL     1       7.046   8.368  -1.636  0.00  0.00    +0.113 C 
ATOM      5  C   UNL     1       7.358   9.594  -2.486  0.00  0.00    +0.035 C 
ATOM      6  C   UNL     1       7.553   9.171  -3.944  0.00  0.00    +0.006 C 
ATOM      7  C   UNL     1       5.735   7.750  -2.066  0.00  0.00    +0.247 C 
ATOM      8  O   UNL     1       5.463   7.287  -3.153  0.00  0.00    -0.273 OA
ATOM      9  N   UNL     1       4.931   7.822  -0.985  0.00  0.00    -0.215 N 
ATOM     10  C   UNL     1       5.550   8.400   0.052  0.00  0.00    +0.310 C 
ATOM     11  O   UNL     1       5.029   8.582   1.135  0.00  0.00    -0.252 OA
ATOM     12  N   UNL     1       6.817   8.754  -0.238  0.00  0.00    -0.285 N 
ATOM     13  H   UNL     1       7.622   9.233   0.338  0.00  0.00    +0.151 HD
ENDROOT
BRANCH   1  14
ATOM     14  C   UNL     1       8.901   7.746  -5.491  0.00  0.00    -0.032 C 
ATOM     15  C   UNL     1      10.050   6.739  -5.580  0.00  0.00    +0.011 C 
ATOM     16  C   UNL     1       7.618   7.103  -6.020  0.00  0.00    +0.011 C 
BRANCH  14  18
ATOM     17  C   UNL     1       9.440   8.563  -7.790  0.00  0.00    +0.004 C 
ATOM     18  C   UNL     1       9.238   8.979  -6.331  0.00  0.00    +0.003 C 
ENDBRANCH  14  18
ENDBRANCH   1  14
BRANCH   9  19
ATOM     19  C   UNL     1       3.550   7.334  -0.951  0.00  0.00    +0.215 C 
BRANCH  19  20
ATOM     20  C   UNL     1       3.537   5.892  -0.512  0.00  0.00    +0.247 C 
ATOM     21  O   UNL     1       4.579   5.328  -0.253  0.00  0.00    -0.273 OA
ATOM     22  N   UNL     1       2.368   5.230  -0.408  0.00  0.00    -0.235 N 
ATOM     23  H   UNL     1       1.423   5.742  -0.643  0.00  0.00    +0.173 HD
BRANCH  22  24
ATOM     24  N   UNL     1       2.356   3.890   0.000  0.00  0.00    -0.262 N 
ATOM     25  H   UNL     1       3.289   3.405   0.324  0.00  0.00    +0.170 HD
BRANCH  24  26
ATOM     26  C   UNL     1       1.158   3.168  -0.005  0.00  0.00    +0.081 A 
ATOM     27  C   UNL     1       0.213   3.394  -0.999  0.00  0.00    +0.066 A 
ATOM     28  C   UNL     1      -0.970   2.679  -1.001  0.00  0.00    +0.042 A 
ATOM     29  C   UNL     1      -1.216   1.743  -0.012  0.00  0.00    +0.044 A 
ATOM     30  C   UNL     1      -0.275   1.512   0.976  0.00  0.00    +0.042 A 
ATOM     31  C   UNL     1       0.910   2.223   0.983  0.00  0.00    +0.066 A 
ATOM     32 CL   UNL     1       2.088   1.937   2.226  0.00  0.00    -0.081 Cl
ATOM     33 CL   UNL     1      -2.707   0.853  -0.014  0.00  0.00    -0.083 Cl
ATOM     34 CL   UNL     1       0.518   4.573  -2.236  0.00  0.00    -0.081 Cl
ENDBRANCH  24  26
ENDBRANCH  22  24
ENDBRANCH  19  20
ENDBRANCH   9  19
TORSDOF 6
