REMARK  Name = ZINC31168746
REMARK  11 active torsions:
REMARK  status: ('A' for Active; 'I' for Inactive)
REMARK    1  A    between atoms: C_1  and  C_2
REMARK    2  A    between atoms: C_3  and  C_4
REMARK    3  A    between atoms: C_12  and  C_29
REMARK    4  A    between atoms: C_12  and  O_30
REMARK    5  A    between atoms: C_13  and  O_16
REMARK    6  A    between atoms: O_16  and  C_17
REMARK    7  A    between atoms: C_17  and  C_19
REMARK    8  A    between atoms: C_20  and  C_28
REMARK    9  A    between atoms: C_22  and  O_26
REMARK   10  A    between atoms: C_24  and  O_25
REMARK   11  A    between atoms: O_26  and  C_27
REMARK                            x       y       z     vdW  Elec       q    Type
REMARK                         _______ _______ _______ _____ _____    ______ ____
ROOT
ATOM      1  C   UNL     1       3.458   3.749   0.273  0.00  0.00    +0.121 C 
ATOM      2  C   UNL     1       3.555   2.390   0.067  0.00  0.00    +0.050 C 
ATOM      3  C   UNL     1       2.393   1.613   0.014  0.00  0.00    -0.031 C 
ATOM      4  C   UNL     1       1.164   2.238   0.003  0.00  0.00    +0.038 C 
ATOM      5  C   UNL     1       1.101   3.745  -0.074  0.00  0.00    +0.268 C 
ATOM      6  O   UNL     1       2.258   4.315   0.534  0.00  0.00    -0.487 OA
ATOM      7  C   UNL     1      -0.018   1.501   0.010  0.00  0.00    +0.197 C 
ATOM      8  O   UNL     1      -1.086   2.083   0.018  0.00  0.00    -0.289 OA
ATOM      9  C   UNL     1       0.002  -0.004   0.002  0.00  0.00    +0.162 C 
ATOM     10  C   UNL     1       1.287  -0.503   0.667  0.00  0.00    +0.220 C 
ATOM     11  C   UNL     1       2.491   0.112  -0.053  0.00  0.00    +0.083 C 
ATOM     12  C   UNL     1      -1.209  -0.534   0.772  0.00  0.00    +0.054 C 
ENDROOT
BRANCH   1  15
ATOM     13  C   UNL     1       5.805   6.760   0.342  0.00  0.00    +0.035 C 
ATOM     14  C   UNL     1       4.569   5.901   0.408  0.00  0.00    -0.027 C 
ATOM     15  C   UNL     1       4.660   4.585   0.209  0.00  0.00    +0.041 C 
ENDBRANCH   1  15
BRANCH   9  16
ATOM     16  O   UNL     1      -0.048  -0.473  -1.347  0.00  0.00    -0.377 OA
ATOM     17  H   UNL     1      -0.042  -1.554  -1.554  0.00  0.00    +0.211 HD
ENDBRANCH   9  16
BRANCH  10  18
ATOM     18  O   UNL     1       1.351  -1.951   0.575  0.00  0.00    -0.454 OA
BRANCH  18  19
ATOM     19  C   UNL     1       1.999  -2.599   1.564  0.00  0.00    +0.343 C 
ATOM     20  O   UNL     1       2.497  -1.971   2.478  0.00  0.00    -0.245 OA
BRANCH  19  21
ATOM     21  C   UNL     1       2.104  -4.066   1.536  0.00  0.00    +0.103 A 
ATOM     22  C   UNL     1       3.185  -4.682   0.896  0.00  0.00    -0.029 A 
ATOM     23  C   UNL     1       3.284  -6.043   0.877  0.00  0.00    +0.050 A 
ATOM     24  C   UNL     1       2.307  -6.829   1.482  0.00  0.00    +0.124 A 
ATOM     25  C   UNL     1       1.226  -6.235   2.116  0.00  0.00    +0.091 A 
ATOM     26  C   UNL     1       1.117  -4.855   2.148  0.00  0.00    +0.135 A 
ATOM     27  C   UNL     1       4.245  -3.841   0.233  0.00  0.00    +0.045 C 
BRANCH  26  28
ATOM     28  O   UNL     1       0.061  -4.269   2.766  0.00  0.00    -0.506 OA
ATOM     29  H   UNL     1      -0.711  -4.890   3.244  0.00  0.00    +0.292 HD
ENDBRANCH  26  28
BRANCH  24  30
ATOM     30  O   UNL     1       2.414  -8.181   1.451  0.00  0.00    -0.495 OA
ATOM     31  C   UNL     1       1.377  -8.928   2.091  0.00  0.00    +0.277 C 
ENDBRANCH  24  30
ENDBRANCH  19  21
ENDBRANCH  18  19
ENDBRANCH  10  18
TORSDOF 7
