REMARK  Name = ZINC12795121
REMARK  8 active torsions:
REMARK  status: ('A' for Active; 'I' for Inactive)
REMARK    1  A    between atoms: C_1  and  N_2
REMARK    2  A    between atoms: N_4  and  N_16
REMARK    3  A    between atoms: C_5  and  C_8
REMARK    4  A    between atoms: C_11  and  O_15
REMARK    5  A    between atoms: C_13  and  O_14
REMARK    6  A    between atoms: C_17  and  C_18
REMARK    7  A    between atoms: C_21  and  O_24
REMARK    8  A    between atoms: O_24  and  C_25
REMARK                            x       y       z     vdW  Elec       q    Type
REMARK                         _______ _______ _______ _____ _____    ______ ____
ROOT
ATOM      1  C   UNL     1       6.381   3.391  -0.010  0.00  0.00    +0.173 C 
ATOM      2  N   UNL     1       5.015   3.920  -0.012  0.00  0.00    -0.263 NA
ATOM      3  C   UNL     1       4.812   5.210   0.075  0.00  0.00    +0.189 A 
ATOM      4  N   UNL     1       3.620   5.907   0.090  0.00  0.00    -0.208 N 
ATOM      5  C   UNL     1       3.663   7.272   0.196  0.00  0.00    +0.085 A 
ATOM      6  C   UNL     1       4.855   7.898   0.275  0.00  0.00    +0.077 A 
ATOM      7  S   UNL     1       6.004   6.534   0.202  0.00  0.00    -0.056 S 
ENDROOT
BRANCH   5   8
ATOM      8  C   UNL     1       2.409   8.055   0.222  0.00  0.00    +0.043 A 
ATOM      9  C   UNL     1       1.274   7.538   0.846  0.00  0.00    +0.017 A 
ATOM     10  C   UNL     1       0.106   8.271   0.869  0.00  0.00    +0.046 A 
ATOM     11  C   UNL     1       0.056   9.524   0.272  0.00  0.00    +0.120 A 
ATOM     12  C   UNL     1       1.179  10.046  -0.351  0.00  0.00    +0.091 A 
ATOM     13  C   UNL     1       2.358   9.320  -0.375  0.00  0.00    +0.129 A 
BRANCH  13  14
ATOM     14  O   UNL     1       3.462   9.833  -0.980  0.00  0.00    -0.506 OA
ATOM     15  H   UNL     1       3.534   9.612  -1.918  0.00  0.00    +0.292 HD
ENDBRANCH  13  14
BRANCH  11  16
ATOM     16  O   UNL     1      -1.099  10.241   0.299  0.00  0.00    -0.507 OA
ATOM     17  H   UNL     1      -1.183  10.821   1.068  0.00  0.00    +0.292 HD
ENDBRANCH  11  16
ENDBRANCH   5   8
BRANCH   4  18
ATOM     18  N   UNL     1       2.395   5.233   0.007  0.00  0.00    -0.172 NA
ATOM     19  C   UNL     1       2.334   4.064  -0.554  0.00  0.00    +0.141 C 
BRANCH  19  20
ATOM     20  C   UNL     1       1.075   3.298  -0.528  0.00  0.00    -0.005 A 
ATOM     21  C   UNL     1       1.007   2.039  -1.131  0.00  0.00    +0.013 A 
ATOM     22  C   UNL     1      -0.172   1.327  -1.104  0.00  0.00    +0.046 A 
ATOM     23  C   UNL     1      -1.294   1.861  -0.484  0.00  0.00    +0.120 A 
ATOM     24  C   UNL     1      -1.230   3.110   0.122  0.00  0.00    +0.046 A 
ATOM     25  C   UNL     1      -0.055   3.829   0.100  0.00  0.00    +0.013 A 
BRANCH  23  26
ATOM     26  O   UNL     1      -2.457   1.158  -0.465  0.00  0.00    -0.495 OA
ATOM     27  C   UNL     1      -3.572   1.766   0.191  0.00  0.00    +0.277 C 
ENDBRANCH  23  26
ENDBRANCH  19  20
ENDBRANCH   4  18
TORSDOF 6
