REMARK  Name = ZINC67612222
REMARK  4 active torsions:
REMARK  status: ('A' for Active; 'I' for Inactive)
REMARK    1  A    between atoms: C_4  and  C_7
REMARK    2  A    between atoms: C_10  and  N_12
REMARK    3  A    between atoms: N_15  and  N_16
REMARK    4  A    between atoms: C_17  and  C_19
REMARK                            x       y       z     vdW  Elec       q    Type
REMARK                         _______ _______ _______ _____ _____    ______ ____
ROOT
ATOM      1  N   UNL     1       2.945  -1.750  -2.248  0.00  0.00    -0.295 N 
ATOM      2  C   UNL     1       3.276  -2.112  -3.503  0.00  0.00    +0.316 C 
ATOM      3  O   UNL     1       4.435  -2.348  -3.782  0.00  0.00    -0.251 OA
ATOM      4  N   UNL     1       2.321  -2.213  -4.449  0.00  0.00    -0.218 N 
ATOM      5  H   UNL     1       2.020  -1.561  -2.025  0.00  0.00    +0.151 HD
ATOM      6  H   UNL     1       2.559  -2.474  -5.352  0.00  0.00    +0.174 HD
ENDROOT
BRANCH   4   7
ATOM      7  N   UNL     1       0.985  -1.941  -4.127  0.00  0.00    -0.229 N 
ATOM      8  C   UNL     1       0.030  -2.042  -5.073  0.00  0.00    +0.267 C 
ATOM      9  O   UNL     1       0.328  -2.369  -6.206  0.00  0.00    -0.268 OA
ATOM     10  H   UNL     1       0.747  -1.680  -3.223  0.00  0.00    +0.173 HD
BRANCH   8  11
ATOM     11  C   UNL     1      -1.368  -1.757  -4.736  0.00  0.00    +0.076 A 
ATOM     12  C   UNL     1      -2.486  -1.806  -5.545  0.00  0.00    +0.024 A 
ATOM     13  C   UNL     1      -3.706  -1.482  -4.957  0.00  0.00    -0.036 A 
ATOM     14  C   UNL     1      -3.674  -1.146  -3.640  0.00  0.00    -0.006 A 
ATOM     15  S   UNL     1      -2.071  -1.265  -3.174  0.00  0.00    -0.088 S 
ATOM     16  C   UNL     1      -4.825  -0.749  -2.765  0.00  0.00    +0.043 C 
ATOM     17  C   UNL     1      -6.109  -1.412  -3.277  0.00  0.00    +0.005 C 
ATOM     18  C   UNL     1      -6.758  -0.489  -4.303  0.00  0.00    +0.001 C 
ATOM     19  C   UNL     1      -5.822  -0.258  -5.486  0.00  0.00    +0.005 C 
ATOM     20  C   UNL     1      -4.998  -1.510  -5.766  0.00  0.00    +0.036 C 
ENDBRANCH   8  11
ENDBRANCH   4   7
BRANCH   1  23
ATOM     21  C   UNL     1       3.711  -0.707  -0.038  0.00  0.00    +0.041 C 
ATOM     22  C   UNL     1       3.675  -2.224   0.162  0.00  0.00    +0.033 C 
ATOM     23  C   UNL     1       3.983  -1.640  -1.219  0.00  0.00    +0.083 C 
BRANCH  21  27
ATOM     24  C   UNL     1      -0.017   1.378   0.010  0.00  0.00    +0.000 A 
ATOM     25  C   UNL     1       1.171   2.086   0.002  0.00  0.00    +0.000 A 
ATOM     26  C   UNL     1       2.377   1.411  -0.013  0.00  0.00    +0.004 A 
ATOM     27  C   UNL     1       2.396   0.029  -0.020  0.00  0.00    -0.042 A 
ATOM     28  C   UNL     1       1.208  -0.679  -0.012  0.00  0.00    +0.004 A 
ATOM     29  C   UNL     1       0.002  -0.004   0.002  0.00  0.00    +0.000 A 
ENDBRANCH  21  27
ENDBRANCH   1  23
TORSDOF 4
