REMARK  Name = ZINC61821161
REMARK  3 active torsions:
REMARK  status: ('A' for Active; 'I' for Inactive)
REMARK    1  A    between atoms: C_1  and  C_2
REMARK    2  A    between atoms: C_2  and  C_20
REMARK    3  A    between atoms: N_12  and  C_13
REMARK                            x       y       z     vdW  Elec       q    Type
REMARK                         _______ _______ _______ _____ _____    ______ ____
ROOT
ATOM      1  C   UNL     1      -1.175   1.693  -0.011  0.00  0.00    +0.011 C 
ATOM      2  C   UNL     1      -0.632   0.276   0.186  0.00  0.00    -0.032 C 
ATOM      3  C   UNL     1      -1.692  -0.740  -0.246  0.00  0.00    +0.025 C 
ATOM      4  C   UNL     1      -1.133  -2.156  -0.081  0.00  0.00    +0.108 C 
ATOM      5  N   UNL     1      -0.667  -2.322   1.302  0.00  0.00    -0.300 N 
ATOM      6  C   UNL     1       0.286  -1.346   1.849  0.00  0.00    +0.108 C 
ATOM      7  C   UNL     1      -0.289   0.062   1.662  0.00  0.00    +0.025 C 
ATOM      8  C   UNL     1      -1.117  -3.380   2.078  0.00  0.00    +0.218 A 
ATOM      9  N   UNL     1      -2.322  -3.871   2.065  0.00  0.00    -0.137 NA
ATOM     10  N   UNL     1      -2.372  -4.925   2.988  0.00  0.00    -0.253 N 
ATOM     11  C   UNL     1      -1.147  -5.032   3.543  0.00  0.00    +0.177 A 
ATOM     12  N   UNL     1      -0.363  -4.088   2.985  0.00  0.00    -0.288 N 
ATOM     13  S   UNL     1      -0.672  -6.167   4.734  0.00  0.00    -0.011 S 
ATOM     14  C   UNL     1       0.627   0.091  -0.662  0.00  0.00    +0.011 C 
ATOM     15  H   UNL     1      -3.144  -5.476   3.190  0.00  0.00    +0.191 HD
ENDROOT
BRANCH  12  16
ATOM     16  C   UNL     1       1.050  -3.854   3.293  0.00  0.00    +0.092 C 
ATOM     17  C   UNL     1       1.845  -5.137   3.048  0.00  0.00    +0.025 C 
ATOM     18  C   UNL     1       3.321  -4.892   3.370  0.00  0.00    +0.002 C 
ATOM     19  C   UNL     1       3.460  -4.479   4.837  0.00  0.00    +0.000 C 
ATOM     20  C   UNL     1       2.665  -3.195   5.082  0.00  0.00    +0.002 C 
ATOM     21  C   UNL     1       1.189  -3.440   4.760  0.00  0.00    +0.025 C 
ENDBRANCH  12  16
TORSDOF 1
