REMARK  Name = ZINC66684701
REMARK  8 active torsions:
REMARK  status: ('A' for Active; 'I' for Inactive)
REMARK    1  A    between atoms: C_1  and  C_2
REMARK    2  A    between atoms: C_5  and  N_14
REMARK    3  A    between atoms: C_7  and  C_8
REMARK    4  A    between atoms: N_10  and  C_11
REMARK    5  A    between atoms: C_11  and  C_12
REMARK    6  A    between atoms: C_11  and  C_13
REMARK    7  A    between atoms: N_17  and  C_18
REMARK    8  A    between atoms: C_18  and  C_19
REMARK                            x       y       z     vdW  Elec       q    Type
REMARK                         _______ _______ _______ _____ _____    ______ ____
ROOT
ATOM      1  C   UNL     1      -0.227   1.268   0.480  0.00  0.00    +0.044 C 
ATOM      2  C   UNL     1      -0.144  -0.223   0.278  0.00  0.00    -0.038 A 
ATOM      3  C   UNL     1      -0.169  -0.748  -0.998  0.00  0.00    +0.006 A 
ATOM      4  C   UNL     1      -0.092  -2.115  -1.189  0.00  0.00    +0.023 A 
ATOM      5  C   UNL     1       0.010  -2.969  -0.098  0.00  0.00    +0.035 A 
ATOM      6  C   UNL     1       0.036  -2.451   1.188  0.00  0.00    +0.036 A 
ATOM      7  C   UNL     1      -0.035  -1.071   1.380  0.00  0.00    +0.041 A 
ENDROOT
BRANCH   5   8
ATOM      8  N   UNL     1       0.086  -4.353  -0.296  0.00  0.00    -0.269 N 
ATOM      9  C   UNL     1      -0.499  -5.193   0.580  0.00  0.00    +0.304 C 
ATOM     10  O   UNL     1      -1.015  -4.754   1.591  0.00  0.00    -0.252 OA
ATOM     11  N   UNL     1      -0.513  -6.518   0.337  0.00  0.00    -0.295 N 
ATOM     12  H   UNL     1       0.560  -4.707  -1.065  0.00  0.00    +0.156 HD
ATOM     13  H   UNL     1      -0.102  -6.868  -0.469  0.00  0.00    +0.151 HD
BRANCH  11  14
ATOM     14  C   UNL     1      -1.150  -7.431   1.290  0.00  0.00    +0.148 C 
BRANCH  14  15
ATOM     15  C   UNL     1      -1.029  -8.847   0.787  0.00  0.00    +0.008 A 
ATOM     16  C   UNL     1      -0.049  -9.753   1.019  0.00  0.00    +0.014 A 
ATOM     17  C   UNL     1      -0.147 -11.008   0.447  0.00  0.00    +0.028 A 
ATOM     18  C   UNL     1      -1.222 -11.294  -0.330  0.00  0.00    +0.078 A 
ATOM     19  S   UNL     1      -2.143  -9.766  -0.261  0.00  0.00    -0.080 S 
ATOM     20 CL   UNL     1      -1.607 -12.766  -1.166  0.00  0.00    -0.076 Cl
ENDBRANCH  14  15
ENDBRANCH  11  14
ENDBRANCH   5   8
BRANCH   7  21
ATOM     21  C   UNL     1      -0.002  -0.511   2.748  0.00  0.00    +0.245 C 
ATOM     22  O   UNL     1      -0.133   0.686   2.917  0.00  0.00    -0.270 OA
ATOM     23  N   UNL     1       0.174  -1.326   3.807  0.00  0.00    -0.309 N 
ATOM     24  H   UNL     1       0.278  -2.281   3.671  0.00  0.00    +0.149 HD
BRANCH  23  25
ATOM     25  C   UNL     1       0.207  -0.770   5.162  0.00  0.00    +0.067 C 
ATOM     26  C   UNL     1      -0.206  -1.849   6.165  0.00  0.00    +0.027 C 
ATOM     27  C   UNL     1       1.624  -0.291   5.482  0.00  0.00    +0.027 C 
ENDBRANCH  23  25
ENDBRANCH   7  21
TORSDOF 5
