REMARK  Name = ZINC19500750
REMARK  9 active torsions:
REMARK  status: ('A' for Active; 'I' for Inactive)
REMARK    1  A    between atoms: C_1  and  C_2
REMARK    2  A    between atoms: C_2  and  C_3
REMARK    3  A    between atoms: C_3  and  C_30
REMARK    4  A    between atoms: C_8  and  C_11
REMARK    5  A    between atoms: C_14  and  O_17
REMARK    6  A    between atoms: N_20  and  C_23
REMARK    7  A    between atoms: C_26  and  C_29
REMARK    8  A    between atoms: C_30  and  O_32
REMARK    9  A    between atoms: O_32  and  C_33
REMARK                            x       y       z     vdW  Elec       q    Type
REMARK                         _______ _______ _______ _____ _____    ______ ____
ROOT
ATOM      1  C   UNL     1      -1.433  -0.534   0.013  0.00  0.00    +0.129 C 
ATOM      2  C   UNL     1      -1.448  -2.054  -0.117  0.00  0.00    +0.120 C 
ATOM      3  C   UNL     1      -2.955  -2.198  -0.555  0.00  0.00    +0.111 C 
ATOM      4  C   UNL     1      -3.097  -1.201  -1.623  0.00  0.00    +0.097 C 
ATOM      5  N   UNL     1      -2.174  -0.082  -1.210  0.00  0.00    -0.293 NA
ATOM      6  C   UNL     1      -3.206  -3.597  -0.307  0.00  0.00    +0.232 C 
ATOM      7  O   UNL     1      -3.934  -4.339  -0.931  0.00  0.00    -0.274 OA
ATOM      8  N   UNL     1      -2.441  -3.905   0.791  0.00  0.00    -0.210 N 
ATOM      9  C   UNL     1      -1.512  -2.931   1.093  0.00  0.00    +0.232 C 
ATOM     10  O   UNL     1      -0.881  -2.803   2.121  0.00  0.00    -0.274 OA
ATOM     11  H   UNL     1      -2.685   0.770  -1.029  0.00  0.00    +0.124 HD
ENDROOT
BRANCH   8  12
ATOM     12  C   UNL     1      -2.579  -5.092   1.525  0.00  0.00    +0.044 A 
ATOM     13  C   UNL     1      -1.770  -5.325   2.628  0.00  0.00    +0.024 A 
ATOM     14  C   UNL     1      -1.908  -6.495   3.349  0.00  0.00    +0.005 A 
ATOM     15  C   UNL     1      -2.852  -7.434   2.973  0.00  0.00    -0.050 A 
ATOM     16  C   UNL     1      -3.659  -7.204   1.874  0.00  0.00    +0.005 A 
ATOM     17  C   UNL     1      -3.530  -6.033   1.153  0.00  0.00    +0.024 A 
ATOM     18  C   UNL     1      -3.000  -8.710   3.761  0.00  0.00    +0.044 C 
ENDBRANCH   8  12
BRANCH   4  19
ATOM     19  C   UNL     1      -2.689  -1.789  -2.949  0.00  0.00    -0.029 A 
ATOM     20  C   UNL     1      -1.350  -1.889  -3.277  0.00  0.00    +0.009 A 
ATOM     21  C   UNL     1      -0.973  -2.427  -4.492  0.00  0.00    +0.046 A 
ATOM     22  C   UNL     1      -1.940  -2.869  -5.384  0.00  0.00    +0.117 A 
ATOM     23  C   UNL     1      -3.283  -2.768  -5.052  0.00  0.00    +0.046 A 
ATOM     24  C   UNL     1      -3.655  -2.233  -3.834  0.00  0.00    +0.009 A 
BRANCH  22  25
ATOM     25  O   UNL     1      -1.572  -3.398  -6.580  0.00  0.00    -0.507 OA
ATOM     26  H   UNL     1      -1.435  -4.355  -6.561  0.00  0.00    +0.292 HD
ENDBRANCH  22  25
ENDBRANCH   4  19
BRANCH   1  28
ATOM     27  C   UNL     1      -0.019   1.526   0.010  0.00  0.00    +0.006 C 
ATOM     28  C   UNL     1       0.002  -0.004   0.002  0.00  0.00    +0.031 C 
ENDBRANCH   1  28
BRANCH   1  29
ATOM     29  C   UNL     1      -2.151  -0.095   1.263  0.00  0.00    +0.328 C 
ATOM     30  O   UNL     1      -2.203  -0.831   2.220  0.00  0.00    -0.249 OA
BRANCH  29  31
ATOM     31  O   UNL     1      -2.733   1.113   1.314  0.00  0.00    -0.467 OA
ATOM     32  C   UNL     1      -3.397   1.464   2.530  0.00  0.00    +0.280 C 
ENDBRANCH  29  31
ENDBRANCH   1  29
TORSDOF 6
