REMARK  Name = ZINC65382605
REMARK  6 active torsions:
REMARK  status: ('A' for Active; 'I' for Inactive)
REMARK    1  A    between atoms: C_1  and  C_2
REMARK    2  A    between atoms: C_4  and  C_24
REMARK    3  A    between atoms: N_6  and  C_8
REMARK    4  A    between atoms: C_12  and  C_14
REMARK    5  A    between atoms: C_14  and  N_15
REMARK    6  A    between atoms: C_18  and  C_21
REMARK                            x       y       z     vdW  Elec       q    Type
REMARK                         _______ _______ _______ _____ _____    ______ ____
ROOT
ATOM      1  C   UNL     1      -0.019   1.526   0.010  0.00  0.00    +0.011 C 
ATOM      2  C   UNL     1       0.002  -0.004   0.002  0.00  0.00    -0.031 C 
ATOM      3  C   UNL     1       0.721  -0.502  -1.256  0.00  0.00    +0.012 C 
ATOM      4  C   UNL     1       0.786  -2.032  -1.222  0.00  0.00    -0.031 C 
ATOM      5  C   UNL     1       1.488  -2.478   0.062  0.00  0.00    -0.071 C 
ATOM      6  N   UNL     1       0.740  -1.993   1.228  0.00  0.00    +0.379 N 
ATOM      7  C   UNL     1       0.742  -0.514   1.240  0.00  0.00    -0.071 C 
ATOM      8  C   UNL     1       1.374  -2.489   2.457  0.00  0.00    -0.096 C 
ATOM      9  C   UNL     1      -0.640  -2.594  -1.240  0.00  0.00    +0.112 C 
ATOM     10  N   UNL     1      -1.394  -2.001  -0.128  0.00  0.00    -0.302 N 
ATOM     11  C   UNL     1      -1.435  -0.538   0.015  0.00  0.00    +0.112 C 
ATOM     12  C   UNL     1      -2.039  -2.786   0.759  0.00  0.00    +0.199 C 
ATOM     13  O   UNL     1      -1.999  -3.992   0.642  0.00  0.00    -0.278 OA
ATOM     14  C   UNL     1       1.566  -2.540  -2.436  0.00  0.00    +0.011 C 
ATOM     15  H   UNL     1      -0.210  -2.332   1.181  0.00  0.00    -0.082 HD
ENDROOT
BRANCH  12  16
ATOM     16  C   UNL     1      -2.809  -2.163   1.895  0.00  0.00    +0.019 C 
BRANCH  16  17
ATOM     17  N   UNL     1      -3.416  -3.222   2.713  0.00  0.00    +0.385 N 
ATOM     18  C   UNL     1      -2.356  -4.020   3.342  0.00  0.00    -0.077 C 
ATOM     19  C   UNL     1      -2.980  -5.173   4.130  0.00  0.00    -0.006 C 
ATOM     20  C   UNL     1      -3.904  -4.605   5.212  0.00  0.00    +0.071 C 
ATOM     21  C   UNL     1      -4.960  -3.715   4.551  0.00  0.00    -0.006 C 
ATOM     22  C   UNL     1      -4.262  -2.615   3.747  0.00  0.00    -0.077 C 
ATOM     23  H   UNL     1      -3.979  -3.819   2.126  0.00  0.00    -0.081 HD
BRANCH  20  24
ATOM     24  C   UNL     1      -4.582  -5.736   5.941  0.00  0.00    +0.213 C 
ATOM     25  O   UNL     1      -4.351  -6.884   5.627  0.00  0.00    -0.276 OA
ATOM     26  N   UNL     1      -5.446  -5.471   6.941  0.00  0.00    -0.329 N 
ATOM     27  H   UNL     1      -5.630  -4.552   7.191  0.00  0.00    +0.145 HD
ATOM     28  H   UNL     1      -5.882  -6.199   7.410  0.00  0.00    +0.145 HD
ENDBRANCH  20  24
ENDBRANCH  16  17
ENDBRANCH  12  16
TORSDOF 3
