REMARK  Name = ZINC01902374
REMARK  8 active torsions:
REMARK  status: ('A' for Active; 'I' for Inactive)
REMARK    1  A    between atoms: C_1  and  O_2
REMARK    2  A    between atoms: O_2  and  C_3
REMARK    3  A    between atoms: C_7  and  C_11
REMARK    4  A    between atoms: C_8  and  O_9
REMARK    5  A    between atoms: O_9  and  C_10
REMARK    6  A    between atoms: N_15  and  N_19
REMARK    7  A    between atoms: C_20  and  C_22
REMARK    8  A    between atoms: C_26  and  N_28
REMARK                            x       y       z     vdW  Elec       q    Type
REMARK                         _______ _______ _______ _____ _____    ______ ____
ROOT
ATOM      1  C   UNL     1      -5.287   0.076  -1.993  0.00  0.00    +0.032 C 
ATOM      2  C   UNL     1      -4.445   0.416  -0.984  0.00  0.00    +0.079 C 
ATOM      3  C   UNL     1      -3.432   1.489  -0.924  0.00  0.00    +0.275 C 
ATOM      4  O   UNL     1      -3.240   2.240  -1.863  0.00  0.00    -0.267 OA
ATOM      5  N   UNL     1      -2.741   1.590   0.199  0.00  0.00    -0.169 N 
ATOM      6  C   UNL     1      -2.961   0.760   1.238  0.00  0.00    +0.138 C 
ATOM      7  S   UNL     1      -2.182   0.736   2.763  0.00  0.00    -0.026 S 
ATOM      8  S   UNL     1      -4.260  -0.309   0.640  0.00  0.00    -0.059 S 
ENDROOT
BRANCH   1  13
ATOM      9  C   UNL     1      -6.149   1.710  -5.267  0.00  0.00    +0.162 A 
ATOM     10  C   UNL     1      -4.885   1.914  -5.798  0.00  0.00    +0.049 A 
ATOM     11  C   UNL     1      -3.758   1.522  -5.095  0.00  0.00    +0.004 A 
ATOM     12  C   UNL     1      -3.881   0.925  -3.859  0.00  0.00    +0.012 A 
ATOM     13  C   UNL     1      -5.151   0.712  -3.309  0.00  0.00    +0.022 A 
ATOM     14  C   UNL     1      -6.292   1.104  -4.025  0.00  0.00    +0.169 A 
BRANCH   9  16
ATOM     15  C   UNL     1      -7.030   2.709  -7.237  0.00  0.00    +0.277 C 
ATOM     16  O   UNL     1      -7.250   2.098  -5.965  0.00  0.00    -0.491 OA
ENDBRANCH   9  16
BRANCH  14  17
ATOM     17  O   UNL     1      -7.529   0.898  -3.504  0.00  0.00    -0.491 OA
ATOM     18  C   UNL     1      -8.076   1.944  -2.698  0.00  0.00    +0.277 C 
ENDBRANCH  14  17
ENDBRANCH   1  13
BRANCH   5  19
ATOM     19  N   UNL     1      -1.763   2.587   0.313  0.00  0.00    -0.222 N 
ATOM     20  C   UNL     1      -0.457   2.260   0.243  0.00  0.00    +0.261 C 
ATOM     21  O   UNL     1      -0.128   1.102   0.080  0.00  0.00    -0.269 OA
ATOM     22  H   UNL     1      -2.026   3.511   0.444  0.00  0.00    +0.174 HD
BRANCH  20  23
ATOM     23  C   UNL     1       0.575   3.313   0.358  0.00  0.00    +0.040 A 
ATOM     24  C   UNL     1       0.200   4.644   0.545  0.00  0.00    +0.013 A 
ATOM     25  C   UNL     1       1.168   5.622   0.651  0.00  0.00    +0.003 A 
ATOM     26  C   UNL     1       2.508   5.284   0.573  0.00  0.00    +0.033 A 
ATOM     27  C   UNL     1       2.886   3.966   0.388  0.00  0.00    +0.127 A 
ATOM     28  C   UNL     1       1.928   2.979   0.285  0.00  0.00    +0.045 A 
BRANCH  27  29
ATOM     29  N   UNL     1       4.321   3.614   0.305  0.00  0.00    +0.056 N 
ATOM     30  O   UNL     1       5.168   4.484   0.400  0.00  0.00    -0.126 OA
ATOM     31  O   UNL     1       4.655   2.454   0.142  0.00  0.00    -0.126 OA
ENDBRANCH  27  29
ENDBRANCH  20  23
ENDBRANCH   5  19
TORSDOF 6
