REMARK  Name = ZINC49457639
REMARK  7 active torsions:
REMARK  status: ('A' for Active; 'I' for Inactive)
REMARK    1  A    between atoms: C_1  and  C_2
REMARK    2  A    between atoms: C_2  and  C_3
REMARK    3  A    between atoms: C_2  and  C_4
REMARK    4  A    between atoms: C_2  and  N_5
REMARK    5  A    between atoms: C_7  and  N_10
REMARK    6  A    between atoms: C_11  and  C_13
REMARK    7  A    between atoms: N_17  and  C_18
REMARK                            x       y       z     vdW  Elec       q    Type
REMARK                         _______ _______ _______ _____ _____    ______ ____
ROOT
ATOM      1  N   UNL     1       3.506  -1.137  -3.270  0.00  0.00    -0.278 N 
ATOM      2  C   UNL     1       3.586  -1.677  -4.503  0.00  0.00    +0.265 C 
ATOM      3  O   UNL     1       2.584  -2.098  -5.049  0.00  0.00    -0.268 OA
ATOM      4  H   UNL     1       4.314  -0.871  -2.804  0.00  0.00    +0.155 HD
ENDROOT
BRANCH   2   5
ATOM      5  C   UNL     1       4.882  -1.755  -5.186  0.00  0.00    +0.106 A 
ATOM      6  C   UNL     1       6.106  -1.408  -4.654  0.00  0.00    +0.052 A 
ATOM      7  C   UNL     1       7.066  -1.640  -5.645  0.00  0.00    +0.059 A 
ATOM      8  C   UNL     1       6.425  -2.114  -6.741  0.00  0.00    +0.106 A 
ATOM      9  N   UNL     1       5.098  -2.195  -6.472  0.00  0.00    -0.345 N 
ATOM     10  C   UNL     1       4.065  -2.666  -7.399  0.00  0.00    +0.149 C 
ATOM     11 CL   UNL     1       8.774  -1.369  -5.497  0.00  0.00    -0.082 Cl
ENDBRANCH   2   5
BRANCH   1  14
ATOM     12  N   UNL     1       0.685  -0.439  -1.219  0.00  0.00    -0.264 N 
ATOM     13  C   UNL     1       2.026  -0.433  -1.430  0.00  0.00    +0.132 A 
ATOM     14  C   UNL     1       2.250  -0.961  -2.660  0.00  0.00    +0.072 A 
ATOM     15  C   UNL     1       1.007  -1.298  -3.215  0.00  0.00    +0.157 A 
ATOM     16  N   UNL     1       0.074  -0.991  -2.352  0.00  0.00    -0.177 NA
BRANCH  12  18
ATOM     17  C   UNL     1      -0.012   1.571  -0.012  0.00  0.00    +0.036 C 
ATOM     18  C   UNL     1      -0.002   0.041  -0.017  0.00  0.00    +0.055 C 
ATOM     19  C   UNL     1       0.731  -0.468   1.226  0.00  0.00    +0.036 C 
ATOM     20  C   UNL     1      -1.441  -0.479  -0.009  0.00  0.00    +0.036 C 
ENDBRANCH  12  18
ENDBRANCH   1  14
TORSDOF 3
