REMARK  Name = ZINC59518029
REMARK  8 active torsions:
REMARK  status: ('A' for Active; 'I' for Inactive)
REMARK    1  A    between atoms: C_1  and  C_2
REMARK    2  A    between atoms: C_2  and  C_3
REMARK    3  A    between atoms: C_2  and  C_4
REMARK    4  A    between atoms: C_2  and  C_5
REMARK    5  A    between atoms: C_5  and  C_6
REMARK    6  A    between atoms: C_9  and  C_12
REMARK    7  A    between atoms: N_16  and  C_23
REMARK    8  A    between atoms: N_19  and  C_22
REMARK                            x       y       z     vdW  Elec       q    Type
REMARK                         _______ _______ _______ _____ _____    ______ ____
ROOT
ATOM      1  C   UNL     1       6.140   1.502  -1.298  0.00  0.00    +0.093 C 
ATOM      2  C   UNL     1       6.628   1.663   0.119  0.00  0.00    +0.067 A 
ATOM      3  C   UNL     1       7.530   0.815   0.682  0.00  0.00    +0.116 A 
ATOM      4  N   UNL     1       7.925   1.018   1.986  0.00  0.00    -0.284 N 
ATOM      5  C   UNL     1       7.433   2.046   2.699  0.00  0.00    +0.333 A 
ATOM      6  O   UNL     1       7.797   2.209   3.847  0.00  0.00    -0.246 OA
ATOM      7  N   UNL     1       6.544   2.899   2.157  0.00  0.00    -0.264 N 
ATOM      8  C   UNL     1       6.128   2.735   0.887  0.00  0.00    +0.262 A 
ATOM      9  O   UNL     1       5.321   3.510   0.404  0.00  0.00    -0.267 OA
ATOM     10  C   UNL     1       6.026   4.013   2.954  0.00  0.00    +0.157 C 
ATOM     11  C   UNL     1       8.892   0.105   2.602  0.00  0.00    +0.155 C 
ATOM     12  N   UNL     1       8.072  -0.246  -0.010  0.00  0.00    -0.299 N 
ATOM     13  C   UNL     1       7.926  -0.281  -1.379  0.00  0.00    +0.048 C 
ATOM     14  C   UNL     1       7.028   0.528  -2.027  0.00  0.00    +0.034 C 
ATOM     15  H   UNL     1       8.546  -0.953   0.456  0.00  0.00    +0.154 HD
ATOM     16  C   UNL     1       7.092   0.289  -3.418  0.00  0.00    +0.193 C 
ATOM     17  O   UNL     1       6.429   0.843  -4.274  0.00  0.00    -0.287 OA
ATOM     18  C   UNL     1       8.112  -0.757  -3.644  0.00  0.00    +0.031 A 
ATOM     19  C   UNL     1       8.626  -1.107  -2.368  0.00  0.00    +0.007 A 
ATOM     20  C   UNL     1       9.610  -2.074  -2.237  0.00  0.00    +0.010 A 
ATOM     21  C   UNL     1      10.066  -2.677  -3.413  0.00  0.00    +0.001 A 
ATOM     22  C   UNL     1       9.568  -2.335  -4.647  0.00  0.00    +0.001 A 
ATOM     23  C   UNL     1       8.572  -1.362  -4.797  0.00  0.00    +0.012 A 
ENDROOT
BRANCH   1  27
ATOM     24  C   UNL     1       2.132   0.024  -1.268  0.00  0.00    -0.047 A 
ATOM     25  C   UNL     1       2.415   1.242  -1.857  0.00  0.00    +0.004 A 
ATOM     26  C   UNL     1       3.712   1.720  -1.867  0.00  0.00    +0.005 A 
ATOM     27  C   UNL     1       4.726   0.981  -1.287  0.00  0.00    -0.035 A 
ATOM     28  C   UNL     1       4.442  -0.236  -0.696  0.00  0.00    +0.005 A 
ATOM     29  C   UNL     1       3.145  -0.713  -0.682  0.00  0.00    +0.004 A 
BRANCH  24  30
ATOM     30  C   UNL     1       0.718  -0.497  -1.257  0.00  0.00    +0.041 C 
BRANCH  30  32
ATOM     31  C   UNL     1      -0.019   1.526   0.010  0.00  0.00    +0.011 C 
ATOM     32  C   UNL     1       0.002  -0.004   0.002  0.00  0.00    -0.034 C 
ATOM     33  C   UNL     1       0.742  -0.511   1.242  0.00  0.00    +0.011 C 
ATOM     34  C   UNL     1      -1.433  -0.534   0.013  0.00  0.00    +0.011 C 
ENDBRANCH  30  32
ENDBRANCH  24  30
ENDBRANCH   1  27
TORSDOF 3
