REMARK  Name = ZINC09036504
REMARK  7 active torsions:
REMARK  status: ('A' for Active; 'I' for Inactive)
REMARK    1  A    between atoms: C_1  and  C_2
REMARK    2  A    between atoms: C_2  and  C_3
REMARK    3  A    between atoms: C_6  and  S_8
REMARK    4  A    between atoms: S_8  and  N_11
REMARK    5  A    between atoms: N_11  and  C_12
REMARK    6  A    between atoms: C_12  and  C_13
REMARK    7  A    between atoms: N_18  and  C_20
REMARK                            x       y       z     vdW  Elec       q    Type
REMARK                         _______ _______ _______ _____ _____    ______ ____
ROOT
ATOM      1  C   UNL     1       4.441   6.875  -0.445  0.00  0.00    +0.111 C 
ENDROOT
BRANCH   1   2
ATOM      2  C   UNL     1       3.878   5.706   0.366  0.00  0.00    +0.031 C 
ATOM      3  C   UNL     1       4.644   4.399   0.057  0.00  0.00    +0.102 C 
ATOM      4  C   UNL     1       3.576   3.328   0.083  0.00  0.00    +0.220 C 
ATOM      5  O   UNL     1       3.788   2.136   0.166  0.00  0.00    -0.275 OA
ATOM      6  N   UNL     1       2.357   3.889   0.001  0.00  0.00    -0.271 N 
ATOM      7  C   UNL     1       2.448   5.349  -0.103  0.00  0.00    +0.119 C 
BRANCH   6   8
ATOM      8  C   UNL     1       1.155   3.171   0.008  0.00  0.00    +0.036 A 
ATOM      9  C   UNL     1       1.174   1.782  -0.015  0.00  0.00    +0.026 A 
ATOM     10  C   UNL     1      -0.013   1.076  -0.007  0.00  0.00    +0.040 A 
ATOM     11  C   UNL     1      -1.221   1.751   0.017  0.00  0.00    +0.124 A 
ATOM     12  C   UNL     1      -1.243   3.136   0.046  0.00  0.00    +0.040 A 
ATOM     13  C   UNL     1      -0.058   3.846   0.039  0.00  0.00    +0.026 A 
ATOM     14  F   UNL     1      -2.381   1.059   0.019  0.00  0.00    -0.205 F 
ENDBRANCH   6   8
ENDBRANCH   1   2
BRANCH   1  15
ATOM     15  N   UNL     1       5.806   7.166   0.002  0.00  0.00    -0.189 NA
ATOM     16  H   UNL     1       6.130   6.802   0.840  0.00  0.00    +0.148 HD
BRANCH  15  17
ATOM     17  S   UNL     1       6.795   8.118  -0.925  0.00  0.00    +0.065 S 
ATOM     18  O   UNL     1       8.023   8.234  -0.221  0.00  0.00    -0.153 OA
ATOM     19  O   UNL     1       6.722   7.610  -2.251  0.00  0.00    -0.153 OA
BRANCH  17  23
ATOM     20  C   UNL     1       4.761  12.039  -1.402  0.00  0.00    -0.009 A 
ATOM     21  C   UNL     1       5.610  11.957  -0.348  0.00  0.00    +0.013 A 
ATOM     22  C   UNL     1       6.282  10.771  -0.120  0.00  0.00    +0.036 A 
ATOM     23  C   UNL     1       6.082   9.729  -0.963  0.00  0.00    +0.143 A 
ATOM     24  S   UNL     1       4.901  10.409  -2.117  0.00  0.00    -0.074 S 
BRANCH  20  26
ATOM     25  C   UNL     1       4.714  14.058  -2.841  0.00  0.00    +0.009 C 
ATOM     26  C   UNL     1       3.917  13.203  -1.853  0.00  0.00    +0.039 C 
ENDBRANCH  20  26
ENDBRANCH  17  23
ENDBRANCH  15  17
ENDBRANCH   1  15
TORSDOF 6
