REMARK  Name = ZINC32126355
REMARK  6 active torsions:
REMARK  status: ('A' for Active; 'I' for Inactive)
REMARK    1  A    between atoms: C_1  and  O_2
REMARK    2  A    between atoms: O_2  and  C_3
REMARK    3  A    between atoms: N_13  and  C_14
REMARK    4  A    between atoms: C_14  and  N_16
REMARK    5  A    between atoms: C_17  and  C_19
REMARK    6  A    between atoms: C_20  and  C_21
REMARK                            x       y       z     vdW  Elec       q    Type
REMARK                         _______ _______ _______ _____ _____    ______ ____
ROOT
ATOM      1  C   UNL     1       1.176   1.790   0.000  0.00  0.00    +0.140 A 
ATOM      2  C   UNL     1      -0.013   1.076   0.008  0.00  0.00    +0.064 A 
ATOM      3  C   UNL     1      -1.208   1.750   0.017  0.00  0.00    +0.042 A 
ATOM      4  C   UNL     1      -1.289   3.161   0.032  0.00  0.00    +0.057 A 
ATOM      5  C   UNL     1      -0.059   3.860   0.023  0.00  0.00    +0.050 A 
ATOM      6  C   UNL     1       1.133   3.182   0.008  0.00  0.00    +0.085 A 
ATOM      7 CL   UNL     1       2.619   4.078  -0.000  0.00  0.00    -0.080 Cl
ATOM      8  N   UNL     1      -2.539   3.675   0.048  0.00  0.00    -0.335 N 
ATOM      9  C   UNL     1      -3.612   2.920   0.055  0.00  0.00    +0.163 A 
ATOM     10  S   UNL     1      -2.919   1.273   0.039  0.00  0.00    -0.052 S 
ATOM     11  N   UNL     1      -4.943   3.302   0.070  0.00  0.00    -0.169 NA
ATOM     12  H   UNL     1      -2.686   4.766   0.055  0.00  0.00    +0.168 HD
ENDROOT
BRANCH   1  14
ATOM     13  C   UNL     1       2.330  -0.289  -0.023  0.00  0.00    +0.277 C 
ATOM     14  O   UNL     1       2.370   1.139  -0.015  0.00  0.00    -0.494 OA
ENDBRANCH   1  14
BRANCH  11  15
ATOM     15  C   UNL     1      -5.269   4.610   0.081  0.00  0.00    +0.163 C 
ATOM     16  S   UNL     1      -4.037   5.799   0.075  0.00  0.00    -0.016 S 
BRANCH  15  17
ATOM     17  N   UNL     1      -6.564   4.982   0.096  0.00  0.00    -0.263 N 
ATOM     18  C   UNL     1      -6.890   6.290   0.106  0.00  0.00    +0.242 C 
ATOM     19  O   UNL     1      -6.014   7.135   0.102  0.00  0.00    -0.270 OA
ATOM     20  H   UNL     1      -7.356   4.218   0.099  0.00  0.00    +0.157 HD
BRANCH  18  21
ATOM     21  C   UNL     1      -8.249   6.680   0.122  0.00  0.00    +0.071 C 
ATOM     22  C   UNL     1      -8.577   7.997   0.132  0.00  0.00    +0.051 C 
BRANCH  22  23
ATOM     23  C   UNL     1      -9.937   8.387   0.148  0.00  0.00    +0.128 A 
ATOM     24  C   UNL     1     -10.411   9.683   0.165  0.00  0.00    +0.049 A 
ATOM     25  C   UNL     1     -11.811   9.596   0.174  0.00  0.00    +0.042 A 
ATOM     26  C   UNL     1     -12.130   8.282   0.170  0.00  0.00    +0.195 A 
ATOM     27  O   UNL     1     -11.002   7.559   0.155  0.00  0.00    -0.464 OA
ENDBRANCH  22  23
ENDBRANCH  18  21
ENDBRANCH  15  17
ENDBRANCH  11  15
TORSDOF 5
