REMARK  Name = ZINC09366400
REMARK  9 active torsions:
REMARK  status: ('A' for Active; 'I' for Inactive)
REMARK    1  A    between atoms: C_1  and  C_2
REMARK    2  A    between atoms: C_2  and  C_3
REMARK    3  A    between atoms: C_3  and  C_4
REMARK    4  A    between atoms: C_4  and  O_5
REMARK    5  A    between atoms: O_5  and  C_6
REMARK    6  A    between atoms: C_9  and  C_12
REMARK    7  A    between atoms: C_18  and  S_20
REMARK    8  A    between atoms: S_20  and  C_21
REMARK    9  A    between atoms: C_21  and  C_22
REMARK                            x       y       z     vdW  Elec       q    Type
REMARK                         _______ _______ _______ _____ _____    ______ ____
ROOT
ATOM      1  C   UNL     1      -2.125  10.869   0.770  0.00  0.00    +0.250 C 
ATOM      2  O   UNL     1      -0.978  10.477   0.683  0.00  0.00    -0.270 OA
ATOM      3  N   UNL     1      -3.143   9.986   0.749  0.00  0.00    -0.259 N 
ATOM      4  C   UNL     1      -2.880   8.624   0.626  0.00  0.00    +0.189 A 
ATOM      5  N   UNL     1      -1.725   7.987   0.518  0.00  0.00    -0.125 NA
ATOM      6  N   UNL     1      -1.661   6.732   0.414  0.00  0.00    -0.133 NA
ATOM      7  C   UNL     1      -2.748   5.974   0.406  0.00  0.00    +0.160 A 
ATOM      8  S   UNL     1      -4.008   7.235   0.563  0.00  0.00    -0.024 S 
ATOM      9  H   UNL     1      -4.058  10.298   0.818  0.00  0.00    +0.157 HD
ENDROOT
BRANCH   1  13
ATOM     10  C   UNL     1      -2.927  15.022   1.143  0.00  0.00    +0.121 A 
ATOM     11  C   UNL     1      -1.615  14.576   1.044  0.00  0.00    +0.046 A 
ATOM     12  C   UNL     1      -1.350  13.230   0.923  0.00  0.00    +0.016 A 
ATOM     13  C   UNL     1      -2.404  12.312   0.900  0.00  0.00    +0.037 A 
ATOM     14  C   UNL     1      -3.723  12.765   0.995  0.00  0.00    +0.016 A 
ATOM     15  C   UNL     1      -3.978  14.113   1.121  0.00  0.00    +0.046 A 
BRANCH  10  16
ATOM     16  O   UNL     1      -3.184  16.350   1.262  0.00  0.00    -0.492 OA
BRANCH  16  17
ATOM     17  C   UNL     1      -4.555  16.739   1.360  0.00  0.00    +0.229 C 
BRANCH  17  18
ATOM     18  C   UNL     1      -4.645  18.261   1.487  0.00  0.00    +0.041 C 
BRANCH  18  20
ATOM     19  C   UNL     1      -6.203  20.201   1.718  0.00  0.00    +0.004 C 
ATOM     20  C   UNL     1      -6.113  18.679   1.591  0.00  0.00    -0.000 C 
ENDBRANCH  18  20
ENDBRANCH  17  18
ENDBRANCH  16  17
ENDBRANCH  10  16
ENDBRANCH   1  13
BRANCH   7  21
ATOM     21  S   UNL     1      -2.906   4.224   0.273  0.00  0.00    -0.088 S 
BRANCH  21  22
ATOM     22  C   UNL     1      -1.195   3.637   0.141  0.00  0.00    +0.172 C 
BRANCH  22  23
ATOM     23  C   UNL     1      -1.188   2.135   0.019  0.00  0.00    +0.230 C 
ATOM     24  O   UNL     1      -2.234   1.529  -0.081  0.00  0.00    -0.274 OA
ATOM     25  N   UNL     1      -0.018   1.464   0.021  0.00  0.00    -0.270 N 
ATOM     26  C   UNL     1       1.259   2.190   0.006  0.00  0.00    +0.114 C 
ATOM     27  C   UNL     1       2.177   1.502  -1.012  0.00  0.00    +0.024 C 
ATOM     28  C   UNL     1       2.455   0.075  -0.542  0.00  0.00    +0.038 C 
ATOM     29  C   UNL     1       1.166  -0.637  -0.225  0.00  0.00    -0.026 A 
ATOM     30  C   UNL     1      -0.000   0.063   0.043  0.00  0.00    +0.039 A 
ATOM     31  C   UNL     1      -1.172  -0.625   0.337  0.00  0.00    +0.024 A 
ATOM     32  C   UNL     1      -1.176  -2.005   0.360  0.00  0.00    +0.002 A 
ATOM     33  C   UNL     1      -0.013  -2.703   0.090  0.00  0.00    +0.000 A 
ATOM     34  C   UNL     1       1.153  -2.021  -0.201  0.00  0.00    +0.005 A 
ENDBRANCH  22  23
ENDBRANCH  21  22
ENDBRANCH   7  21
TORSDOF 8
