REMARK  Name = ZINC19369730
REMARK  10 active torsions:
REMARK  status: ('A' for Active; 'I' for Inactive)
REMARK    1  A    between atoms: C_1  and  C_2
REMARK    2  A    between atoms: C_2  and  N_3
REMARK    3  A    between atoms: N_6  and  C_9
REMARK    4  A    between atoms: C_9  and  C_10
REMARK    5  A    between atoms: C_11  and  C_26
REMARK    6  A    between atoms: C_12  and  C_18
REMARK    7  A    between atoms: C_21  and  C_25
REMARK    8  A    between atoms: C_23  and  C_24
REMARK    9  A    between atoms: C_26  and  O_28
REMARK   10  A    between atoms: O_28  and  C_29
REMARK                            x       y       z     vdW  Elec       q    Type
REMARK                         _______ _______ _______ _____ _____    ______ ____
ROOT
ATOM      1  C   UNL     1       0.836  -3.553   2.156  0.00  0.00    +0.038 C 
ATOM      2  C   UNL     1       1.588  -2.686   1.445  0.00  0.00    +0.079 C 
ATOM      3  C   UNL     1       1.018  -2.160   0.143  0.00  0.00    +0.144 C 
ATOM      4  N   UNL     1      -0.319  -2.642  -0.242  0.00  0.00    -0.288 N 
ATOM      5  C   UNL     1      -0.948  -3.510   0.574  0.00  0.00    +0.304 C 
ATOM      6  O   UNL     1      -2.052  -3.913   0.265  0.00  0.00    -0.252 OA
ATOM      7  N   UNL     1      -0.397  -3.942   1.715  0.00  0.00    -0.271 N 
ATOM      8  H   UNL     1      -0.780  -2.293  -1.178  0.00  0.00    +0.151 HD
ATOM      9  H   UNL     1      -0.995  -4.649   2.309  0.00  0.00    +0.156 HD
ENDROOT
BRANCH   3  10
ATOM     10  C   UNL     1       0.962  -0.657   0.233  0.00  0.00    -0.020 A 
ATOM     11  C   UNL     1       0.900  -0.041   1.469  0.00  0.00    +0.006 A 
ATOM     12  C   UNL     1       0.848   1.338   1.552  0.00  0.00    +0.004 A 
ATOM     13  C   UNL     1       0.859   2.101   0.399  0.00  0.00    -0.050 A 
ATOM     14  C   UNL     1       0.921   1.484  -0.837  0.00  0.00    +0.007 A 
ATOM     15  C   UNL     1       0.973   0.105  -0.919  0.00  0.00    -0.045 A 
ATOM     16  C   UNL     1       1.040  -0.567  -2.267  0.00  0.00    +0.044 C 
ATOM     17  C   UNL     1       0.802   3.604   0.489  0.00  0.00    +0.044 C 
ENDBRANCH   3  10
BRANCH   2  18
ATOM     18  C   UNL     1       2.865  -2.281   1.901  0.00  0.00    +0.339 C 
ATOM     19  O   UNL     1       3.868  -2.713   1.364  0.00  0.00    -0.245 OA
BRANCH  18  20
ATOM     20  O   UNL     1       2.971  -1.416   2.931  0.00  0.00    -0.465 OA
ATOM     21  C   UNL     1       4.287  -1.138   3.412  0.00  0.00    +0.280 C 
ENDBRANCH  18  20
ENDBRANCH   2  18
BRANCH   1  22
ATOM     22  C   UNL     1       1.365  -4.101   3.456  0.00  0.00    +0.135 C 
BRANCH  22  26
ATOM     23  N   UNL     1      -0.075  -2.500   7.091  0.00  0.00    +0.381 N 
ATOM     24  C   UNL     1      -0.140  -3.956   6.906  0.00  0.00    -0.063 C 
ATOM     25  C   UNL     1       0.837  -4.372   5.804  0.00  0.00    +0.066 C 
ATOM     26  N   UNL     1       0.495  -3.670   4.559  0.00  0.00    -0.300 NA
ATOM     27  C   UNL     1       0.561  -2.214   4.744  0.00  0.00    +0.066 C 
ATOM     28  C   UNL     1      -0.416  -1.798   5.846  0.00  0.00    -0.063 C 
ATOM     29  H   UNL     1       0.960  -2.237   7.356  0.00  0.00    -0.082 HD
BRANCH  23  31
ATOM     30  C   UNL     1      -0.666  -0.601   8.520  0.00  0.00    -0.017 C 
ATOM     31  C   UNL     1      -0.944  -2.070   8.194  0.00  0.00    -0.082 C 
ENDBRANCH  23  31
ENDBRANCH  22  26
ENDBRANCH   1  22
TORSDOF 6
