REMARK  Name = ZINC64058341
REMARK  6 active torsions:
REMARK  status: ('A' for Active; 'I' for Inactive)
REMARK    1  A    between atoms: C_3  and  N_8
REMARK    2  A    between atoms: C_9  and  C_26
REMARK    3  A    between atoms: C_11  and  C_15
REMARK    4  A    between atoms: N_17  and  C_18
REMARK    5  A    between atoms: C_18  and  C_19
REMARK    6  A    between atoms: C_19  and  C_20
REMARK                            x       y       z     vdW  Elec       q    Type
REMARK                         _______ _______ _______ _____ _____    ______ ____
ROOT
ATOM      1  N   UNL     1       3.770   3.281  -0.200  0.00  0.00    -0.219 N 
ATOM      2  C   UNL     1       5.191   3.640  -0.054  0.00  0.00    +0.235 C 
ATOM      3  C   UNL     1       5.896   2.313   0.122  0.00  0.00    +0.060 C 
ATOM      4  H   UNL     1       2.894   1.364  -0.161  0.00  0.00    +0.170 HD
ATOM      5  C   UNL     1       4.949   1.357   0.075  0.00  0.00    +0.098 C 
ATOM      6  N   UNL     1       3.710   1.885  -0.104  0.00  0.00    -0.269 N 
ENDROOT
BRANCH   1   9
ATOM      7  C   UNL     1       0.374   4.561  -0.694  0.00  0.00    +0.077 A 
ATOM      8  C   UNL     1       1.403   3.655  -0.509  0.00  0.00    +0.052 A 
ATOM      9  C   UNL     1       2.700   4.154  -0.388  0.00  0.00    +0.161 A 
ATOM     10  N   UNL     1       2.912   5.458  -0.452  0.00  0.00    -0.129 NA
ATOM     11  N   UNL     1       1.956   6.298  -0.624  0.00  0.00    -0.105 NA
ATOM     12  C   UNL     1       0.697   5.916  -0.749  0.00  0.00    +0.289 A 
ATOM     13  O   UNL     1      -0.280   6.842  -0.929  0.00  0.00    -0.264 OA
ENDBRANCH   1   9
BRANCH   3  14
ATOM     14  C   UNL     1       7.285   2.115   0.302  0.00  0.00    +0.243 C 
ATOM     15  O   UNL     1       8.023   3.073   0.442  0.00  0.00    -0.270 OA
ATOM     16  N   UNL     1       7.791   0.866   0.318  0.00  0.00    -0.311 N 
ATOM     17  H   UNL     1       7.215   0.107   0.132  0.00  0.00    +0.149 HD
BRANCH  16  18
ATOM     18  C   UNL     1       9.209   0.654   0.617  0.00  0.00    +0.109 C 
BRANCH  18  19
ATOM     19  C   UNL     1       9.522  -0.843   0.572  0.00  0.00    +0.049 C 
BRANCH  19  20
ATOM     20  C   UNL     1      10.981  -1.061   0.879  0.00  0.00    -0.072 C 
ATOM     21  C   UNL     1      11.309  -1.338   2.100  0.00  0.00    -0.028 C 
ATOM     22  C   UNL     1      12.719  -1.569   2.560  0.00  0.00    +0.027 C 
ATOM     23  C   UNL     1      13.624  -1.854   1.360  0.00  0.00    +0.004 C 
ATOM     24  C   UNL     1      13.380  -0.772   0.300  0.00  0.00    +0.005 C 
ATOM     25  C   UNL     1      11.962  -0.950  -0.251  0.00  0.00    +0.030 C 
ENDBRANCH  19  20
ENDBRANCH  18  19
ENDBRANCH  16  18
ENDBRANCH   3  14
BRANCH   2  26
ATOM     26  C   UNL     1       5.693   4.353  -1.312  0.00  0.00    +0.414 C 
ATOM     27  F   UNL     1       4.899   5.478  -1.559  0.00  0.00    -0.168 F 
ATOM     28  F   UNL     1       7.020   4.753  -1.122  0.00  0.00    -0.168 F 
ATOM     29  F   UNL     1       5.620   3.481  -2.403  0.00  0.00    -0.168 F 
ENDBRANCH   2  26
TORSDOF 6
