REMARK  Name = ZINC12536987
REMARK  5 active torsions:
REMARK  status: ('A' for Active; 'I' for Inactive)
REMARK    1  A    between atoms: C_1  and  O_2
REMARK    2  A    between atoms: O_2  and  C_3
REMARK    3  A    between atoms: C_6  and  C_9
REMARK    4  A    between atoms: C_14  and  S_25
REMARK    5  A    between atoms: S_25  and  C_26
REMARK                            x       y       z     vdW  Elec       q    Type
REMARK                         _______ _______ _______ _____ _____    ______ ____
ROOT
ATOM      1  C   UNL     1       1.118   3.724  -0.008  0.00  0.00    +0.090 C 
ATOM      2  C   UNL     1      -0.209   4.261   0.435  0.00  0.00    +0.044 A 
ATOM      3  C   UNL     1      -0.338   5.583   0.853  0.00  0.00    +0.126 A 
ATOM      4  N   UNL     1      -1.534   6.022   1.238  0.00  0.00    -0.207 NA
ATOM      5  C   UNL     1      -2.589   5.221   1.225  0.00  0.00    +0.191 A 
ATOM      6  N   UNL     1      -2.501   3.957   0.833  0.00  0.00    -0.206 NA
ATOM      7  C   UNL     1      -1.336   3.452   0.437  0.00  0.00    +0.133 A 
ATOM      8  N   UNL     1      -1.234   2.132   0.031  0.00  0.00    -0.302 N 
ATOM      9  C   UNL     1      -0.018   1.505   0.010  0.00  0.00    +0.017 C 
ATOM     10  C   UNL     1       1.130   2.216   0.003  0.00  0.00    +0.024 C 
ATOM     11  C   UNL     1       2.379   1.570   0.002  0.00  0.00    +0.162 C 
ATOM     12  O   UNL     1       3.394   2.238  -0.020  0.00  0.00    -0.292 OA
ATOM     13  C   UNL     1       2.485   0.070   0.028  0.00  0.00    +0.080 C 
ATOM     14  C   UNL     1       1.251  -0.504   0.732  0.00  0.00    +0.014 C 
ATOM     15  C   UNL     1       0.002  -0.004   0.002  0.00  0.00    +0.051 C 
ATOM     16  N   UNL     1       0.761   6.427   0.868  0.00  0.00    -0.343 N 
ATOM     17  H   UNL     1      -2.030   1.649  -0.241  0.00  0.00    +0.153 HD
ATOM     18  H   UNL     1       1.629   6.099   0.585  0.00  0.00    +0.144 HD
ATOM     19  H   UNL     1       0.663   7.347   1.160  0.00  0.00    +0.144 HD
ENDROOT
BRANCH   1  23
ATOM     20  C   UNL     1       1.929   5.101  -3.971  0.00  0.00    +0.120 A 
ATOM     21  C   UNL     1       2.771   5.454  -2.927  0.00  0.00    +0.046 A 
ATOM     22  C   UNL     1       2.507   5.008  -1.646  0.00  0.00    +0.008 A 
ATOM     23  C   UNL     1       1.404   4.209  -1.405  0.00  0.00    -0.035 A 
ATOM     24  C   UNL     1       0.567   3.850  -2.445  0.00  0.00    +0.008 A 
ATOM     25  C   UNL     1       0.824   4.299  -3.727  0.00  0.00    +0.046 A 
BRANCH  20  27
ATOM     26  C   UNL     1       1.278   5.135  -6.257  0.00  0.00    +0.277 C 
ATOM     27  O   UNL     1       2.187   5.539  -5.231  0.00  0.00    -0.495 OA
ENDBRANCH  20  27
ENDBRANCH   1  23
BRANCH   5  28
ATOM     28  S   UNL     1      -4.151   5.851   1.743  0.00  0.00    -0.089 S 
ATOM     29  C   UNL     1      -3.685   7.552   2.147  0.00  0.00    +0.093 C 
ENDBRANCH   5  28
TORSDOF 3
