REMARK  Name = ZINC13064397
REMARK  8 active torsions:
REMARK  status: ('A' for Active; 'I' for Inactive)
REMARK    1  A    between atoms: C_1  and  C_2
REMARK    2  A    between atoms: C_2  and  C_3
REMARK    3  A    between atoms: C_3  and  C_5
REMARK    4  A    between atoms: C_3  and  N_72
REMARK    5  A    between atoms: N_9  and  C_10
REMARK    6  A    between atoms: C_15  and  C_16
REMARK    7  A    between atoms: C_15  and  N_72
REMARK    8  A    between atoms: C_32  and  N_72
REMARK                            x       y       z     vdW  Elec       q    Type
REMARK                         _______ _______ _______ _____ _____    ______ ____
ROOT
ATOM      1  N   UNL     1       2.699  -1.930   1.050  0.00  0.00    +0.391 N 
ATOM      2  H   UNL     1       2.422  -1.768   2.025  0.00  0.00    -0.080 HD
ENDROOT
BRANCH   1   3
ATOM      3  C   UNL     1       3.831  -1.039   0.719  0.00  0.00    -0.067 C 
ATOM      4  C   UNL     1       3.457   0.395   1.099  0.00  0.00    -0.015 C 
ATOM      5  C   UNL     1       4.628   1.328   0.782  0.00  0.00    -0.002 C 
ATOM      6  C   UNL     1       4.942   1.262  -0.714  0.00  0.00    -0.000 C 
ATOM      7  C   UNL     1       5.315  -0.172  -1.094  0.00  0.00    -0.002 C 
ATOM      8  C   UNL     1       4.145  -1.105  -0.777  0.00  0.00    -0.015 C 
ENDBRANCH   1   3
BRANCH   1   9
ATOM      9  C   UNL     1       1.550  -1.636   0.169  0.00  0.00    +0.003 C 
BRANCH   9  10
ATOM     10  C   UNL     1       1.756  -2.253  -1.191  0.00  0.00    +0.138 A 
ATOM     11  N   UNL     1       2.163  -3.473  -1.443  0.00  0.00    -0.115 NA
ATOM     12  N   UNL     1       2.214  -3.619  -2.722  0.00  0.00    -0.023 NA
ATOM     13  N   UNL     1       1.849  -2.524  -3.292  0.00  0.00    -0.044 NA
ATOM     14  N   UNL     1       1.559  -1.657  -2.382  0.00  0.00    -0.228 N 
BRANCH  14  15
ATOM     15  C   UNL     1       1.102  -0.283  -2.602  0.00  0.00    +0.111 C 
ATOM     16  C   UNL     1      -0.191  -0.285  -3.445  0.00  0.00    +0.027 C 
ATOM     17  C   UNL     1      -0.045   0.954  -4.364  0.00  0.00    +0.002 C 
ATOM     18  C   UNL     1       1.463   0.946  -4.715  0.00  0.00    +0.002 C 
ATOM     19  C   UNL     1       2.153   0.499  -3.409  0.00  0.00    +0.027 C 
ENDBRANCH  14  15
ENDBRANCH   9  10
BRANCH   9  21
ATOM     20  C   UNL     1      -0.006  -1.487   2.118  0.00  0.00    +0.002 C 
ATOM     21  C   UNL     1       0.284  -2.215   0.804  0.00  0.00    -0.011 C 
ENDBRANCH   9  21
ENDBRANCH   1   9
BRANCH   1  22
ATOM     22  C   UNL     1       3.106  -3.342   0.895  0.00  0.00    -0.036 C 
BRANCH  22  23
ATOM     23  C   UNL     1       3.993  -3.720   2.054  0.00  0.00    +0.001 A 
ATOM     24  C   UNL     1       3.454  -4.304   3.155  0.00  0.00    +0.017 A 
ATOM     25  C   UNL     1       4.341  -4.663   4.260  0.00  0.00    +0.002 A 
ATOM     26  C   UNL     1       3.843  -5.271   5.419  0.00  0.00    +0.059 A 
ATOM     27  C   UNL     1       4.703  -5.596   6.446  0.00  0.00    +0.163 A 
ATOM     28  C   UNL     1       6.069  -5.320   6.335  0.00  0.00    +0.164 A 
ATOM     29  C   UNL     1       6.570  -4.718   5.194  0.00  0.00    +0.075 A 
ATOM     30  C   UNL     1       5.718  -4.384   4.150  0.00  0.00    +0.053 A 
ATOM     31  N   UNL     1       6.200  -3.783   3.005  0.00  0.00    -0.322 N 
ATOM     32  H   UNL     1       7.148  -3.590   2.930  0.00  0.00    +0.169 HD
ATOM     33  C   UNL     1       5.377  -3.461   1.992  0.00  0.00    +0.251 A 
ATOM     34  O   UNL     1       5.839  -2.932   0.996  0.00  0.00    -0.268 OA
ATOM     35  O   UNL     1       6.925  -5.640   7.343  0.00  0.00    -0.485 OA
ATOM     36  C   UNL     1       6.343  -5.900   8.624  0.00  0.00    +0.270 C 
ATOM     37  C   UNL     1       5.143  -6.837   8.427  0.00  0.00    +0.270 C 
ATOM     38  O   UNL     1       4.202  -6.185   7.568  0.00  0.00    -0.485 OA
ENDBRANCH  22  23
ENDBRANCH   1  22
TORSDOF 7
