REMARK  Name = ZINC35861223
REMARK  7 active torsions:
REMARK  status: ('A' for Active; 'I' for Inactive)
REMARK    1  A    between atoms: C_1  and  C_2
REMARK    2  A    between atoms: C_2  and  O_3
REMARK    3  A    between atoms: O_3  and  C_4
REMARK    4  A    between atoms: C_4  and  C_6
REMARK    5  A    between atoms: C_10  and  N_11
REMARK    6  A    between atoms: C_12  and  C_14
REMARK    7  A    between atoms: C_21  and  C_23
REMARK                            x       y       z     vdW  Elec       q    Type
REMARK                         _______ _______ _______ _____ _____    ______ ____
ROOT
ATOM      1  C   UNL     1      -2.904  -2.495   0.018  0.00  0.00    +0.091 A 
ATOM      2  C   UNL     1      -3.630  -2.792  -1.213  0.00  0.00    -0.021 A 
ATOM      3  C   UNL     1      -4.865  -3.278  -1.007  0.00  0.00    -0.004 A 
ATOM      4  S   UNL     1      -5.053  -3.340   0.751  0.00  0.00    -0.077 S 
ATOM      5  C   UNL     1      -3.552  -2.748   1.216  0.00  0.00    +0.086 A 
ATOM      6  C   UNL     1      -5.839  -3.669  -2.063  0.00  0.00    +0.043 C 
ATOM      7  C   UNL     1      -5.620  -5.123  -2.534  0.00  0.00    +0.005 C 
ATOM      8  C   UNL     1      -4.674  -5.077  -3.760  0.00  0.00    +0.000 C 
ATOM      9  C   UNL     1      -3.338  -5.705  -3.358  0.00  0.00    +0.000 C 
ATOM     10  C   UNL     1      -2.563  -4.968  -2.304  0.00  0.00    +0.000 C 
ATOM     11  C   UNL     1      -1.979  -3.648  -2.824  0.00  0.00    +0.005 C 
ATOM     12  C   UNL     1      -3.044  -2.572  -2.592  0.00  0.00    +0.037 C 
ENDROOT
BRANCH   5  13
ATOM     13  N   UNL     1      -3.073  -2.556   2.503  0.00  0.00    -0.279 N 
ATOM     14  C   UNL     1      -3.847  -2.859   3.563  0.00  0.00    +0.222 C 
ATOM     15  O   UNL     1      -4.996  -3.208   3.394  0.00  0.00    -0.275 OA
ATOM     16  H   UNL     1      -2.180  -2.202   2.639  0.00  0.00    +0.155 HD
BRANCH  14  17
ATOM     17  C   UNL     1      -3.285  -2.765   4.958  0.00  0.00    +0.096 C 
ATOM     18  C   UNL     1      -4.361  -3.179   6.013  0.00  0.00    +0.025 C 
ATOM     19  C   UNL     1      -3.838  -2.398   7.273  0.00  0.00    +0.016 C 
ATOM     20  C   UNL     1      -3.891  -1.005   6.545  0.00  0.00    +0.027 C 
ATOM     21  C   UNL     1      -2.964  -1.293   5.317  0.00  0.00    +0.121 C 
ATOM     22  C   UNL     1      -5.310  -1.067   5.966  0.00  0.00    -0.027 C 
ATOM     23  C   UNL     1      -5.588  -2.336   5.645  0.00  0.00    -0.027 C 
BRANCH  21  24
ATOM     24  C   UNL     1      -3.306  -0.381   4.167  0.00  0.00    +0.360 C 
ATOM     25  O   UNL     1      -4.463  -0.270   3.800  0.00  0.00    -0.246 OA
ATOM     26  O   UNL     1      -2.425   0.247   3.604  0.00  0.00    -0.246 OA
ENDBRANCH  21  24
ENDBRANCH  14  17
ENDBRANCH   5  13
BRANCH   1  27
ATOM     27  C   UNL     1      -1.543  -1.957  -0.012  0.00  0.00    +0.342 C 
ATOM     28  O   UNL     1      -0.590  -2.714  -0.022  0.00  0.00    -0.245 OA
BRANCH  27  29
ATOM     29  O   UNL     1      -1.345  -0.623  -0.029  0.00  0.00    -0.461 OA
BRANCH  29  31
ATOM     30  C   UNL     1       0.034   1.361  -0.074  0.00  0.00    +0.048 C 
ATOM     31  C   UNL     1       0.010  -0.169  -0.058  0.00  0.00    +0.229 C 
ENDBRANCH  29  31
ENDBRANCH  27  29
ENDBRANCH   1  27
TORSDOF 6
