REMARK  Name = ZINC13597728
REMARK  1 active torsions:
REMARK  status: ('A' for Active; 'I' for Inactive)
REMARK    1  A    between atoms: C_3  and  N_7
REMARK                            x       y       z     vdW  Elec       q    Type
REMARK                         _______ _______ _______ _____ _____    ______ ____
ROOT
ATOM      1  N   UNL     1       3.578   1.972  -0.022  0.00  0.00    -0.240 NA
ATOM      2  C   UNL     1       4.540   1.563   0.769  0.00  0.00    +0.135 C 
ATOM      3  C   UNL     1       5.901   2.128   0.901  0.00  0.00    +0.028 A 
ATOM      4  C   UNL     1       6.555   3.188   0.280  0.00  0.00    +0.027 A 
ATOM      5  C   UNL     1       7.861   3.481   0.622  0.00  0.00    +0.019 A 
ATOM      6  C   UNL     1       8.515   2.721   1.577  0.00  0.00    +0.017 A 
ATOM      7  C   UNL     1       7.874   1.667   2.198  0.00  0.00    +0.025 A 
ATOM      8  C   UNL     1       6.560   1.357   1.868  0.00  0.00    +0.043 A 
ATOM      9  N   UNL     1       5.701   0.366   2.334  0.00  0.00    -0.280 N 
ATOM     10  C   UNL     1       4.500   0.435   1.735  0.00  0.00    +0.267 C 
ATOM     11  O   UNL     1       3.551  -0.296   1.944  0.00  0.00    -0.268 OA
ATOM     12 BR   UNL     1       8.756   4.920  -0.216  0.00  0.00    -0.050 Br
ATOM     13  H   UNL     1       5.937  -0.289   3.010  0.00  0.00    +0.155 HD
ENDROOT
BRANCH   1  16
ATOM     14  C   UNL     1      -0.017   1.380   0.010  0.00  0.00    +0.022 A 
ATOM     15  C   UNL     1       1.179   2.074   0.002  0.00  0.00    +0.031 A 
ATOM     16  C   UNL     1       2.375   1.338  -0.013  0.00  0.00    +0.083 A 
ATOM     17  C   UNL     1       2.306  -0.061  -0.020  0.00  0.00    +0.138 A 
ATOM     18  N   UNL     1       1.140  -0.672  -0.012  0.00  0.00    -0.261 NA
ATOM     19  C   UNL     1       0.002  -0.004   0.002  0.00  0.00    +0.111 A 
ENDBRANCH   1  16
TORSDOF 1
