REMARK  Name = ZINC65229452
REMARK  7 active torsions:
REMARK  status: ('A' for Active; 'I' for Inactive)
REMARK    1  A    between atoms: C_2  and  C_3
REMARK    2  A    between atoms: C_3  and  N_4
REMARK    3  A    between atoms: C_5  and  C_7
REMARK    4  A    between atoms: C_7  and  N_8
REMARK    5  A    between atoms: N_8  and  C_9
REMARK    6  A    between atoms: C_12  and  C_18
REMARK    7  A    between atoms: C_14  and  N_15
REMARK                            x       y       z     vdW  Elec       q    Type
REMARK                         _______ _______ _______ _____ _____    ______ ____
ROOT
ATOM      1  C   UNL     1       4.183   6.047   0.251  0.00  0.00    +0.060 A 
ATOM      2  C   UNL     1       5.395   5.372   0.334  0.00  0.00    +0.045 A 
ATOM      3  C   UNL     1       6.575   6.040   0.070  0.00  0.00    +0.054 A 
ATOM      4  C   UNL     1       6.551   7.380  -0.276  0.00  0.00    +0.075 A 
ATOM      5  C   UNL     1       5.347   8.054  -0.359  0.00  0.00    +0.048 A 
ATOM      6  C   UNL     1       4.163   7.390  -0.103  0.00  0.00    +0.148 A 
ATOM      7 CL   UNL     1       8.090   5.198   0.174  0.00  0.00    -0.083 Cl
ENDROOT
BRANCH   4   8
ATOM      8  C   UNL     1       7.840   8.106  -0.562  0.00  0.00    +0.419 C 
ATOM      9  F   UNL     1       7.563   9.438  -0.887  0.00  0.00    -0.166 F 
ATOM     10  F   UNL     1       8.661   8.064   0.571  0.00  0.00    -0.166 F 
ATOM     11  F   UNL     1       8.494   7.491  -1.635  0.00  0.00    -0.166 F 
ENDBRANCH   4   8
BRANCH   6  12
ATOM     12  N   UNL     1       2.874   8.111  -0.199  0.00  0.00    +0.058 N 
ATOM     13  O   UNL     1       1.899   7.550  -0.642  0.00  0.00    -0.126 OA
ATOM     14  O   UNL     1       2.796   9.261   0.167  0.00  0.00    -0.126 OA
ENDBRANCH   6  12
BRANCH   1  15
ATOM     15  N   UNL     1       2.988   5.375   0.517  0.00  0.00    -0.334 N 
ATOM     16  H   UNL     1       2.151   5.865   0.542  0.00  0.00    +0.147 HD
BRANCH  15  17
ATOM     17  C   UNL     1       2.998   3.930   0.758  0.00  0.00    +0.197 C 
BRANCH  17  19
ATOM     18  N   UNL     1       1.357   2.151   1.266  0.00  0.00    -0.303 N 
ATOM     19  C   UNL     1       1.592   3.454   1.018  0.00  0.00    +0.231 C 
ATOM     20  O   UNL     1       0.672   4.244   1.003  0.00  0.00    -0.274 OA
ATOM     21  H   UNL     1       2.093   1.518   1.278  0.00  0.00    +0.150 HD
BRANCH  18  22
ATOM     22  C   UNL     1      -0.010   1.688   1.519  0.00  0.00    +0.193 C 
BRANCH  22  24
ATOM     23  C   UNL     1       0.008  -0.922   1.954  0.00  0.00    +0.005 C 
ATOM     24  C   UNL     1       0.000   0.236   1.761  0.00  0.00    -0.087 C 
ENDBRANCH  22  24
ENDBRANCH  18  22
ENDBRANCH  17  19
ENDBRANCH  15  17
ENDBRANCH   1  15
TORSDOF 7
