REMARK  Name = ZINC14128850
REMARK  6 active torsions:
REMARK  status: ('A' for Active; 'I' for Inactive)
REMARK    1  A    between atoms: N_9  and  S_11
REMARK    2  A    between atoms: S_11  and  C_14
REMARK    3  A    between atoms: C_16  and  C_21
REMARK    4  A    between atoms: C_21  and  O_23
REMARK    5  A    between atoms: O_23  and  C_24
REMARK    6  A    between atoms: C_24  and  C_25
REMARK                            x       y       z     vdW  Elec       q    Type
REMARK                         _______ _______ _______ _____ _____    ______ ____
ROOT
ATOM      1  C   UNL     1      -1.219   3.194   0.007  0.00  0.00    +0.124 A 
ATOM      2  C   UNL     1      -0.068   3.949   0.077  0.00  0.00    +0.045 A 
ATOM      3  C   UNL     1       1.179   3.321   0.043  0.00  0.00    +0.061 A 
ATOM      4  C   UNL     1       1.251   1.930  -0.061  0.00  0.00    +0.016 A 
ATOM      5  C   UNL     1       0.093   1.186  -0.131  0.00  0.00    +0.023 A 
ATOM      6  C   UNL     1      -1.141   1.815  -0.102  0.00  0.00    +0.067 A 
ATOM      7 CL   UNL     1      -2.595   0.872  -0.197  0.00  0.00    -0.082 Cl
ENDROOT
BRANCH   1   8
ATOM      8  S   UNL     1      -2.793   3.985   0.050  0.00  0.00    +0.063 S 
ATOM      9  O   UNL     1      -3.582   3.269   0.990  0.00  0.00    -0.153 OA
ATOM     10  O   UNL     1      -2.545   5.378   0.168  0.00  0.00    -0.153 OA
BRANCH   8  19
ATOM     11  C   UNL     1      -6.699   5.768  -4.705  0.00  0.00    +0.000 A 
ATOM     12  C   UNL     1      -5.486   6.380  -4.962  0.00  0.00    +0.000 A 
ATOM     13  C   UNL     1      -4.363   5.995  -4.260  0.00  0.00    +0.005 A 
ATOM     14  C   UNL     1      -4.441   4.997  -3.296  0.00  0.00    -0.028 A 
ATOM     15  C   UNL     1      -5.650   4.392  -3.034  0.00  0.00    -0.042 A 
ATOM     16  C   UNL     1      -6.779   4.779  -3.746  0.00  0.00    +0.004 A 
ATOM     17  C   UNL     1      -5.816   3.316  -1.993  0.00  0.00    +0.052 C 
ATOM     18  C   UNL     1      -4.467   2.670  -1.658  0.00  0.00    +0.114 C 
ATOM     19  N   UNL     1      -3.497   3.754  -1.432  0.00  0.00    -0.172 NA
ATOM     20  C   UNL     1      -3.174   4.617  -2.572  0.00  0.00    +0.144 C 
ENDBRANCH   8  19
ENDBRANCH   1   8
BRANCH   3  21
ATOM     21  C   UNL     1       2.416   4.124   0.117  0.00  0.00    +0.340 C 
ATOM     22  O   UNL     1       2.350   5.334   0.208  0.00  0.00    -0.245 OA
BRANCH  21  23
ATOM     23  O   UNL     1       3.617   3.515   0.084  0.00  0.00    -0.453 OA
BRANCH  23  24
ATOM     24  C   UNL     1       4.790   4.368   0.160  0.00  0.00    +0.306 C 
BRANCH  24  25
ATOM     25  C   UNL     1       6.033   3.517   0.109  0.00  0.00    +0.148 A 
ATOM     26  N   UNL     1       7.242   4.135   0.169  0.00  0.00    -0.307 N 
ATOM     27  H   UNL     1       7.295   5.101   0.242  0.00  0.00    +0.170 HD
ATOM     28  C   UNL     1       8.372   3.389   0.124  0.00  0.00    +0.266 A 
ATOM     29  O   UNL     1       9.472   3.913   0.175  0.00  0.00    -0.267 OA
ATOM     30  C   UNL     1       8.242   2.004   0.018  0.00  0.00    +0.102 A 
ATOM     31  C   UNL     1       6.979   1.389  -0.041  0.00  0.00    +0.085 A 
ATOM     32  N   UNL     1       5.897   2.233   0.016  0.00  0.00    -0.230 NA
ATOM     33  C   UNL     1       6.993  -0.008  -0.147  0.00  0.00    +0.036 A 
ATOM     34  C   UNL     1       8.166  -0.675  -0.184  0.00  0.00    +0.048 A 
ATOM     35  S   UNL     1       9.370   0.638  -0.072  0.00  0.00    -0.090 S 
ENDBRANCH  24  25
ENDBRANCH  23  24
ENDBRANCH  21  23
ENDBRANCH   3  21
TORSDOF 6
