REMARK  Name = ZINC13498864
REMARK  15 active torsions:
REMARK  status: ('A' for Active; 'I' for Inactive)
REMARK    1  A    between atoms: C_1  and  C_2
REMARK    2  A    between atoms: C_2  and  C_3
REMARK    3  A    between atoms: C_3  and  C_4
REMARK    4  A    between atoms: C_3  and  C_5
REMARK    5  A    between atoms: C_3  and  N_6
REMARK    6  A    between atoms: C_7  and  C_11
REMARK    7  A    between atoms: C_11  and  C_13
REMARK    8  A    between atoms: C_11  and  N_77
REMARK    9  A    between atoms: C_13  and  C_14
REMARK   10  A    between atoms: C_13  and  C_15
REMARK   11  A    between atoms: C_16  and  C_17
REMARK   12  A    between atoms: C_16  and  N_77
REMARK   13  A    between atoms: C_21  and  C_30
REMARK   14  A    between atoms: C_22  and  C_29
REMARK   15  A    between atoms: C_31  and  N_77
REMARK                            x       y       z     vdW  Elec       q    Type
REMARK                         _______ _______ _______ _____ _____    ______ ____
ROOT
ATOM      1  N   UNL     1      -5.685   4.162  -0.916  0.00  0.00    +0.391 N 
ATOM      2  H   UNL     1      -4.802   4.377  -1.395  0.00  0.00    -0.080 HD
ENDROOT
BRANCH   1   3
ATOM      3  C   UNL     1      -6.176   2.848  -1.382  0.00  0.00    -0.067 C 
ATOM      4  C   UNL     1      -6.279   2.872  -2.908  0.00  0.00    -0.015 C 
ATOM      5  C   UNL     1      -6.765   1.509  -3.407  0.00  0.00    -0.002 C 
ATOM      6  C   UNL     1      -8.140   1.207  -2.807  0.00  0.00    -0.000 C 
ATOM      7  C   UNL     1      -8.036   1.184  -1.281  0.00  0.00    -0.002 C 
ATOM      8  C   UNL     1      -7.551   2.546  -0.782  0.00  0.00    -0.015 C 
ENDBRANCH   1   3
BRANCH   1   9
ATOM      9  C   UNL     1      -6.673   5.213  -1.236  0.00  0.00    +0.006 C 
BRANCH   9  11
ATOM     10  N   UNL     1      -9.002   5.579  -0.263  0.00  0.00    -0.225 N 
ATOM     11  C   UNL     1      -7.684   5.340  -0.126  0.00  0.00    +0.139 A 
ATOM     12  N   UNL     1      -7.451   5.244   1.160  0.00  0.00    -0.115 NA
ATOM     13  N   UNL     1      -8.568   5.410   1.781  0.00  0.00    -0.023 NA
ATOM     14  N   UNL     1      -9.507   5.609   0.924  0.00  0.00    -0.043 NA
BRANCH  10  15
ATOM     15  C   UNL     1      -9.726   5.766  -1.522  0.00  0.00    +0.061 C 
ATOM     16  C   UNL     1      -9.040   6.856  -2.348  0.00  0.00    +0.036 C 
ATOM     17  C   UNL     1      -9.727   4.454  -2.309  0.00  0.00    +0.036 C 
BRANCH  15  19
ATOM     18  C   UNL     1     -11.925   6.378  -2.540  0.00  0.00    +0.006 C 
ATOM     19  C   UNL     1     -11.168   6.183  -1.224  0.00  0.00    +0.026 C 
ENDBRANCH  15  19
ENDBRANCH  10  15
ENDBRANCH   9  11
BRANCH   9  20
ATOM     20  C   UNL     1      -5.934   6.542  -1.406  0.00  0.00    -0.024 C 
ATOM     21  C   UNL     1      -5.144   6.853  -0.133  0.00  0.00    +0.006 C 
ATOM     22  C   UNL     1      -4.972   6.442  -2.592  0.00  0.00    +0.006 C 
ENDBRANCH   9  20
ENDBRANCH   1   9
BRANCH   1  23
ATOM     23  C   UNL     1      -5.443   4.123   0.542  0.00  0.00    -0.036 C 
BRANCH  23  24
ATOM     24  C   UNL     1      -4.137   3.415   0.796  0.00  0.00    +0.001 A 
ATOM     25  C   UNL     1      -2.990   4.130   0.903  0.00  0.00    +0.017 A 
ATOM     26  C   UNL     1      -1.739   3.412   1.151  0.00  0.00    -0.001 A 
ATOM     27  C   UNL     1      -0.524   4.095   1.270  0.00  0.00    +0.013 A 
ATOM     28  C   UNL     1       0.626   3.395   1.500  0.00  0.00    -0.047 A 
ATOM     29  C   UNL     1       0.601   2.012   1.617  0.00  0.00    -0.046 A 
ATOM     30  C   UNL     1      -0.584   1.318   1.503  0.00  0.00    +0.030 A 
ATOM     31  C   UNL     1      -1.768   2.009   1.262  0.00  0.00    +0.049 A 
ATOM     32  N   UNL     1      -2.969   1.341   1.149  0.00  0.00    -0.322 N 
ATOM     33  H   UNL     1      -2.987   0.374   1.230  0.00  0.00    +0.169 HD
ATOM     34  C   UNL     1      -4.113   2.009   0.922  0.00  0.00    +0.251 A 
ATOM     35  O   UNL     1      -5.155   1.385   0.821  0.00  0.00    -0.268 OA
ATOM     36  C   UNL     1       1.882   1.261   1.872  0.00  0.00    +0.044 C 
ATOM     37  C   UNL     1       1.935   4.131   1.629  0.00  0.00    +0.044 C 
ENDBRANCH  23  24
ENDBRANCH   1  23
TORSDOF 8
