REMARK  Name = ZINC22459983
REMARK  10 active torsions:
REMARK  status: ('A' for Active; 'I' for Inactive)
REMARK    1  A    between atoms: C_1  and  C_2
REMARK    2  A    between atoms: C_2  and  O_3
REMARK    3  A    between atoms: O_3  and  C_4
REMARK    4  A    between atoms: C_7  and  C_10
REMARK    5  A    between atoms: N_12  and  C_13
REMARK    6  A    between atoms: C_13  and  C_15
REMARK    7  A    between atoms: C_13  and  C_16
REMARK    8  A    between atoms: C_16  and  C_18
REMARK    9  A    between atoms: C_16  and  N_23
REMARK   10  A    between atoms: N_26  and  C_29
REMARK                            x       y       z     vdW  Elec       q    Type
REMARK                         _______ _______ _______ _____ _____    ______ ____
ROOT
ATOM      1  C   UNL     1       1.450   5.688  -1.287  0.00  0.00    +0.092 C 
ATOM      2  C   UNL     1       2.701   4.902  -1.687  0.00  0.00    +0.030 C 
ENDROOT
BRANCH   1   5
ATOM      3  C   UNL     1       0.204   5.962  -3.363  0.00  0.00    +0.244 C 
ATOM      4  O   UNL     1       0.996   6.824  -3.690  0.00  0.00    -0.270 OA
ATOM      5  N   UNL     1       0.344   5.332  -2.179  0.00  0.00    -0.307 N 
ATOM      6  H   UNL     1      -0.372   4.551  -1.883  0.00  0.00    +0.149 HD
BRANCH   3  10
ATOM      7  C   UNL     1      -3.003   4.931  -5.949  0.00  0.00    +0.121 A 
ATOM      8  C   UNL     1      -2.099   5.918  -6.325  0.00  0.00    +0.046 A 
ATOM      9  C   UNL     1      -1.058   6.255  -5.489  0.00  0.00    +0.016 A 
ATOM     10  C   UNL     1      -0.911   5.603  -4.262  0.00  0.00    +0.037 A 
ATOM     11  C   UNL     1      -1.819   4.608  -3.890  0.00  0.00    +0.016 A 
ATOM     12  C   UNL     1      -2.861   4.281  -4.729  0.00  0.00    +0.046 A 
BRANCH   7  13
ATOM     13  O   UNL     1      -4.028   4.602  -6.775  0.00  0.00    -0.492 OA
BRANCH  13  15
ATOM     14  C   UNL     1      -6.003   3.348  -7.383  0.00  0.00    +0.048 C 
ATOM     15  C   UNL     1      -4.920   3.579  -6.327  0.00  0.00    +0.225 C 
ENDBRANCH  13  15
ENDBRANCH   7  13
ENDBRANCH   3  10
ENDBRANCH   1   5
BRANCH   1  16
ATOM     16  C   UNL     1       1.072   5.345   0.155  0.00  0.00    +0.113 C 
BRANCH  16  17
ATOM     17  N   UNL     1       2.207   5.637   1.041  0.00  0.00    -0.297 NA
ATOM     18  C   UNL     1       1.901   5.264   2.429  0.00  0.00    +0.066 C 
ATOM     19  C   UNL     1       3.133   5.509   3.304  0.00  0.00    -0.064 C 
ATOM     20  N   UNL     1       3.520   6.924   3.215  0.00  0.00    +0.379 N 
ATOM     21  C   UNL     1       3.826   7.297   1.827  0.00  0.00    -0.064 C 
ATOM     22  C   UNL     1       2.594   7.052   0.952  0.00  0.00    +0.066 C 
ATOM     23  C   UNL     1       4.655   7.216   4.101  0.00  0.00    -0.096 C 
ATOM     24  H   UNL     1       2.667   7.532   3.550  0.00  0.00    -0.082 HD
ENDBRANCH  16  17
BRANCH  16  25
ATOM     25  C   UNL     1       0.725   3.882   0.250  0.00  0.00    +0.009 A 
ATOM     26  C   UNL     1      -0.496   3.293   0.245  0.00  0.00    +0.013 A 
ATOM     27  C   UNL     1      -0.576   1.916   0.339  0.00  0.00    +0.008 A 
ATOM     28  C   UNL     1       0.568   1.197   0.443  0.00  0.00    +0.045 A 
ATOM     29  S   UNL     1       1.814   2.475   0.397  0.00  0.00    -0.100 S 
ENDBRANCH  16  25
ENDBRANCH   1  16
TORSDOF 7
