REMARK  Name = ZINC43548107
REMARK  14 active torsions:
REMARK  status: ('A' for Active; 'I' for Inactive)
REMARK    1  A    between atoms: C_1  and  C_2
REMARK    2  A    between atoms: C_2  and  O_37
REMARK    3  A    between atoms: C_5  and  C_28
REMARK    4  A    between atoms: C_9  and  C_26
REMARK    5  A    between atoms: C_9  and  C_27
REMARK    6  A    between atoms: C_11  and  N_13
REMARK    7  A    between atoms: C_14  and  C_16
REMARK    8  A    between atoms: C_19  and  C_22
REMARK    9  A    between atoms: C_28  and  C_29
REMARK   10  A    between atoms: C_29  and  C_30
REMARK   11  A    between atoms: N_32  and  C_33
REMARK   12  A    between atoms: C_33  and  C_34
REMARK   13  A    between atoms: C_34  and  O_35
REMARK   14  A    between atoms: O_35  and  C_36
REMARK                            x       y       z     vdW  Elec       q    Type
REMARK                         _______ _______ _______ _____ _____    ______ ____
ROOT
ATOM      1  C   UNL     1      -0.084   1.533  -0.023  0.00  0.00    +0.041 C 
ATOM      2  C   UNL     1      -0.047   0.003  -0.025  0.00  0.00    +0.064 C 
ATOM      3  C   UNL     1      -1.476  -0.531  -0.060  0.00  0.00    +0.035 C 
ATOM      4  C   UNL     1      -1.507  -2.064   0.054  0.00  0.00    +0.012 C 
ATOM      5  C   UNL     1      -0.811  -2.433   1.351  0.00  0.00    -0.007 C 
ATOM      6  C   UNL     1       0.673  -1.999   1.209  0.00  0.00    +0.005 C 
ATOM      7  C   UNL     1       0.704  -0.483   1.226  0.00  0.00    +0.039 C 
ATOM      8  C   UNL     1       1.359  -2.708   2.373  0.00  0.00    -0.030 C 
ATOM      9  C   UNL     1       0.529  -3.993   2.615  0.00  0.00    +0.029 C 
ATOM     10  C   UNL     1      -0.669  -3.934   1.628  0.00  0.00    +0.080 C 
ATOM     11  C   UNL     1       2.798  -3.068   2.000  0.00  0.00    +0.011 C 
ATOM     12  C   UNL     1       1.339  -1.821   3.619  0.00  0.00    +0.011 C 
ENDROOT
BRANCH  10  13
ATOM     13  N   UNL     1      -0.362  -4.662   0.395  0.00  0.00    -0.308 N 
ATOM     14  C   UNL     1      -0.682  -5.966   0.285  0.00  0.00    +0.244 C 
ATOM     15  O   UNL     1      -1.226  -6.539   1.209  0.00  0.00    -0.270 OA
ATOM     16  H   UNL     1       0.072  -4.205  -0.343  0.00  0.00    +0.149 HD
BRANCH  14  17
ATOM     17  C   UNL     1      -0.372  -6.702  -0.960  0.00  0.00    +0.037 A 
ATOM     18  C   UNL     1       0.258  -6.049  -2.021  0.00  0.00    +0.013 A 
ATOM     19  C   UNL     1       0.545  -6.741  -3.180  0.00  0.00    +0.013 A 
ATOM     20  C   UNL     1       0.210  -8.078  -3.291  0.00  0.00    +0.055 A 
ATOM     21  C   UNL     1      -0.415  -8.731  -2.244  0.00  0.00    +0.013 A 
ATOM     22  C   UNL     1      -0.702  -8.053  -1.077  0.00  0.00    +0.013 A 
BRANCH  20  23
ATOM     23  C   UNL     1       0.526  -8.828  -4.560  0.00  0.00    +0.417 C 
ATOM     24  F   UNL     1       1.801  -9.395  -4.461  0.00  0.00    -0.166 F 
ATOM     25  F   UNL     1      -0.421  -9.839  -4.753  0.00  0.00    -0.166 F 
ATOM     26  F   UNL     1       0.492  -7.944  -5.644  0.00  0.00    -0.166 F 
ENDBRANCH  20  23
ENDBRANCH  14  17
ENDBRANCH  10  13
BRANCH   2  27
ATOM     27  O   UNL     1       0.647  -0.446  -1.190  0.00  0.00    -0.389 OA
ATOM     28  H   UNL     1       0.241  -0.166  -2.022  0.00  0.00    +0.210 HD
ENDBRANCH   2  27
BRANCH   5  29
ATOM     29  C   UNL     1      -1.482  -1.733   2.534  0.00  0.00    +0.018 C 
BRANCH  29  30
ATOM     30  C   UNL     1      -2.982  -2.037   2.522  0.00  0.00    +0.096 C 
BRANCH  30  31
ATOM     31  C   UNL     1      -3.643  -1.348   3.688  0.00  0.00    +0.213 C 
ATOM     32  O   UNL     1      -2.981  -0.679   4.452  0.00  0.00    -0.276 OA
ATOM     33  N   UNL     1      -4.971  -1.475   3.881  0.00  0.00    -0.313 N 
ATOM     34  H   UNL     1      -5.501  -2.010   3.269  0.00  0.00    +0.149 HD
BRANCH  33  35
ATOM     35  C   UNL     1      -5.614  -0.804   5.013  0.00  0.00    +0.132 C 
BRANCH  35  36
ATOM     36  C   UNL     1      -7.113  -1.109   5.002  0.00  0.00    +0.178 C 
BRANCH  36  37
ATOM     37  O   UNL     1      -7.317  -2.506   5.224  0.00  0.00    -0.381 OA
ATOM     38  C   UNL     1      -8.691  -2.898   5.232  0.00  0.00    +0.194 C 
ENDBRANCH  36  37
ENDBRANCH  35  36
ENDBRANCH  33  35
ENDBRANCH  30  31
ENDBRANCH  29  30
ENDBRANCH   5  29
TORSDOF 10
