REMARK  Name = ZINC03284387
REMARK  9 active torsions:
REMARK  status: ('A' for Active; 'I' for Inactive)
REMARK    1  A    between atoms: C_1  and  C_2
REMARK    2  A    between atoms: C_15  and  C_17
REMARK    3  A    between atoms: C_17  and  O_18
REMARK    4  A    between atoms: O_18  and  C_19
REMARK    5  A    between atoms: C_19  and  C_21
REMARK    6  A    between atoms: C_22  and  C_23
REMARK    7  A    between atoms: C_26  and  O_31
REMARK    8  A    between atoms: C_27  and  O_29
REMARK    9  A    between atoms: O_29  and  C_30
REMARK                            x       y       z     vdW  Elec       q    Type
REMARK                         _______ _______ _______ _____ _____    ______ ____
ROOT
ATOM      1  C   UNL     1       5.361  -2.174   0.023  0.00  0.00    +0.008 C 
ATOM      2  C   UNL     1       3.949  -1.671   0.328  0.00  0.00    -0.009 C 
ATOM      3  C   UNL     1       2.932  -2.457  -0.504  0.00  0.00    +0.008 C 
ATOM      4  C   UNL     1       1.514  -2.141  -0.026  0.00  0.00    +0.037 C 
ATOM      5  C   UNL     1       1.325  -0.626  -0.015  0.00  0.00    -0.023 A 
ATOM      6  C   UNL     1       2.391   0.202  -0.020  0.00  0.00    -0.004 A 
ATOM      7  S   UNL     1       1.704   1.835  -0.004  0.00  0.00    -0.073 S 
ATOM      8  C   UNL     1      -0.017   1.400   0.010  0.00  0.00    +0.116 A 
ATOM      9  C   UNL     1       0.002  -0.004   0.002  0.00  0.00    +0.075 A 
ATOM     10  C   UNL     1      -1.282  -0.642   0.011  0.00  0.00    +0.260 A 
ATOM     11  O   UNL     1      -1.369  -1.858   0.006  0.00  0.00    -0.267 OA
ATOM     12  N   UNL     1      -2.388   0.124   0.025  0.00  0.00    -0.308 N 
ATOM     13  H   UNL     1      -3.260  -0.301   0.031  0.00  0.00    +0.170 HD
ATOM     14  C   UNL     1      -2.309   1.479   0.031  0.00  0.00    +0.149 A 
ATOM     15  N   UNL     1      -1.154   2.090   0.020  0.00  0.00    -0.223 NA
ATOM     16  C   UNL     1       3.839  -0.183  -0.036  0.00  0.00    +0.046 C 
ENDROOT
BRANCH  14  17
ATOM     17  C   UNL     1      -3.576   2.295   0.047  0.00  0.00    +0.306 C 
BRANCH  17  18
ATOM     18  O   UNL     1      -3.248   3.685   0.051  0.00  0.00    -0.454 OA
BRANCH  18  19
ATOM     19  C   UNL     1      -4.278   4.558   0.065  0.00  0.00    +0.332 C 
ATOM     20  O   UNL     1      -5.423   4.147   0.073  0.00  0.00    -0.246 OA
BRANCH  19  21
ATOM     21  C   UNL     1      -4.024   5.953   0.069  0.00  0.00    +0.092 C 
ATOM     22  C   UNL     1      -5.055   6.826   0.083  0.00  0.00    +0.015 C 
BRANCH  22  23
ATOM     23  C   UNL     1      -4.793   8.272   0.088  0.00  0.00    -0.021 A 
ATOM     24  C   UNL     1      -3.476   8.747   0.078  0.00  0.00    +0.012 A 
ATOM     25  C   UNL     1      -3.233  10.102   0.083  0.00  0.00    +0.050 A 
ATOM     26  C   UNL     1      -4.292  11.001   0.096  0.00  0.00    +0.158 A 
ATOM     27  C   UNL     1      -5.606  10.536   0.106  0.00  0.00    +0.162 A 
ATOM     28  C   UNL     1      -5.859   9.179   0.096  0.00  0.00    +0.057 A 
BRANCH  27  29
ATOM     29  O   UNL     1      -6.640  11.420   0.120  0.00  0.00    -0.491 OA
ATOM     30  C   UNL     1      -7.960  10.874   0.130  0.00  0.00    +0.277 C 
ENDBRANCH  27  29
BRANCH  26  31
ATOM     31  O   UNL     1      -4.046  12.337   0.100  0.00  0.00    -0.503 OA
ATOM     32  H   UNL     1      -3.983  12.728  -0.783  0.00  0.00    +0.292 HD
ENDBRANCH  26  31
ENDBRANCH  22  23
ENDBRANCH  19  21
ENDBRANCH  18  19
ENDBRANCH  17  18
ENDBRANCH  14  17
TORSDOF 7
