REMARK  Name = ZINC36849446
REMARK  7 active torsions:
REMARK  status: ('A' for Active; 'I' for Inactive)
REMARK    1  A    between atoms: C_4  and  N_6
REMARK    2  A    between atoms: C_10  and  C_12
REMARK    3  A    between atoms: C_12  and  S_13
REMARK    4  A    between atoms: S_13  and  C_14
REMARK    5  A    between atoms: C_17  and  S_19
REMARK    6  A    between atoms: S_19  and  C_20
REMARK    7  A    between atoms: C_20  and  C_21
REMARK                            x       y       z     vdW  Elec       q    Type
REMARK                         _______ _______ _______ _____ _____    ______ ____
ROOT
ATOM      1  C   UNL     1       1.883  -6.387   1.349  0.00  0.00    +0.172 C 
ENDROOT
BRANCH   1   6
ATOM      2  N   UNL     1       1.692  -1.613   0.817  0.00  0.00    -0.296 N 
ATOM      3  C   UNL     1       1.587  -2.842   0.273  0.00  0.00    +0.306 C 
ATOM      4  O   UNL     1       1.322  -2.964  -0.907  0.00  0.00    -0.252 OA
ATOM      5  N   UNL     1       1.776  -3.936   1.038  0.00  0.00    -0.240 N 
ATOM      6  C   UNL     1       1.671  -5.165   0.494  0.00  0.00    +0.231 C 
ATOM      7  O   UNL     1       1.407  -5.286  -0.683  0.00  0.00    -0.274 OA
ATOM      8  H   UNL     1       1.903  -1.516   1.758  0.00  0.00    +0.151 HD
ATOM      9  H   UNL     1       1.987  -3.839   1.979  0.00  0.00    +0.159 HD
BRANCH   2  13
ATOM     10  C   UNL     1      -0.019   1.534   0.011  0.00  0.00    +0.002 C 
ATOM     11  C   UNL     1       1.453   1.995  -0.001  0.00  0.00    +0.002 C 
ATOM     12  C   UNL     1       2.232   0.792   0.586  0.00  0.00    +0.022 C 
ATOM     13  C   UNL     1       1.486  -0.425  -0.014  0.00  0.00    +0.074 C 
ATOM     14  C   UNL     1       0.002  -0.004   0.002  0.00  0.00    +0.022 C 
ENDBRANCH   2  13
ENDBRANCH   1   6
BRANCH   1  15
ATOM     15  S   UNL     1       1.676  -7.877   0.335  0.00  0.00    -0.088 S 
BRANCH  15  16
ATOM     16  C   UNL     1       1.950  -9.202   1.463  0.00  0.00    +0.160 A 
ATOM     17  N   UNL     1       2.234  -9.159   2.751  0.00  0.00    -0.134 NA
ATOM     18  N   UNL     1       2.411 -10.329   3.453  0.00  0.00    -0.134 NA
ATOM     19  C   UNL     1       2.295 -11.489   2.835  0.00  0.00    +0.160 A 
ATOM     20  S   UNL     1       1.910 -10.964   1.171  0.00  0.00    -0.033 S 
BRANCH  19  21
ATOM     21  S   UNL     1       2.467 -13.119   3.480  0.00  0.00    -0.088 S 
BRANCH  21  22
ATOM     22  C   UNL     1       2.850 -12.859   5.234  0.00  0.00    +0.171 C 
BRANCH  22  23
ATOM     23  C   UNL     1       3.024 -14.193   5.913  0.00  0.00    +0.221 C 
ATOM     24  O   UNL     1       2.902 -15.218   5.277  0.00  0.00    -0.275 OA
ATOM     25  N   UNL     1       3.315 -14.246   7.228  0.00  0.00    -0.329 N 
ATOM     26  H   UNL     1       3.413 -13.427   7.737  0.00  0.00    +0.145 HD
ATOM     27  H   UNL     1       3.428 -15.105   7.665  0.00  0.00    +0.145 HD
ENDBRANCH  22  23
ENDBRANCH  21  22
ENDBRANCH  19  21
ENDBRANCH  15  16
ENDBRANCH   1  15
TORSDOF 7
