REMARK  Name = ZINC36378833
REMARK  3 active torsions:
REMARK  status: ('A' for Active; 'I' for Inactive)
REMARK    1  A    between atoms: C_1  and  C_2
REMARK    2  A    between atoms: C_16  and  C_23
REMARK    3  A    between atoms: C_19  and  O_22
REMARK                            x       y       z     vdW  Elec       q    Type
REMARK                         _______ _______ _______ _____ _____    ______ ____
ROOT
ATOM      1  C   UNL     1      -0.019   1.526   0.010  0.00  0.00    +0.015 C 
ATOM      2  C   UNL     1       0.002  -0.004   0.002  0.00  0.00    +0.052 C 
ATOM      3  C   UNL     1       0.724  -0.500  -1.254  0.00  0.00    +0.011 C 
ATOM      4  C   UNL     1       2.201  -0.102  -1.196  0.00  0.00    +0.005 C 
ATOM      5  C   UNL     1       2.865  -0.784  -0.002  0.00  0.00    +0.005 C 
ATOM      6  C   UNL     1       2.231  -0.265   1.294  0.00  0.00    +0.059 C 
ATOM      7  C   UNL     1       0.740  -0.508   1.225  0.00  0.00    +0.139 C 
ATOM      8  O   UNL     1       0.157  -1.085   2.112  0.00  0.00    -0.297 OA
ATOM      9  C   UNL     1       2.846  -1.005   2.481  0.00  0.00    +0.011 C 
ATOM     10  C   UNL     1       4.352  -0.725   2.515  0.00  0.00    +0.005 C 
ATOM     11  C   UNL     1       4.999  -1.201   1.214  0.00  0.00    -0.002 C 
ATOM     12  C   UNL     1       4.363  -0.482   0.030  0.00  0.00    -0.026 C 
ATOM     13  C   UNL     1       4.577   1.025   0.180  0.00  0.00    +0.010 C 
ATOM     14  C   UNL     1       6.077   1.326   0.224  0.00  0.00    +0.032 C 
ATOM     15  C   UNL     1       6.707   0.601   1.415  0.00  0.00    +0.115 C 
ATOM     16  C   UNL     1       6.499  -0.900   1.249  0.00  0.00    +0.035 C 
ATOM     17  C   UNL     1       5.011  -0.970  -1.266  0.00  0.00    +0.012 C 
ENDROOT
BRANCH  15  18
ATOM     18  O   UNL     1       8.108   0.881   1.457  0.00  0.00    -0.392 OA
ATOM     19  H   UNL     1       8.318   1.820   1.550  0.00  0.00    +0.210 HD
ENDBRANCH  15  18
TORSDOF 1
