REMARK  Name = ZINC11550650
REMARK  4 active torsions:
REMARK  status: ('A' for Active; 'I' for Inactive)
REMARK    1  A    between atoms: C_1  and  C_2
REMARK    2  A    between atoms: C_8  and  C_10
REMARK    3  A    between atoms: C_11  and  C_23
REMARK    4  A    between atoms: C_16  and  C_18
REMARK                            x       y       z     vdW  Elec       q    Type
REMARK                         _______ _______ _______ _____ _____    ______ ____
ROOT
ATOM      1  C   UNL     1      -0.875   3.071  -0.103  0.00  0.00    +0.056 C 
ATOM      2  C   UNL     1       0.408   3.386   0.175  0.00  0.00    +0.017 C 
ATOM      3  N   UNL     1       1.360   2.415   0.307  0.00  0.00    -0.300 N 
ATOM      4  C   UNL     1       1.109   1.106   0.176  0.00  0.00    +0.135 C 
ATOM      5  S   UNL     1       2.396  -0.007   0.366  0.00  0.00    -0.019 S 
ATOM      6  N   UNL     1      -0.124   0.637  -0.100  0.00  0.00    -0.315 N 
ATOM      7  C   UNL     1      -1.221   1.605  -0.267  0.00  0.00    +0.146 C 
ATOM      8  C   UNL     1       0.797   4.832   0.341  0.00  0.00    +0.061 C 
ATOM      9  H   UNL     1       2.269   2.689   0.506  0.00  0.00    +0.154 HD
ATOM     10  H   UNL     1      -0.284  -0.316  -0.190  0.00  0.00    +0.149 HD
ENDROOT
BRANCH   1  18
ATOM     11  C   UNL     1      -5.470   8.072  -1.208  0.00  0.00    +0.089 C 
ATOM     12  C   UNL     1      -5.120   6.622  -0.996  0.00  0.00    +0.136 A 
ATOM     13  C   UNL     1      -3.889   6.113  -0.761  0.00  0.00    +0.091 A 
ATOM     14  C   UNL     1      -4.114   4.716  -0.638  0.00  0.00    +0.168 A 
ATOM     15  N   UNL     1      -5.397   4.536  -0.810  0.00  0.00    -0.063 NA
ATOM     16  O   UNL     1      -5.969   5.584  -1.004  0.00  0.00    -0.358 OA
ATOM     17  N   UNL     1      -3.157   3.733  -0.390  0.00  0.00    -0.264 N 
ATOM     18  C   UNL     1      -1.862   4.076  -0.241  0.00  0.00    +0.249 C 
ATOM     19  O   UNL     1      -1.541   5.251  -0.225  0.00  0.00    -0.270 OA
ATOM     20  H   UNL     1      -3.423   2.803  -0.325  0.00  0.00    +0.157 HD
ENDBRANCH   1  18
BRANCH   7  21
ATOM     21  C   UNL     1      -1.804   1.413  -1.644  0.00  0.00    +0.015 A 
ATOM     22  C   UNL     1      -3.103   1.288  -2.011  0.00  0.00    +0.013 A 
ATOM     23  C   UNL     1      -3.408   1.122  -3.349  0.00  0.00    +0.008 A 
ATOM     24  C   UNL     1      -2.399   1.078  -4.253  0.00  0.00    +0.045 A 
ATOM     25  S   UNL     1      -0.963   1.283  -3.213  0.00  0.00    -0.099 S 
ENDBRANCH   7  21
TORSDOF 2
