REMARK  Name = ZINC55597793
REMARK  7 active torsions:
REMARK  status: ('A' for Active; 'I' for Inactive)
REMARK    1  A    between atoms: C_1  and  C_2
REMARK    2  A    between atoms: C_2  and  C_3
REMARK    3  A    between atoms: C_3  and  C_4
REMARK    4  A    between atoms: C_7  and  S_10
REMARK    5  A    between atoms: S_10  and  N_13
REMARK    6  A    between atoms: N_13  and  C_14
REMARK    7  A    between atoms: C_18  and  N_20
REMARK                            x       y       z     vdW  Elec       q    Type
REMARK                         _______ _______ _______ _____ _____    ______ ____
ROOT
ATOM      1  N   UNL     1       0.062  -6.917  -0.238  0.00  0.00    -0.216 N 
ATOM      2  H   UNL     1      -0.846  -7.258  -0.245  0.00  0.00    +0.174 HD
ENDROOT
BRANCH   1   3
ATOM      3  C   UNL     1       0.710  -6.627  -1.441  0.00  0.00    +0.050 A 
ATOM      4  C   UNL     1       1.408  -5.434  -1.585  0.00  0.00    +0.024 A 
ATOM      5  C   UNL     1       2.049  -5.146  -2.774  0.00  0.00    +0.004 A 
ATOM      6  C   UNL     1       1.997  -6.043  -3.825  0.00  0.00    +0.024 A 
ATOM      7  C   UNL     1       1.300  -7.237  -3.687  0.00  0.00    +0.040 A 
ATOM      8  C   UNL     1       0.661  -7.531  -2.492  0.00  0.00    +0.048 A 
BRANCH   7   9
ATOM      9  N   UNL     1       1.248  -8.144  -4.752  0.00  0.00    -0.254 N 
ATOM     10  C   UNL     1       1.786  -7.907  -6.100  0.00  0.00    +0.134 C 
ATOM     11  C   UNL     1       1.463  -9.209  -6.859  0.00  0.00    +0.125 C 
ATOM     12  N   UNL     1       0.779 -10.040  -5.858  0.00  0.00    -0.297 N 
ATOM     13  C   UNL     1       0.706  -9.368  -4.702  0.00  0.00    +0.307 C 
ATOM     14  O   UNL     1       0.191  -9.825  -3.700  0.00  0.00    -0.252 OA
ATOM     15  H   UNL     1       0.438 -10.936  -6.010  0.00  0.00    +0.150 HD
ENDBRANCH   7   9
ENDBRANCH   1   3
BRANCH   1  16
ATOM     16  S   UNL     1       0.845  -6.678   1.202  0.00  0.00    +0.072 S 
ATOM     17  O   UNL     1      -0.021  -7.160   2.220  0.00  0.00    -0.150 OA
ATOM     18  O   UNL     1       1.329  -5.342   1.184  0.00  0.00    -0.150 OA
BRANCH  16  22
ATOM     19  C   UNL     1       4.483  -9.371   1.215  0.00  0.00    -0.047 A 
ATOM     20  C   UNL     1       4.549  -8.122   0.626  0.00  0.00    +0.005 A 
ATOM     21  C   UNL     1       3.438  -7.300   0.622  0.00  0.00    +0.029 A 
ATOM     22  C   UNL     1       2.260  -7.726   1.206  0.00  0.00    +0.109 A 
ATOM     23  C   UNL     1       2.194  -8.976   1.794  0.00  0.00    +0.029 A 
ATOM     24  C   UNL     1       3.304  -9.800   1.794  0.00  0.00    +0.005 A 
BRANCH  19  25
ATOM     25  C   UNL     1       5.694 -10.268   1.219  0.00  0.00    +0.035 C 
BRANCH  25  27
ATOM     26  C   UNL     1       6.920 -12.047  -0.036  0.00  0.00    +0.004 C 
ATOM     27  C   UNL     1       5.690 -11.137  -0.040  0.00  0.00    +0.001 C 
ENDBRANCH  25  27
ENDBRANCH  19  25
ENDBRANCH  16  22
ENDBRANCH   1  16
TORSDOF 6
