REMARK  Name = ZINC42532099
REMARK  11 active torsions:
REMARK  status: ('A' for Active; 'I' for Inactive)
REMARK    1  A    between atoms: C_1  and  C_2
REMARK    2  A    between atoms: C_7  and  C_8
REMARK    3  A    between atoms: C_8  and  C_9
REMARK    4  A    between atoms: C_9  and  N_10
REMARK    5  A    between atoms: C_11  and  C_13
REMARK    6  A    between atoms: C_13  and  C_15
REMARK    7  A    between atoms: C_13  and  S_16
REMARK    8  A    between atoms: S_16  and  C_17
REMARK    9  A    between atoms: N_21  and  N_22
REMARK   10  A    between atoms: C_24  and  C_29
REMARK   11  A    between atoms: C_26  and  C_28
REMARK                            x       y       z     vdW  Elec       q    Type
REMARK                         _______ _______ _______ _____ _____    ______ ____
ROOT
ATOM      1  S   UNL     1      -4.168   2.035   6.857  0.00  0.00    -0.072 S 
ENDROOT
BRANCH   1   2
ATOM      2  C   UNL     1      -3.957   2.831   8.415  0.00  0.00    +0.211 A 
ATOM      3  N   UNL     1      -2.877   3.446   8.836  0.00  0.00    -0.119 NA
ATOM      4  N   UNL     1      -3.070   3.913  10.018  0.00  0.00    -0.106 NA
ATOM      5  C   UNL     1      -4.281   3.626  10.421  0.00  0.00    +0.270 A 
ATOM      6  N   UNL     1      -4.891   2.931   9.409  0.00  0.00    -0.208 N 
ATOM      7  N   UNL     1      -4.848   3.969  11.649  0.00  0.00    -0.201 N 
ATOM      8  C   UNL     1      -4.241   4.669  12.643  0.00  0.00    +0.045 A 
ATOM      9  C   UNL     1      -5.127   4.788  13.659  0.00  0.00    +0.048 A 
ATOM     10  C   UNL     1      -6.309   4.144  13.279  0.00  0.00    +0.061 A 
ATOM     11  N   UNL     1      -6.146   3.659  12.075  0.00  0.00    -0.169 NA
ATOM     12  C   UNL     1      -7.560   4.033  14.112  0.00  0.00    +0.067 C 
ATOM     13  C   UNL     1      -2.836   5.213  12.618  0.00  0.00    +0.066 C 
BRANCH   6  14
ATOM     14  N   UNL     1      -6.164   2.437   9.398  0.00  0.00    -0.293 N 
ATOM     15  H   UNL     1      -6.192   1.498   9.767  0.00  0.00    +0.163 HD
ATOM     16  H   UNL     1      -6.792   3.043   9.905  0.00  0.00    +0.163 HD
ENDBRANCH   6  14
ENDBRANCH   1   2
BRANCH   1  17
ATOM     17  C   UNL     1      -2.571   2.266   6.027  0.00  0.00    +0.137 C 
ATOM     18  C   UNL     1      -2.344   3.756   5.764  0.00  0.00    +0.029 C 
BRANCH  17  20
ATOM     19  N   UNL     1      -1.411   1.113   4.171  0.00  0.00    -0.314 N 
ATOM     20  C   UNL     1      -2.574   1.519   4.718  0.00  0.00    +0.226 C 
ATOM     21  O   UNL     1      -3.623   1.284   4.155  0.00  0.00    -0.275 OA
ATOM     22  H   UNL     1      -0.572   1.301   4.621  0.00  0.00    +0.149 HD
BRANCH  19  23
ATOM     23  C   UNL     1      -1.413   0.387   2.899  0.00  0.00    +0.109 C 
BRANCH  23  24
ATOM     24  C   UNL     1       0.025   0.045   2.504  0.00  0.00    +0.054 C 
BRANCH  24  31
ATOM     25  C   UNL     1      -0.018   1.503   0.010  0.00  0.00    +0.044 C 
ATOM     26  C   UNL     1       0.002  -0.004   0.002  0.00  0.00    -0.047 A 
ATOM     27  C   UNL     1       0.006  -0.689  -1.199  0.00  0.00    +0.003 A 
ATOM     28  C   UNL     1       0.025  -2.071  -1.207  0.00  0.00    +0.000 A 
ATOM     29  C   UNL     1       0.040  -2.768  -0.013  0.00  0.00    +0.000 A 
ATOM     30  C   UNL     1       0.037  -2.084   1.188  0.00  0.00    +0.004 A 
ATOM     31  C   UNL     1       0.023  -0.702   1.195  0.00  0.00    -0.043 A 
ENDBRANCH  24  31
ENDBRANCH  23  24
ENDBRANCH  19  23
ENDBRANCH  17  20
ENDBRANCH   1  17
TORSDOF 7
