REMARK  Name = ZINC57317154
REMARK  9 active torsions:
REMARK  status: ('A' for Active; 'I' for Inactive)
REMARK    1  A    between atoms: C_1  and  C_2
REMARK    2  A    between atoms: C_2  and  C_3
REMARK    3  A    between atoms: C_2  and  C_4
REMARK    4  A    between atoms: C_4  and  C_5
REMARK    5  A    between atoms: N_10  and  C_13
REMARK    6  A    between atoms: C_16  and  N_19
REMARK    7  A    between atoms: C_20  and  C_22
REMARK    8  A    between atoms: C_23  and  C_24
REMARK    9  A    between atoms: C_27  and  C_29
REMARK                            x       y       z     vdW  Elec       q    Type
REMARK                         _______ _______ _______ _____ _____    ______ ____
ROOT
ATOM      1  C   UNL     1      -5.928  -4.606  -1.389  0.00  0.00    +0.030 A 
ATOM      2  C   UNL     1      -7.130  -3.939  -1.186  0.00  0.00    +0.025 A 
ATOM      3  C   UNL     1      -8.318  -4.641  -1.192  0.00  0.00    +0.025 A 
ATOM      4  C   UNL     1      -8.313  -6.014  -1.401  0.00  0.00    +0.034 A 
ATOM      5  C   UNL     1      -7.112  -6.681  -1.603  0.00  0.00    +0.025 A 
ATOM      6  C   UNL     1      -5.923  -5.978  -1.604  0.00  0.00    +0.025 A 
ENDROOT
BRANCH   1  12
ATOM      7  C   UNL     1      -1.491  -1.873  -2.558  0.00  0.00    +0.216 C 
ATOM      8  O   UNL     1      -1.501  -0.664  -2.465  0.00  0.00    -0.276 OA
ATOM      9  N   UNL     1      -2.652  -2.558  -2.564  0.00  0.00    -0.298 N 
ATOM     10  C   UNL     1      -2.654  -4.024  -2.669  0.00  0.00    +0.126 C 
ATOM     11  C   UNL     1      -3.438  -4.599  -1.483  0.00  0.00    +0.124 C 
ATOM     12  N   UNL     1      -4.723  -3.894  -1.383  0.00  0.00    -0.327 N 
ATOM     13  C   UNL     1      -4.721  -2.428  -1.278  0.00  0.00    +0.124 C 
ATOM     14  C   UNL     1      -3.937  -1.853  -2.458  0.00  0.00    +0.126 C 
BRANCH   7  15
ATOM     15  C   UNL     1      -0.181  -2.609  -2.667  0.00  0.00    +0.099 C 
BRANCH  15  17
ATOM     16  C   UNL     1       2.305  -2.357  -2.621  0.00  0.00    +0.008 C 
ATOM     17  C   UNL     1       0.973  -1.604  -2.636  0.00  0.00    -0.008 C 
ATOM     18  C   UNL     1       0.905  -0.713  -3.878  0.00  0.00    +0.008 C 
ENDBRANCH  15  17
ENDBRANCH   7  15
ENDBRANCH   1  12
BRANCH   4  19
ATOM     19  N   UNL     1      -9.518  -6.726  -1.406  0.00  0.00    -0.282 N 
ATOM     20  C   UNL     1      -9.562  -7.982  -0.918  0.00  0.00    +0.241 C 
ATOM     21  O   UNL     1      -8.578  -8.461  -0.382  0.00  0.00    -0.270 OA
ATOM     22  H   UNL     1     -10.323  -6.316  -1.761  0.00  0.00    +0.155 HD
BRANCH  20  23
ATOM     23  C   UNL     1     -10.749  -8.743  -1.028  0.00  0.00    +0.071 C 
ATOM     24  C   UNL     1     -10.792 -10.008  -0.536  0.00  0.00    +0.051 C 
BRANCH  24  25
ATOM     25  C   UNL     1     -11.979 -10.768  -0.646  0.00  0.00    +0.129 A 
ATOM     26  C   UNL     1     -12.162 -12.059  -0.187  0.00  0.00    +0.050 A 
ATOM     27  C   UNL     1     -13.475 -12.418  -0.504  0.00  0.00    +0.050 A 
ATOM     28  C   UNL     1     -14.042 -11.348  -1.138  0.00  0.00    +0.136 A 
ATOM     29  O   UNL     1     -13.134 -10.359  -1.213  0.00  0.00    -0.455 OA
BRANCH  28  30
ATOM     30  C   UNL     1     -15.425 -11.287  -1.651  0.00  0.00    +0.017 A 
ATOM     31  C   UNL     1     -16.278 -12.383  -1.501  0.00  0.00    +0.011 A 
ATOM     32  C   UNL     1     -17.569 -12.318  -1.983  0.00  0.00    +0.001 A 
ATOM     33  C   UNL     1     -18.019 -11.172  -2.614  0.00  0.00    +0.000 A 
ATOM     34  C   UNL     1     -17.179 -10.083  -2.766  0.00  0.00    +0.001 A 
ATOM     35  C   UNL     1     -15.888 -10.131  -2.284  0.00  0.00    +0.011 A 
ENDBRANCH  28  30
ENDBRANCH  24  25
ENDBRANCH  20  23
ENDBRANCH   4  19
TORSDOF 7
