REMARK  Name = ZINC63182695
REMARK  8 active torsions:
REMARK  status: ('A' for Active; 'I' for Inactive)
REMARK    1  A    between atoms: C_4  and  C_31
REMARK    2  A    between atoms: C_5  and  C_7
REMARK    3  A    between atoms: C_7  and  S_8
REMARK    4  A    between atoms: S_8  and  N_11
REMARK    5  A    between atoms: N_11  and  C_12
REMARK    6  A    between atoms: C_12  and  C_13
REMARK    7  A    between atoms: C_13  and  C_15
REMARK    8  A    between atoms: C_13  and  C_22
REMARK                            x       y       z     vdW  Elec       q    Type
REMARK                         _______ _______ _______ _____ _____    ______ ____
ROOT
ATOM      1  C   UNL     1       2.367  -6.617   1.254  0.00  0.00    +0.064 C 
ENDROOT
BRANCH   1   2
ATOM      2  C   UNL     1       3.482  -7.325   0.528  0.00  0.00    -0.033 C 
ATOM      3  C   UNL     1       3.357  -8.311  -0.389  0.00  0.00    -0.000 A 
ATOM      4  C   UNL     1       2.191  -8.994  -0.963  0.00  0.00    +0.010 A 
ATOM      5  C   UNL     1       2.388  -9.965  -1.883  0.00  0.00    +0.001 A 
ATOM      6  C   UNL     1       3.673 -10.335  -2.302  0.00  0.00    +0.002 A 
ATOM      7  C   UNL     1       4.792  -9.753  -1.821  0.00  0.00    +0.026 A 
ATOM      8  C   UNL     1       4.704  -8.720  -0.849  0.00  0.00    +0.043 A 
ATOM      9  N   UNL     1       5.625  -8.014  -0.239  0.00  0.00    -0.380 N 
ATOM     10  C   UNL     1       4.966  -7.072   0.673  0.00  0.00    +0.145 C 
ATOM     11  H   UNL     1       6.582  -8.097  -0.371  0.00  0.00    +0.160 HD
ENDBRANCH   1   2
BRANCH   1  12
ATOM     12  C   UNL     1       2.527  -6.819   2.739  0.00  0.00    -0.021 A 
ATOM     13  C   UNL     1       3.670  -6.375   3.378  0.00  0.00    +0.006 A 
ATOM     14  C   UNL     1       3.817  -6.560   4.740  0.00  0.00    +0.000 A 
ATOM     15  C   UNL     1       2.821  -7.189   5.464  0.00  0.00    +0.001 A 
ATOM     16  C   UNL     1       1.678  -7.633   4.827  0.00  0.00    +0.020 A 
ATOM     17  C   UNL     1       1.528  -7.443   3.464  0.00  0.00    +0.045 A 
ATOM     18 CL   UNL     1       0.089  -7.994   2.664  0.00  0.00    -0.083 Cl
ENDBRANCH   1  12
BRANCH   1  19
ATOM     19  C   UNL     1       2.419  -5.122   0.934  0.00  0.00    +0.118 C 
BRANCH  19  20
ATOM     20  N   UNL     1       1.266  -4.452   1.543  0.00  0.00    -0.193 NA
ATOM     21  H   UNL     1       0.515  -4.975   1.863  0.00  0.00    +0.148 HD
BRANCH  20  22
ATOM     22  S   UNL     1       1.248  -2.802   1.685  0.00  0.00    +0.034 S 
ATOM     23  O   UNL     1       2.485  -2.477   2.304  0.00  0.00    -0.158 OA
ATOM     24  O   UNL     1       0.016  -2.507   2.329  0.00  0.00    -0.158 OA
BRANCH  22  25
ATOM     25  C   UNL     1       1.223  -2.188  -0.022  0.00  0.00    +0.221 C 
BRANCH  25  30
ATOM     26  C   UNL     1      -0.017   1.379   0.010  0.00  0.00    +0.000 A 
ATOM     27  C   UNL     1       1.168   2.094   0.002  0.00  0.00    +0.001 A 
ATOM     28  C   UNL     1       2.377   1.430  -0.013  0.00  0.00    +0.019 A 
ATOM     29  C   UNL     1       2.404   0.034  -0.021  0.00  0.00    +0.057 A 
ATOM     30  C   UNL     1       1.204  -0.681  -0.013  0.00  0.00    -0.008 A 
ATOM     31  C   UNL     1       0.002  -0.004   0.002  0.00  0.00    +0.006 A 
BRANCH  29  32
ATOM     32  C   UNL     1       3.655  -0.662  -0.038  0.00  0.00    +0.099 C 
ATOM     33  N   UNL     1       4.648  -1.214  -0.051  0.00  0.00    -0.191 NA
ENDBRANCH  29  32
ENDBRANCH  25  30
ENDBRANCH  22  25
ENDBRANCH  20  22
ENDBRANCH  19  20
ENDBRANCH   1  19
TORSDOF 8
