REMARK  Name = ZINC12282704
REMARK  9 active torsions:
REMARK  status: ('A' for Active; 'I' for Inactive)
REMARK    1  A    between atoms: C_1  and  C_2
REMARK    2  A    between atoms: C_3  and  C_34
REMARK    3  A    between atoms: C_11  and  C_12
REMARK    4  A    between atoms: N_14  and  C_15
REMARK    5  A    between atoms: C_18  and  C_30
REMARK    6  A    between atoms: C_21  and  C_22
REMARK    7  A    between atoms: C_21  and  N_57
REMARK    8  A    between atoms: C_30  and  O_32
REMARK    9  A    between atoms: O_32  and  C_33
REMARK                            x       y       z     vdW  Elec       q    Type
REMARK                         _______ _______ _______ _____ _____    ______ ____
ROOT
ATOM      1  C   UNL     1      -0.738   3.222   2.943  0.00  0.00    +0.056 C 
ATOM      2  C   UNL     1      -0.551   1.835   3.593  0.00  0.00    +0.016 C 
ATOM      3  C   UNL     1      -0.159   0.897   2.431  0.00  0.00    +0.045 C 
ATOM      4  C   UNL     1      -0.443   3.005   1.444  0.00  0.00    -0.055 C 
ATOM      5  N   UNL     1      -0.692   1.572   1.250  0.00  0.00    +0.393 N 
ATOM      6  H   UNL     1      -1.701   1.398   1.173  0.00  0.00    -0.080 HD
ENDROOT
BRANCH   1   9
ATOM      7  C   UNL     1      -0.077   5.500   3.498  0.00  0.00    +0.246 C 
ATOM      8  O   UNL     1      -1.118   5.891   3.007  0.00  0.00    -0.270 OA
ATOM      9  N   UNL     1       0.208   4.183   3.516  0.00  0.00    -0.310 N 
ATOM     10  H   UNL     1       1.038   3.872   3.909  0.00  0.00    +0.149 HD
BRANCH   7  21
ATOM     11  C   UNL     1       1.518  11.391   4.876  0.00  0.00    +0.046 C 
ATOM     12  C   UNL     1       0.914  10.079   4.443  0.00  0.00    -0.022 A 
ATOM     13  C   UNL     1      -0.265   9.907   3.826  0.00  0.00    +0.017 A 
ATOM     14  N   UNL     1      -0.477   8.575   3.590  0.00  0.00    -0.357 N 
ATOM     15  H   UNL     1      -1.261   8.205   3.155  0.00  0.00    +0.166 HD
ATOM     16  C   UNL     1       0.583   7.842   4.059  0.00  0.00    +0.059 A 
ATOM     17  C   UNL     1       1.504   8.748   4.614  0.00  0.00    +0.004 A 
ATOM     18  C   UNL     1       2.693   8.280   5.174  0.00  0.00    +0.010 A 
ATOM     19  C   UNL     1       2.966   6.929   5.183  0.00  0.00    +0.001 A 
ATOM     20  C   UNL     1       2.067   6.026   4.645  0.00  0.00    +0.015 A 
ATOM     21  C   UNL     1       0.875   6.469   4.075  0.00  0.00    +0.061 A 
ATOM     22  C   UNL     1      -1.215  11.015   3.450  0.00  0.00    +0.063 C 
ENDBRANCH   7  21
ENDBRANCH   1   9
BRANCH   3  23
ATOM     23  C   UNL     1      -0.790  -0.459   2.615  0.00  0.00    +0.293 C 
ATOM     24  O   UNL     1      -1.612  -0.856   1.824  0.00  0.00    -0.253 OA
BRANCH  23  25
ATOM     25  O   UNL     1      -0.438  -1.227   3.658  0.00  0.00    -0.469 OA
ATOM     26  C   UNL     1      -1.085  -2.522   3.772  0.00  0.00    +0.280 C 
ENDBRANCH  23  25
ENDBRANCH   3  23
BRANCH   5  27
ATOM     27  C   UNL     1      -0.013   1.086   0.008  0.00  0.00    -0.036 C 
BRANCH  27  28
ATOM     28  C   UNL     1      -0.742   1.585  -1.213  0.00  0.00    +0.006 A 
ATOM     29  C   UNL     1      -1.751   0.824  -1.776  0.00  0.00    +0.127 A 
ATOM     30  C   UNL     1      -2.424   1.286  -2.895  0.00  0.00    +0.039 A 
ATOM     31  C   UNL     1      -2.080   2.502  -3.456  0.00  0.00    +0.006 A 
ATOM     32  C   UNL     1      -1.068   3.260  -2.897  0.00  0.00    +0.039 A 
ATOM     33  C   UNL     1      -0.398   2.802  -1.775  0.00  0.00    +0.127 A 
ATOM     34  F   UNL     1       0.591   3.544  -1.230  0.00  0.00    -0.205 F 
ATOM     35  F   UNL     1      -2.084  -0.367  -1.232  0.00  0.00    -0.205 F 
ENDBRANCH  27  28
ENDBRANCH   5  27
TORSDOF 6
