REMARK  Name = ZINC11883395
REMARK  10 active torsions:
REMARK  status: ('A' for Active; 'I' for Inactive)
REMARK    1  A    between atoms: C_1  and  C_2
REMARK    2  A    between atoms: C_2  and  C_3
REMARK    3  A    between atoms: C_3  and  C_4
REMARK    4  A    between atoms: C_4  and  C_5
REMARK    5  A    between atoms: C_9  and  S_11
REMARK    6  A    between atoms: S_11  and  C_12
REMARK    7  A    between atoms: C_12  and  C_13
REMARK    8  A    between atoms: C_21  and  C_25
REMARK    9  A    between atoms: N_28  and  C_33
REMARK   10  A    between atoms: N_31  and  C_32
REMARK                            x       y       z     vdW  Elec       q    Type
REMARK                         _______ _______ _______ _____ _____    ______ ____
ROOT
ATOM      1  C   UNL     1      -2.800   4.027   4.885  0.00  0.00    +0.133 A 
ATOM      2  N   UNL     1      -2.640   2.742   4.627  0.00  0.00    -0.214 NA
ATOM      3  C   UNL     1      -2.014   2.350   3.526  0.00  0.00    +0.154 A 
ATOM      4  C   UNL     1      -1.523   3.327   2.640  0.00  0.00    +0.114 A 
ATOM      5  C   UNL     1      -1.716   4.681   2.954  0.00  0.00    +0.115 A 
ATOM      6  N   UNL     1      -2.359   4.976   4.086  0.00  0.00    -0.225 NA
ATOM      7  C   UNL     1      -0.827   2.887   1.427  0.00  0.00    +0.268 A 
ATOM      8  O   UNL     1      -0.381   3.695   0.633  0.00  0.00    -0.267 OA
ATOM      9  N   UNL     1      -0.698   1.558   1.213  0.00  0.00    -0.263 N 
ATOM     10  C   UNL     1      -1.184   0.664   2.089  0.00  0.00    +0.333 A 
ATOM     11  O   UNL     1      -1.038  -0.519   1.853  0.00  0.00    -0.246 OA
ATOM     12  N   UNL     1      -1.825   1.020   3.217  0.00  0.00    -0.281 N 
ATOM     13  C   UNL     1      -2.327  -0.015   4.124  0.00  0.00    +0.155 C 
ATOM     14  C   UNL     1      -0.013   1.086   0.008  0.00  0.00    +0.157 C 
ENDROOT
BRANCH   1  15
ATOM     15  C   UNL     1      -3.519   4.424   6.149  0.00  0.00    +0.076 C 
BRANCH  15  16
ATOM     16  C   UNL     1      -5.018   4.545   5.866  0.00  0.00    +0.007 C 
BRANCH  16  18
ATOM     17  C   UNL     1      -7.247   5.070   6.866  0.00  0.00    +0.004 C 
ATOM     18  C   UNL     1      -5.748   4.949   7.149  0.00  0.00    -0.003 C 
ENDBRANCH  16  18
ENDBRANCH  15  16
ENDBRANCH   1  15
BRANCH   5  19
ATOM     19  S   UNL     1      -1.126   5.953   1.887  0.00  0.00    -0.096 S 
BRANCH  19  20
ATOM     20  C   UNL     1      -1.664   7.413   2.812  0.00  0.00    +0.172 C 
BRANCH  20  21
ATOM     21  C   UNL     1      -1.257   8.658   2.067  0.00  0.00    +0.229 C 
ATOM     22  O   UNL     1      -0.661   8.567   1.014  0.00  0.00    -0.275 OA
ATOM     23  N   UNL     1      -1.554   9.872   2.570  0.00  0.00    -0.264 N 
ATOM     24  C   UNL     1      -1.179  11.017   1.885  0.00  0.00    +0.165 A 
ATOM     25  N   UNL     1      -0.537  11.121   0.745  0.00  0.00    -0.225 NA
ATOM     26  C   UNL     1      -0.235  12.313   0.188  0.00  0.00    +0.080 A 
ATOM     27  C   UNL     1       0.447  12.563  -1.026  0.00  0.00    +0.029 A 
ATOM     28  C   UNL     1       0.674  13.845  -1.450  0.00  0.00    +0.005 A 
ATOM     29  C   UNL     1       0.246  14.940  -0.713  0.00  0.00    -0.049 A 
ATOM     30  C   UNL     1      -0.424  14.733   0.479  0.00  0.00    +0.020 A 
ATOM     31  C   UNL     1      -0.656  13.452   0.912  0.00  0.00    +0.041 A 
ATOM     32  S   UNL     1      -1.455  12.727   2.324  0.00  0.00    -0.052 S 
ATOM     33  C   UNL     1       0.509  16.340  -1.205  0.00  0.00    +0.044 C 
ATOM     34  H   UNL     1      -2.031   9.945   3.412  0.00  0.00    +0.157 HD
ENDBRANCH  20  21
ENDBRANCH  19  20
ENDBRANCH   5  19
TORSDOF 6
