REMARK  Name = ZINC15940407
REMARK  6 active torsions:
REMARK  status: ('A' for Active; 'I' for Inactive)
REMARK    1  A    between atoms: C_1  and  C_2
REMARK    2  A    between atoms: C_2  and  C_28
REMARK    3  A    between atoms: N_5  and  C_9
REMARK    4  A    between atoms: C_9  and  C_10
REMARK    5  A    between atoms: N_15  and  S_18
REMARK    6  A    between atoms: S_18  and  C_21
REMARK                            x       y       z     vdW  Elec       q    Type
REMARK                         _______ _______ _______ _____ _____    ______ ____
ROOT
ATOM      1  C   UNL     1      -0.019   1.526   0.010  0.00  0.00    +0.047 C 
ATOM      2  C   UNL     1       0.002  -0.004   0.002  0.00  0.00    +0.135 C 
ATOM      3  C   UNL     1      -1.403  -0.557   0.139  0.00  0.00    +0.251 C 
ATOM      4  O   UNL     1      -2.332  -0.392  -0.621  0.00  0.00    -0.272 OA
ATOM      5  N   UNL     1      -1.403  -1.272   1.282  0.00  0.00    -0.215 N 
ATOM      6  C   UNL     1      -0.206  -1.247   1.879  0.00  0.00    +0.310 C 
ATOM      7  O   UNL     1       0.040  -1.819   2.924  0.00  0.00    -0.252 OA
ATOM      8  N   UNL     1       0.695  -0.520   1.195  0.00  0.00    -0.281 N 
ATOM      9  H   UNL     1       1.621  -0.365   1.440  0.00  0.00    +0.152 HD
ENDROOT
BRANCH   2  10
ATOM     10  C   UNL     1       0.657  -0.517  -1.255  0.00  0.00    -0.015 A 
ATOM     11  C   UNL     1      -0.124  -0.771  -2.381  0.00  0.00    +0.007 A 
ATOM     12  C   UNL     1       0.436  -1.235  -3.531  0.00  0.00    +0.009 A 
ATOM     13  C   UNL     1       1.822  -1.462  -3.588  0.00  0.00    -0.018 A 
ATOM     14  C   UNL     1       2.436  -1.940  -4.758  0.00  0.00    +0.008 A 
ATOM     15  C   UNL     1       3.781  -2.148  -4.776  0.00  0.00    +0.001 A 
ATOM     16  C   UNL     1       4.561  -1.894  -3.650  0.00  0.00    +0.001 A 
ATOM     17  C   UNL     1       4.001  -1.431  -2.499  0.00  0.00    +0.008 A 
ATOM     18  C   UNL     1       2.616  -1.204  -2.443  0.00  0.00    -0.018 A 
ATOM     19  C   UNL     1       2.002  -0.720  -1.274  0.00  0.00    +0.014 A 
ENDBRANCH   2  10
BRANCH   5  20
ATOM     20  C   UNL     1      -2.569  -1.986   1.805  0.00  0.00    +0.213 C 
BRANCH  20  21
ATOM     21  C   UNL     1      -2.585  -3.391   1.260  0.00  0.00    +0.234 C 
ATOM     22  O   UNL     1      -1.707  -3.759   0.508  0.00  0.00    -0.274 OA
ATOM     23  N   UNL     1      -3.573  -4.239   1.608  0.00  0.00    -0.298 N 
ATOM     24  C   UNL     1      -4.646  -3.805   2.513  0.00  0.00    +0.125 C 
ATOM     25  C   UNL     1      -5.995  -4.044   1.825  0.00  0.00    +0.128 C 
ATOM     26  N   UNL     1      -6.020  -5.418   1.305  0.00  0.00    -0.174 NA
ATOM     27  C   UNL     1      -4.947  -5.852   0.399  0.00  0.00    +0.128 C 
ATOM     28  C   UNL     1      -3.601  -5.611   1.083  0.00  0.00    +0.125 C 
BRANCH  26  29
ATOM     29  S   UNL     1      -7.235  -6.460   1.732  0.00  0.00    +0.064 S 
ATOM     30  O   UNL     1      -6.720  -7.774   1.567  0.00  0.00    -0.153 OA
ATOM     31  O   UNL     1      -7.752  -5.994   2.971  0.00  0.00    -0.153 OA
BRANCH  29  32
ATOM     32  C   UNL     1      -8.524  -6.271   0.546  0.00  0.00    +0.140 A 
ATOM     33  C   UNL     1      -8.858  -7.324  -0.285  0.00  0.00    +0.031 A 
ATOM     34  C   UNL     1      -9.869  -7.177  -1.216  0.00  0.00    +0.002 A 
ATOM     35  C   UNL     1     -10.547  -5.976  -1.317  0.00  0.00    +0.003 A 
ATOM     36  C   UNL     1     -10.216  -4.923  -0.487  0.00  0.00    +0.040 A 
ATOM     37  C   UNL     1      -9.206  -5.071   0.449  0.00  0.00    +0.150 A 
ATOM     38  F   UNL     1      -8.884  -4.043   1.264  0.00  0.00    -0.203 F 
ENDBRANCH  29  32
ENDBRANCH  26  29
ENDBRANCH  20  21
ENDBRANCH   5  20
TORSDOF 5
