REMARK  Name = ZINC24778444
REMARK  8 active torsions:
REMARK  status: ('A' for Active; 'I' for Inactive)
REMARK    1  A    between atoms: C_3  and  C_6
REMARK    2  A    between atoms: C_9  and  S_12
REMARK    3  A    between atoms: N_10  and  N_11
REMARK    4  A    between atoms: S_12  and  C_13
REMARK    5  A    between atoms: C_13  and  C_14
REMARK    6  A    between atoms: N_16  and  C_17
REMARK    7  A    between atoms: C_20  and  S_23
REMARK    8  A    between atoms: S_23  and  C_26
REMARK                            x       y       z     vdW  Elec       q    Type
REMARK                         _______ _______ _______ _____ _____    ______ ____
ROOT
ATOM      1  C   UNL     1       3.734  10.697   0.236  0.00  0.00    +0.227 C 
ATOM      2  O   UNL     1       4.879  10.445   0.545  0.00  0.00    -0.275 OA
ATOM      3  N   UNL     1       3.356  11.976   0.035  0.00  0.00    -0.285 N 
ATOM      4  H   UNL     1       2.339  12.200  -0.319  0.00  0.00    +0.155 HD
ENDROOT
BRANCH   3   5
ATOM      5  C   UNL     1       4.259  13.018   0.275  0.00  0.00    +0.034 A 
ATOM      6  C   UNL     1       3.804  14.230   0.776  0.00  0.00    +0.025 A 
ATOM      7  C   UNL     1       4.698  15.255   1.018  0.00  0.00    +0.029 A 
ATOM      8  C   UNL     1       6.043  15.078   0.751  0.00  0.00    +0.095 A 
ATOM      9  C   UNL     1       6.498  13.874   0.246  0.00  0.00    +0.029 A 
ATOM     10  C   UNL     1       5.610  12.843   0.008  0.00  0.00    +0.025 A 
BRANCH   8  11
ATOM     11  S   UNL     1       7.180  16.390   1.054  0.00  0.00    +0.058 S 
ATOM     12  O   UNL     1       6.571  17.168   2.075  0.00  0.00    -0.164 OA
ATOM     13  O   UNL     1       8.426  15.745   1.280  0.00  0.00    -0.164 OA
BRANCH  11  14
ATOM     14  C   UNL     1       7.234  17.328  -0.498  0.00  0.00    +0.485 C 
ATOM     15  F   UNL     1       7.671  16.493  -1.532  0.00  0.00    -0.183 F 
ATOM     16  F   UNL     1       5.955  17.810  -0.796  0.00  0.00    -0.183 F 
ENDBRANCH  11  14
ENDBRANCH   8  11
ENDBRANCH   3   5
BRANCH   1  17
ATOM     17  C   UNL     1       2.732   9.582   0.078  0.00  0.00    +0.173 C 
BRANCH  17  18
ATOM     18  S   UNL     1       3.538   7.996   0.413  0.00  0.00    -0.075 S 
BRANCH  18  22
ATOM     19  C   UNL     1       0.919   5.124  -0.005  0.00  0.00    +0.188 A 
ATOM     20  N   UNL     1       0.215   6.201  -0.277  0.00  0.00    -0.126 NA
ATOM     21  N   UNL     1       0.955   7.247  -0.173  0.00  0.00    -0.121 NA
ATOM     22  C   UNL     1       2.178   6.904   0.163  0.00  0.00    +0.209 A 
ATOM     23  N   UNL     1       2.200   5.542   0.282  0.00  0.00    -0.223 N 
BRANCH  19  26
ATOM     24  C   UNL     1      -1.073   1.912  -0.025  0.00  0.00    +0.008 A 
ATOM     25  C   UNL     1      -0.859   3.272  -0.012  0.00  0.00    +0.019 A 
ATOM     26  C   UNL     1       0.432   3.735  -0.012  0.00  0.00    +0.058 A 
ATOM     27  S   UNL     1       1.368   2.215  -0.022  0.00  0.00    -0.093 S 
ATOM     28  C   UNL     1      -0.004   1.073  -0.026  0.00  0.00    +0.046 A 
ENDBRANCH  19  26
BRANCH  23  29
ATOM     29  N   UNL     1       3.268   4.759   0.616  0.00  0.00    -0.295 N 
ATOM     30  H   UNL     1       4.245   5.221   0.823  0.00  0.00    +0.163 HD
ATOM     31  H   UNL     1       3.152   3.667   0.677  0.00  0.00    +0.163 HD
ENDBRANCH  23  29
ENDBRANCH  18  22
ENDBRANCH  17  18
ENDBRANCH   1  17
TORSDOF 8
