REMARK  Name = ZINC43979754
REMARK  8 active torsions:
REMARK  status: ('A' for Active; 'I' for Inactive)
REMARK    1  A    between atoms: C_1  and  C_2
REMARK    2  A    between atoms: C_3  and  C_8
REMARK    3  A    between atoms: C_4  and  C_7
REMARK    4  A    between atoms: C_8  and  N_9
REMARK    5  A    between atoms: N_9  and  C_10
REMARK    6  A    between atoms: N_13  and  C_14
REMARK    7  A    between atoms: C_18  and  N_20
REMARK    8  A    between atoms: C_21  and  C_23
REMARK                            x       y       z     vdW  Elec       q    Type
REMARK                         _______ _______ _______ _____ _____    ______ ____
ROOT
ATOM      1  C   UNL     1       3.876   2.434  -3.260  0.00  0.00    +0.037 A 
ATOM      2  C   UNL     1       5.259   2.540  -3.179  0.00  0.00    +0.023 A 
ATOM      3  C   UNL     1       5.855   3.784  -3.101  0.00  0.00    +0.004 A 
ATOM      4  C   UNL     1       5.078   4.927  -3.104  0.00  0.00    +0.023 A 
ATOM      5  C   UNL     1       3.695   4.828  -3.186  0.00  0.00    +0.035 A 
ATOM      6  C   UNL     1       3.094   3.580  -3.270  0.00  0.00    +0.046 A 
ENDROOT
BRANCH   1  11
ATOM      7  N   UNL     1       1.440  -0.214  -2.938  0.00  0.00    -0.284 N 
ATOM      8  C   UNL     1       2.070  -1.275  -3.728  0.00  0.00    +0.134 C 
ATOM      9  C   UNL     1       2.067   0.968  -2.775  0.00  0.00    +0.306 C 
ATOM     10  O   UNL     1       1.544   1.848  -2.119  0.00  0.00    -0.252 OA
ATOM     11  N   UNL     1       3.274   1.174  -3.339  0.00  0.00    -0.269 N 
ATOM     12  H   UNL     1       3.724   0.449  -3.799  0.00  0.00    +0.156 HD
BRANCH   7  13
ATOM     13  C   UNL     1       0.129  -0.439  -2.325  0.00  0.00    +0.149 C 
BRANCH  13  16
ATOM     14  C   UNL     1       0.407   1.228   0.364  0.00  0.00    +0.069 C 
ATOM     15  C   UNL     1       0.434  -0.275   0.247  0.00  0.00    +0.085 A 
ATOM     16  C   UNL     1       0.311  -1.013  -0.944  0.00  0.00    +0.034 A 
ATOM     17  C   UNL     1       0.385  -2.322  -0.635  0.00  0.00    +0.139 A 
ATOM     18  O   UNL     1       0.547  -2.426   0.693  0.00  0.00    -0.359 OA
ATOM     19  N   UNL     1       0.582  -1.116   1.231  0.00  0.00    -0.083 NA
ATOM     20  C   UNL     1       0.298  -3.468  -1.610  0.00  0.00    +0.089 C 
ENDBRANCH  13  16
ENDBRANCH   7  13
ENDBRANCH   1  11
BRANCH   5  21
ATOM     21  N   UNL     1       2.910   5.985  -3.190  0.00  0.00    -0.281 N 
ATOM     22  C   UNL     1       3.352   7.098  -3.808  0.00  0.00    +0.255 C 
ATOM     23  O   UNL     1       4.469   7.123  -4.290  0.00  0.00    -0.269 OA
ATOM     24  H   UNL     1       2.046   5.987  -2.747  0.00  0.00    +0.155 HD
BRANCH  22  25
ATOM     25  C   UNL     1       2.487   8.277  -3.901  0.00  0.00    +0.074 A 
ATOM     26  C   UNL     1       2.744   9.505  -4.492  0.00  0.00    +0.021 A 
ATOM     27  C   UNL     1       1.728  10.428  -4.418  0.00  0.00    +0.008 A 
ATOM     28  C   UNL     1       0.575  10.088  -3.791  0.00  0.00    +0.046 A 
ATOM     29  S   UNL     1       0.829   8.506  -3.288  0.00  0.00    -0.092 S 
ENDBRANCH  22  25
ENDBRANCH   5  21
TORSDOF 5
