REMARK  Name = ZINC41514637
REMARK  11 active torsions:
REMARK  status: ('A' for Active; 'I' for Inactive)
REMARK    1  A    between atoms: C_1  and  C_2
REMARK    2  A    between atoms: C_4  and  O_35
REMARK    3  A    between atoms: C_5  and  C_25
REMARK    4  A    between atoms: C_11  and  C_12
REMARK    5  A    between atoms: N_14  and  C_23
REMARK    6  A    between atoms: C_18  and  O_21
REMARK    7  A    between atoms: O_21  and  C_22
REMARK    8  A    between atoms: C_25  and  N_26
REMARK    9  A    between atoms: N_26  and  C_27
REMARK   10  A    between atoms: N_26  and  C_28
REMARK   11  A    between atoms: C_28  and  C_29
REMARK                            x       y       z     vdW  Elec       q    Type
REMARK                         _______ _______ _______ _____ _____    ______ ____
ROOT
ATOM      1  C   UNL     1      -0.018   1.503   0.010  0.00  0.00    +0.045 C 
ATOM      2  C   UNL     1       0.002  -0.004   0.002  0.00  0.00    -0.033 A 
ATOM      3  C   UNL     1       0.006  -0.682  -1.184  0.00  0.00    +0.050 A 
ATOM      4  C   UNL     1       0.025  -2.074  -1.196  0.00  0.00    +0.122 A 
ATOM      5  C   UNL     1       0.039  -2.788  -0.008  0.00  0.00    +0.020 A 
ATOM      6  C   UNL     1       0.036  -2.114   1.205  0.00  0.00    +0.145 A 
ATOM      7  C   UNL     1       0.023  -0.709   1.205  0.00  0.00    +0.071 A 
ATOM      8  C   UNL     1       0.031  -0.301   2.621  0.00  0.00    +0.232 C 
ATOM      9  O   UNL     1       0.019   0.835   3.064  0.00  0.00    -0.283 OA
ATOM     10  C   UNL     1       0.054  -1.515   3.357  0.00  0.00    +0.176 C 
ATOM     11  C   UNL     1       0.069  -1.621   4.716  0.00  0.00    +0.060 C 
ATOM     12  O   UNL     1       0.047  -2.549   2.483  0.00  0.00    -0.451 OA
ENDROOT
BRANCH  11  13
ATOM     13  C   UNL     1       0.093  -2.939   5.346  0.00  0.00    +0.004 A 
ATOM     14  C   UNL     1       0.109  -4.161   4.706  0.00  0.00    +0.094 A 
ATOM     15  N   UNL     1       0.129  -5.154   5.629  0.00  0.00    -0.349 N 
ATOM     16  C   UNL     1       0.127  -4.628   6.907  0.00  0.00    +0.050 A 
ATOM     17  C   UNL     1       0.110  -3.229   6.793  0.00  0.00    +0.011 A 
ATOM     18  C   UNL     1       0.110  -2.434   7.935  0.00  0.00    +0.056 A 
ATOM     19  C   UNL     1       0.130  -3.029   9.183  0.00  0.00    +0.121 A 
ATOM     20  C   UNL     1       0.150  -4.416   9.295  0.00  0.00    +0.047 A 
ATOM     21  C   UNL     1       0.141  -5.210   8.170  0.00  0.00    +0.030 A 
ATOM     22  C   UNL     1       0.150  -6.585   5.315  0.00  0.00    +0.149 C 
BRANCH  19  23
ATOM     23  O   UNL     1       0.131  -2.258  10.303  0.00  0.00    -0.495 OA
ATOM     24  C   UNL     1       0.152  -2.938  11.559  0.00  0.00    +0.277 C 
ENDBRANCH  19  23
ENDBRANCH  11  13
BRANCH   4  25
ATOM     25  O   UNL     1       0.028  -2.738  -2.380  0.00  0.00    -0.506 OA
ATOM     26  H   UNL     1       0.912  -2.918  -2.728  0.00  0.00    +0.292 HD
ENDBRANCH   4  25
BRANCH   5  27
ATOM     27  C   UNL     1       0.059  -4.295  -0.034  0.00  0.00    -0.035 C 
BRANCH  27  28
ATOM     28  N   UNL     1       1.450  -4.767  -0.049  0.00  0.00    +0.383 N 
ATOM     29  C   UNL     1       2.108  -4.391   1.210  0.00  0.00    -0.095 C 
ATOM     30  H   UNL     1       1.940  -4.345  -0.824  0.00  0.00    -0.081 HD
BRANCH  28  31
ATOM     31  C   UNL     1       1.470  -6.228  -0.195  0.00  0.00    -0.043 C 
BRANCH  31  32
ATOM     32  C   UNL     1       2.894  -6.700  -0.333  0.00  0.00    -0.064 A 
ATOM     33  C   UNL     1       3.473  -6.793  -1.585  0.00  0.00    +0.002 A 
ATOM     34  C   UNL     1       4.779  -7.226  -1.712  0.00  0.00    +0.000 A 
ATOM     35  C   UNL     1       5.508  -7.565  -0.588  0.00  0.00    +0.000 A 
ATOM     36  C   UNL     1       4.930  -7.471   0.664  0.00  0.00    +0.000 A 
ATOM     37  C   UNL     1       3.624  -7.034   0.792  0.00  0.00    +0.002 A 
ENDBRANCH  31  32
ENDBRANCH  28  31
ENDBRANCH  27  28
ENDBRANCH   5  27
TORSDOF 7
