REMARK  Name = ZINC32123980
REMARK  9 active torsions:
REMARK  status: ('A' for Active; 'I' for Inactive)
REMARK    1  A    between atoms: C_1  and  C_2
REMARK    2  A    between atoms: C_6  and  C_37
REMARK    3  A    between atoms: C_7  and  C_8
REMARK    4  A    between atoms: C_20  and  N_21
REMARK    5  A    between atoms: N_21  and  C_22
REMARK    6  A    between atoms: C_27  and  O_35
REMARK    7  A    between atoms: C_28  and  O_33
REMARK    8  A    between atoms: O_33  and  C_34
REMARK    9  A    between atoms: O_35  and  C_36
REMARK                            x       y       z     vdW  Elec       q    Type
REMARK                         _______ _______ _______ _____ _____    ______ ____
ROOT
ATOM      1  C   UNL     1       4.716  -1.937   0.240  0.00  0.00    +0.011 C 
ATOM      2  C   UNL     1       5.225  -1.996   1.681  0.00  0.00    -0.027 C 
ATOM      3  C   UNL     1       4.494  -3.112   2.466  0.00  0.00    -0.066 C 
ATOM      4  N   UNL     1       5.034  -3.159   3.834  0.00  0.00    +0.399 N 
ATOM      5  C   UNL     1       4.760  -1.900   4.544  0.00  0.00    -0.066 C 
ATOM      6  C   UNL     1       5.484  -0.755   3.825  0.00  0.00    -0.027 C 
ATOM      7  C   UNL     1       4.954  -0.663   2.389  0.00  0.00    +0.030 C 
ATOM      8  C   UNL     1       6.986  -1.057   3.777  0.00  0.00    +0.089 C 
ATOM      9  N   UNL     1       7.175  -2.363   3.095  0.00  0.00    -0.301 NA
ATOM     10  C   UNL     1       6.716  -2.287   1.700  0.00  0.00    +0.089 C 
ATOM     11  C   UNL     1       6.476  -3.440   3.812  0.00  0.00    +0.073 C 
ATOM     12  C   UNL     1       5.237   0.564   4.561  0.00  0.00    +0.011 C 
ATOM     13  H   UNL     1       4.532  -3.974   4.375  0.00  0.00    -0.077 HD
ENDROOT
BRANCH   7  14
ATOM     14  C   UNL     1       3.471  -0.395   2.413  0.00  0.00    -0.040 A 
ATOM     15  C   UNL     1       2.765  -0.315   1.227  0.00  0.00    +0.008 A 
ATOM     16  C   UNL     1       1.405  -0.070   1.243  0.00  0.00    +0.050 A 
ATOM     17  C   UNL     1       0.745   0.097   2.450  0.00  0.00    +0.166 A 
ATOM     18  C   UNL     1       1.456   0.016   3.645  0.00  0.00    +0.166 A 
ATOM     19  C   UNL     1       2.819  -0.230   3.621  0.00  0.00    +0.053 A 
ATOM     20  O   UNL     1       0.590   0.213   4.682  0.00  0.00    -0.453 OA
ATOM     21  C   UNL     1      -0.724   0.009   4.130  0.00  0.00    +0.466 C 
ATOM     22  O   UNL     1      -0.566   0.344   2.738  0.00  0.00    -0.453 OA
ENDBRANCH   7  14
BRANCH  11  23
ATOM     23  N   UNL     1       6.716  -4.718   3.129  0.00  0.00    -0.278 NA
ATOM     24  H   UNL     1       5.995  -5.467   3.489  0.00  0.00    +0.125 HD
BRANCH  23  25
ATOM     25  C   UNL     1       8.075  -5.209   3.391  0.00  0.00    +0.278 C 
ATOM     26  C   UNL     1       8.654  -5.824   2.141  0.00  0.00    +0.025 A 
ATOM     27  C   UNL     1       8.928  -5.331   0.888  0.00  0.00    +0.013 A 
ATOM     28  C   UNL     1       9.473  -6.158  -0.082  0.00  0.00    +0.050 A 
ATOM     29  C   UNL     1       9.747  -7.484   0.205  0.00  0.00    +0.162 A 
ATOM     30  C   UNL     1       9.475  -7.996   1.470  0.00  0.00    +0.176 A 
ATOM     31  C   UNL     1       8.922  -7.162   2.450  0.00  0.00    +0.112 A 
ATOM     32  C   UNL     1       8.530  -7.395   3.849  0.00  0.00    +0.345 C 
ATOM     33  O   UNL     1       8.633  -8.456   4.431  0.00  0.00    -0.245 OA
ATOM     34  O   UNL     1       8.041  -6.265   4.390  0.00  0.00    -0.438 OA
BRANCH  30  35
ATOM     35  O   UNL     1       9.743  -9.296   1.753  0.00  0.00    -0.491 OA
ATOM     36  C   UNL     1      11.041  -9.593   2.271  0.00  0.00    +0.277 C 
ENDBRANCH  30  35
BRANCH  29  37
ATOM     37  O   UNL     1      10.283  -8.289  -0.751  0.00  0.00    -0.491 OA
ATOM     38  C   UNL     1      10.537  -7.699  -2.027  0.00  0.00    +0.277 C 
ENDBRANCH  29  37
ENDBRANCH  23  25
ENDBRANCH  11  23
TORSDOF 5
