REMARK  Name = ZINC06789697
REMARK  7 active torsions:
REMARK  status: ('A' for Active; 'I' for Inactive)
REMARK    1  A    between atoms: C_1  and  C_2
REMARK    2  A    between atoms: C_4  and  N_11
REMARK    3  A    between atoms: C_5  and  O_9
REMARK    4  A    between atoms: O_9  and  C_10
REMARK    5  A    between atoms: C_12  and  C_14
REMARK    6  A    between atoms: C_14  and  N_15
REMARK    7  A    between atoms: C_21  and  C_24
REMARK                            x       y       z     vdW  Elec       q    Type
REMARK                         _______ _______ _______ _____ _____    ______ ____
ROOT
ATOM      1  C   UNL     1      -0.018   1.461   0.026  0.00  0.00    +0.214 C 
ENDROOT
BRANCH   1   2
ATOM      2  N   UNL     1       0.001  -0.004   0.020  0.00  0.00    -0.215 N 
ATOM      3  C   UNL     1       0.031  -0.766   1.133  0.00  0.00    +0.247 C 
ATOM      4  O   UNL     1       0.047  -0.385   2.284  0.00  0.00    -0.273 OA
ATOM      5  C   UNL     1       0.041  -2.196   0.642  0.00  0.00    +0.113 C 
ATOM      6  C   UNL     1      -1.195  -2.937   1.139  0.00  0.00    +0.035 C 
ATOM      7  C   UNL     1      -1.181  -4.373   0.609  0.00  0.00    +0.006 C 
ATOM      8  C   UNL     1       0.087  -5.080   1.092  0.00  0.00    -0.014 C 
ATOM      9  C   UNL     1       1.317  -4.340   0.565  0.00  0.00    +0.006 C 
ATOM     10  C   UNL     1       1.313  -2.904   1.095  0.00  0.00    +0.035 C 
ATOM     11  C   UNL     1       0.096  -6.520   0.573  0.00  0.00    +0.007 C 
ATOM     12  N   UNL     1       0.014  -2.071  -0.820  0.00  0.00    -0.285 N 
ATOM     13  C   UNL     1      -0.014  -0.752  -1.090  0.00  0.00    +0.310 C 
ATOM     14  O   UNL     1      -0.045  -0.292  -2.214  0.00  0.00    -0.252 OA
ATOM     15  H   UNL     1       0.011  -2.796  -1.465  0.00  0.00    +0.151 HD
ENDBRANCH   1   2
BRANCH   1  17
ATOM     16  N   UNL     1       1.624   3.311   0.004  0.00  0.00    -0.281 N 
ATOM     17  C   UNL     1       1.396   1.982   0.003  0.00  0.00    +0.235 C 
ATOM     18  O   UNL     1       2.328   1.207  -0.016  0.00  0.00    -0.274 OA
ATOM     19  H   UNL     1       0.881   3.931  -0.061  0.00  0.00    +0.155 HD
BRANCH  16  23
ATOM     20  C   UNL     1       6.288   2.653   1.417  0.00  0.00    +0.045 C 
ATOM     21  C   UNL     1       5.216   3.499   0.780  0.00  0.00    -0.030 A 
ATOM     22  C   UNL     1       3.922   3.021   0.692  0.00  0.00    +0.031 A 
ATOM     23  C   UNL     1       2.936   3.796   0.100  0.00  0.00    +0.076 A 
ATOM     24  C   UNL     1       3.250   5.061  -0.394  0.00  0.00    +0.143 A 
ATOM     25  C   UNL     1       4.548   5.535  -0.296  0.00  0.00    +0.067 A 
ATOM     26  C   UNL     1       5.528   4.755   0.290  0.00  0.00    +0.047 A 
ATOM     27 CL   UNL     1       7.154   5.352   0.411  0.00  0.00    -0.083 Cl
BRANCH  24  28
ATOM     28  O   UNL     1       2.286   5.826  -0.970  0.00  0.00    -0.493 OA
ATOM     29  C   UNL     1       2.680   7.112  -1.454  0.00  0.00    +0.277 C 
ENDBRANCH  24  28
ENDBRANCH  16  23
ENDBRANCH   1  17
TORSDOF 4
