REMARK  Name = ZINC35125854
REMARK  13 active torsions:
REMARK  status: ('A' for Active; 'I' for Inactive)
REMARK    1  A    between atoms: C_1  and  C_2
REMARK    2  A    between atoms: C_2  and  C_3
REMARK    3  A    between atoms: C_8  and  N_9
REMARK    4  A    between atoms: N_12  and  C_13
REMARK    5  A    between atoms: N_12  and  C_36
REMARK    6  A    between atoms: C_13  and  C_14
REMARK    7  A    between atoms: N_16  and  C_17
REMARK    8  A    between atoms: C_18  and  C_30
REMARK    9  A    between atoms: C_19  and  C_29
REMARK   10  A    between atoms: N_21  and  C_22
REMARK   11  A    between atoms: C_27  and  C_28
REMARK   12  A    between atoms: C_36  and  C_37
REMARK   13  A    between atoms: C_36  and  C_38
REMARK                            x       y       z     vdW  Elec       q    Type
REMARK                         _______ _______ _______ _____ _____    ______ ____
ROOT
ATOM      1  C   UNL     1      -2.723   0.872  -6.728  0.00  0.00    +0.236 C 
ATOM      2  O   UNL     1      -2.178   1.878  -6.326  0.00  0.00    -0.274 OA
ATOM      3  N   UNL     1      -3.908   0.956  -7.365  0.00  0.00    -0.268 N 
ATOM      4  H   UNL     1      -4.388   0.148  -7.604  0.00  0.00    +0.156 HD
ENDROOT
BRANCH   3   5
ATOM      5  C   UNL     1      -4.442   2.202  -7.678  0.00  0.00    +0.137 A 
ATOM      6  C   UNL     1      -4.912   2.607  -8.915  0.00  0.00    +0.045 A 
ATOM      7  C   UNL     1      -5.360   3.935  -8.778  0.00  0.00    +0.070 A 
ATOM      8  N   UNL     1      -5.174   4.309  -7.541  0.00  0.00    -0.169 NA
ATOM      9  N   UNL     1      -4.607   3.248  -6.825  0.00  0.00    -0.217 N 
ATOM     10  C   UNL     1      -5.953   4.782  -9.875  0.00  0.00    +0.068 C 
BRANCH   9  11
ATOM     11  C   UNL     1      -4.266   3.263  -5.466  0.00  0.00    +0.070 A 
ATOM     12  C   UNL     1      -4.456   2.127  -4.689  0.00  0.00    +0.028 A 
ATOM     13  C   UNL     1      -4.118   2.145  -3.350  0.00  0.00    +0.002 A 
ATOM     14  C   UNL     1      -3.591   3.291  -2.783  0.00  0.00    +0.000 A 
ATOM     15  C   UNL     1      -3.400   4.422  -3.554  0.00  0.00    +0.005 A 
ATOM     16  C   UNL     1      -3.731   4.410  -4.895  0.00  0.00    -0.025 A 
ATOM     17  C   UNL     1      -3.517   5.642  -5.736  0.00  0.00    +0.046 C 
ENDBRANCH   9  11
BRANCH   6  18
ATOM     18  C   UNL     1      -4.938   1.794 -10.155  0.00  0.00    -0.013 A 
ATOM     19  C   UNL     1      -3.745   1.378 -10.743  0.00  0.00    +0.008 A 
ATOM     20  C   UNL     1      -3.775   0.621 -11.897  0.00  0.00    +0.001 A 
ATOM     21  C   UNL     1      -4.986   0.275 -12.469  0.00  0.00    +0.000 A 
ATOM     22  C   UNL     1      -6.173   0.685 -11.889  0.00  0.00    +0.001 A 
ATOM     23  C   UNL     1      -6.155   1.437 -10.732  0.00  0.00    +0.008 A 
ENDBRANCH   6  18
ENDBRANCH   3   5
BRANCH   1  24
ATOM     24  C   UNL     1      -2.075  -0.472  -6.516  0.00  0.00    +0.205 C 
BRANCH  24  28
ATOM     25  N   UNL     1       0.247   0.024  -3.711  0.00  0.00    -0.269 N 
ATOM     26  C   UNL     1      -0.883  -0.205  -4.409  0.00  0.00    +0.307 C 
ATOM     27  O   UNL     1      -1.944  -0.323  -3.826  0.00  0.00    -0.252 OA
ATOM     28  N   UNL     1      -0.837  -0.303  -5.752  0.00  0.00    -0.274 N 
ATOM     29  H   UNL     1       1.088   0.152  -4.177  0.00  0.00    +0.156 HD
BRANCH  25  35
ATOM     30  C   UNL     1       1.343  -0.228  -1.573  0.00  0.00    -0.026 A 
ATOM     31  C   UNL     1       1.303  -0.170  -0.194  0.00  0.00    +0.005 A 
ATOM     32  C   UNL     1       0.132   0.184   0.451  0.00  0.00    +0.000 A 
ATOM     33  C   UNL     1      -1.002   0.482  -0.283  0.00  0.00    +0.002 A 
ATOM     34  C   UNL     1      -0.968   0.426  -1.662  0.00  0.00    +0.023 A 
ATOM     35  C   UNL     1       0.208   0.076  -2.313  0.00  0.00    +0.038 A 
BRANCH  30  37
ATOM     36  C   UNL     1       3.390   0.648  -2.664  0.00  0.00    +0.009 C 
ATOM     37  C   UNL     1       2.619  -0.615  -2.275  0.00  0.00    +0.033 C 
ENDBRANCH  30  37
ENDBRANCH  25  35
BRANCH  28  38
ATOM     38  C   UNL     1       0.451  -0.239  -6.448  0.00  0.00    +0.072 C 
ATOM     39  C   UNL     1       0.610  -1.473  -7.339  0.00  0.00    +0.028 C 
ATOM     40  C   UNL     1       0.503   1.023  -7.310  0.00  0.00    +0.028 C 
ENDBRANCH  28  38
ENDBRANCH  24  28
ENDBRANCH   1  24
TORSDOF 8
