REMARK  Name = ZINC12582325
REMARK  10 active torsions:
REMARK  status: ('A' for Active; 'I' for Inactive)
REMARK    1  A    between atoms: C_1  and  N_60
REMARK    2  A    between atoms: C_2  and  C_3
REMARK    3  A    between atoms: C_2  and  N_60
REMARK    4  A    between atoms: C_7  and  O_9
REMARK    5  A    between atoms: O_9  and  C_10
REMARK    6  A    between atoms: C_14  and  C_15
REMARK    7  A    between atoms: C_14  and  N_60
REMARK    8  A    between atoms: C_21  and  C_22
REMARK    9  A    between atoms: C_21  and  N_62
REMARK   10  A    between atoms: C_22  and  C_23
REMARK                            x       y       z     vdW  Elec       q    Type
REMARK                         _______ _______ _______ _____ _____    ______ ____
ROOT
ATOM      1  C   UNL     1      -7.714   4.026   0.030  0.00  0.00    -0.077 C 
ENDROOT
BRANCH   1   2
ATOM      2  C   UNL     1      -6.662   4.827  -0.739  0.00  0.00    -0.044 C 
ATOM      3  C   UNL     1      -6.493   6.204  -0.090  0.00  0.00    -0.002 C 
ATOM      4  C   UNL     1      -5.396   6.976  -0.829  0.00  0.00    -0.018 C 
ATOM      5  C   UNL     1      -4.096   6.170  -0.789  0.00  0.00    -0.079 C 
ATOM      6  C   UNL     1      -5.325   4.083  -0.702  0.00  0.00    -0.077 C 
ATOM      7  N   UNL     1      -4.319   4.867  -1.450  0.00  0.00    +0.380 N 
ATOM      8  H   UNL     1      -4.667   5.032  -2.402  0.00  0.00    -0.082 HD
BRANCH   7   9
ATOM      9  C   UNL     1      -3.049   4.116  -1.526  0.00  0.00    -0.074 C 
BRANCH   9  10
ATOM     10  C   UNL     1      -2.548   3.764  -0.124  0.00  0.00    +0.016 C 
BRANCH  10  11
ATOM     11  C   UNL     1      -1.254   2.998  -0.231  0.00  0.00    -0.049 A 
ATOM     12  C   UNL     1      -1.274   1.619  -0.325  0.00  0.00    +0.005 A 
ATOM     13  C   UNL     1      -0.088   0.915  -0.416  0.00  0.00    +0.020 A 
ATOM     14  C   UNL     1       1.119   1.592  -0.426  0.00  0.00    +0.041 A 
ATOM     15  C   UNL     1       1.137   2.973  -0.339  0.00  0.00    +0.020 A 
ATOM     16  C   UNL     1      -0.049   3.675  -0.241  0.00  0.00    +0.005 A 
ATOM     17 CL   UNL     1       2.609   0.709  -0.548  0.00  0.00    -0.084 Cl
ENDBRANCH  10  11
ENDBRANCH   9  10
ENDBRANCH   7   9
ENDBRANCH   1   2
BRANCH   1  19
ATOM     18  C   UNL     1      -9.944   4.239   0.948  0.00  0.00    -0.096 C 
ATOM     19  N   UNL     1      -9.020   4.703  -0.108  0.00  0.00    +0.381 N 
ATOM     20  H   UNL     1      -8.883   5.716  -0.009  0.00  0.00    -0.082 HD
BRANCH  19  21
ATOM     21  C   UNL     1      -9.595   4.424  -1.441  0.00  0.00    -0.043 C 
BRANCH  21  22
ATOM     22  C   UNL     1     -10.809   5.296  -1.639  0.00  0.00    -0.057 A 
ATOM     23  C   UNL     1     -12.058   4.832  -1.274  0.00  0.00    +0.051 A 
ATOM     24  C   UNL     1     -13.177   5.632  -1.450  0.00  0.00    +0.170 A 
ATOM     25  C   UNL     1     -13.041   6.900  -2.005  0.00  0.00    +0.208 A 
ATOM     26  C   UNL     1     -11.783   7.361  -2.374  0.00  0.00    +0.166 A 
ATOM     27  C   UNL     1     -10.669   6.556  -2.190  0.00  0.00    +0.051 A 
ATOM     28  O   UNL     1     -14.275   7.481  -2.077  0.00  0.00    -0.449 OA
ATOM     29  C   UNL     1     -15.111   6.717  -1.187  0.00  0.00    +0.467 C 
ATOM     30  O   UNL     1     -14.496   5.415  -1.175  0.00  0.00    -0.452 OA
BRANCH  26  31
ATOM     31  O   UNL     1     -11.645   8.601  -2.917  0.00  0.00    -0.491 OA
ATOM     32  C   UNL     1     -10.323   9.009  -3.274  0.00  0.00    +0.277 C 
ENDBRANCH  26  31
ENDBRANCH  21  22
ENDBRANCH  19  21
ENDBRANCH   1  19
TORSDOF 8
