REMARK  Name = ZINC36151799
REMARK  1 active torsions:
REMARK  status: ('A' for Active; 'I' for Inactive)
REMARK    1  A    between atoms: C_5  and  C_7
REMARK                            x       y       z     vdW  Elec       q    Type
REMARK                         _______ _______ _______ _____ _____    ______ ____
ROOT
ATOM      1  C   UNL     1       1.249  -2.161  -0.022  0.00  0.00    +0.185 A 
ATOM      2  N   UNL     1       2.321  -2.922  -0.032  0.00  0.00    -0.127 NA
ATOM      3  N   UNL     1       1.981  -4.167  -0.036  0.00  0.00    -0.121 NA
ATOM      4  C   UNL     1       0.685  -4.263  -0.029  0.00  0.00    +0.209 A 
ATOM      5  N   UNL     1       0.161  -2.995  -0.016  0.00  0.00    -0.221 N 
ATOM      6  N   UNL     1      -1.161  -2.650  -0.005  0.00  0.00    -0.277 N 
ATOM      7  C   UNL     1      -2.002  -3.693  -0.561  0.00  0.00    +0.101 C 
ATOM      8  C   UNL     1      -3.505  -3.397  -0.583  0.00  0.00    +0.025 C 
ATOM      9  C   UNL     1      -4.141  -4.805  -0.720  0.00  0.00    +0.003 C 
ATOM     10  C   UNL     1      -3.102  -5.810  -0.170  0.00  0.00    +0.016 C 
ATOM     11  C   UNL     1      -1.939  -4.960   0.345  0.00  0.00    +0.076 C 
ATOM     12  S   UNL     1      -0.324  -5.721  -0.027  0.00  0.00    -0.079 S 
ATOM     13  H   UNL     1      -1.462  -2.400   0.925  0.00  0.00    +0.167 HD
ENDROOT
BRANCH   1  18
ATOM     14  C   UNL     1      -0.017   1.375   0.010  0.00  0.00    +0.001 A 
ATOM     15  C   UNL     1       1.170   2.087   0.002  0.00  0.00    +0.003 A 
ATOM     16  C   UNL     1       2.383   1.423  -0.013  0.00  0.00    +0.039 A 
ATOM     17  C   UNL     1       2.417   0.042  -0.022  0.00  0.00    +0.134 A 
ATOM     18  C   UNL     1       1.222  -0.683  -0.014  0.00  0.00    +0.056 A 
ATOM     19  C   UNL     1       0.002  -0.004   0.002  0.00  0.00    +0.014 A 
ATOM     20  F   UNL     1       3.602  -0.607  -0.038  0.00  0.00    -0.205 F 
ENDBRANCH   1  18
TORSDOF 1
