REMARK  Name = ZINC66685454
REMARK  9 active torsions:
REMARK  status: ('A' for Active; 'I' for Inactive)
REMARK    1  A    between atoms: C_1  and  C_2
REMARK    2  A    between atoms: C_5  and  N_14
REMARK    3  A    between atoms: C_7  and  C_8
REMARK    4  A    between atoms: N_10  and  C_11
REMARK    5  A    between atoms: C_11  and  C_12
REMARK    6  A    between atoms: C_11  and  C_13
REMARK    7  A    between atoms: N_17  and  C_18
REMARK    8  A    between atoms: C_25  and  O_29
REMARK    9  A    between atoms: O_29  and  C_30
REMARK                            x       y       z     vdW  Elec       q    Type
REMARK                         _______ _______ _______ _____ _____    ______ ____
ROOT
ATOM      1  N   UNL     1       0.167  -4.358   0.201  0.00  0.00    -0.269 N 
ATOM      2  C   UNL     1       0.250  -5.164  -0.876  0.00  0.00    +0.304 C 
ATOM      3  O   UNL     1       0.184  -4.691  -1.995  0.00  0.00    -0.252 OA
ATOM      4  N   UNL     1       0.407  -6.492  -0.714  0.00  0.00    -0.293 N 
ATOM      5  H   UNL     1       0.147  -4.741   1.093  0.00  0.00    +0.156 HD
ATOM      6  H   UNL     1       0.460  -6.869   0.178  0.00  0.00    +0.151 HD
ENDROOT
BRANCH   4   7
ATOM      7  C   UNL     1       0.497  -7.368  -1.885  0.00  0.00    +0.116 C 
ATOM      8  C   UNL     1       1.251  -8.648  -1.516  0.00  0.00    +0.064 C 
ATOM      9  C   UNL     1       1.091  -9.666  -2.616  0.00  0.00    -0.000 A 
ATOM     10  C   UNL     1       1.977 -10.732  -2.671  0.00  0.00    +0.007 A 
ATOM     11  C   UNL     1       1.862 -11.686  -3.662  0.00  0.00    +0.004 A 
ATOM     12  C   UNL     1       0.857 -11.585  -4.607  0.00  0.00    +0.049 A 
ATOM     13  C   UNL     1      -0.030 -10.524  -4.559  0.00  0.00    +0.162 A 
ATOM     14  C   UNL     1       0.087  -9.557  -3.559  0.00  0.00    +0.165 A 
ATOM     15  O   UNL     1      -0.795  -8.523  -3.550  0.00  0.00    -0.486 OA
ATOM     16  C   UNL     1      -0.912  -7.755  -2.351  0.00  0.00    +0.251 C 
BRANCH  13  17
ATOM     17  O   UNL     1      -1.019 -10.423  -5.487  0.00  0.00    -0.491 OA
ATOM     18  C   UNL     1      -1.082 -11.448  -6.482  0.00  0.00    +0.277 C 
ENDBRANCH  13  17
ENDBRANCH   4   7
BRANCH   1  23
ATOM     19  C   UNL     1      -0.048   1.283  -0.452  0.00  0.00    +0.044 C 
ATOM     20  C   UNL     1       0.007  -0.213  -0.281  0.00  0.00    -0.038 A 
ATOM     21  C   UNL     1       0.677  -0.761   0.794  0.00  0.00    +0.006 A 
ATOM     22  C   UNL     1       0.730  -2.133   0.955  0.00  0.00    +0.023 A 
ATOM     23  C   UNL     1       0.110  -2.970   0.035  0.00  0.00    +0.035 A 
ATOM     24  C   UNL     1      -0.565  -2.429  -1.049  0.00  0.00    +0.036 A 
ATOM     25  C   UNL     1      -0.623  -1.045  -1.208  0.00  0.00    +0.041 A 
BRANCH  25  26
ATOM     26  C   UNL     1      -1.346  -0.460  -2.358  0.00  0.00    +0.245 C 
ATOM     27  O   UNL     1      -1.338   0.743  -2.533  0.00  0.00    -0.270 OA
ATOM     28  N   UNL     1      -2.013  -1.261  -3.212  0.00  0.00    -0.309 N 
ATOM     29  H   UNL     1      -2.020  -2.221  -3.072  0.00  0.00    +0.149 HD
BRANCH  28  30
ATOM     30  C   UNL     1      -2.729  -0.682  -4.351  0.00  0.00    +0.067 C 
ATOM     31  C   UNL     1      -2.856  -1.729  -5.460  0.00  0.00    +0.027 C 
ATOM     32  C   UNL     1      -4.125  -0.240  -3.906  0.00  0.00    +0.027 C 
ENDBRANCH  28  30
ENDBRANCH  25  26
ENDBRANCH   1  23
TORSDOF 5
