REMARK  Name = ZINC65694666
REMARK  6 active torsions:
REMARK  status: ('A' for Active; 'I' for Inactive)
REMARK    1  A    between atoms: C_1  and  C_2
REMARK    2  A    between atoms: C_2  and  C_22
REMARK    3  A    between atoms: N_5  and  C_9
REMARK    4  A    between atoms: C_9  and  C_10
REMARK    5  A    between atoms: N_12  and  C_13
REMARK    6  A    between atoms: C_13  and  C_20
REMARK                            x       y       z     vdW  Elec       q    Type
REMARK                         _______ _______ _______ _____ _____    ______ ____
ROOT
ATOM      1  C   UNL     1      -0.019   1.526   0.010  0.00  0.00    +0.047 C 
ATOM      2  C   UNL     1       0.002  -0.004   0.002  0.00  0.00    +0.138 C 
ATOM      3  C   UNL     1       0.815  -0.520  -1.169  0.00  0.00    +0.251 C 
ATOM      4  O   UNL     1       0.595  -0.342  -2.348  0.00  0.00    -0.272 OA
ATOM      5  N   UNL     1       1.833  -1.217  -0.627  0.00  0.00    -0.215 N 
ATOM      6  C   UNL     1       1.777  -1.214   0.710  0.00  0.00    +0.310 C 
ATOM      7  O   UNL     1       2.586  -1.776   1.421  0.00  0.00    -0.252 OA
ATOM      8  N   UNL     1       0.724  -0.519   1.178  0.00  0.00    -0.281 N 
ATOM      9  H   UNL     1       0.487  -0.383   2.109  0.00  0.00    +0.152 HD
ENDROOT
BRANCH   2  10
ATOM     10  C   UNL     1      -1.401  -0.551  -0.040  0.00  0.00    +0.020 A 
ATOM     11  C   UNL     1      -1.863  -1.350   0.990  0.00  0.00    +0.009 A 
ATOM     12  C   UNL     1      -3.150  -1.852   0.951  0.00  0.00    +0.001 A 
ATOM     13  C   UNL     1      -3.977  -1.557  -0.117  0.00  0.00    +0.003 A 
ATOM     14  C   UNL     1      -3.518  -0.758  -1.147  0.00  0.00    +0.039 A 
ATOM     15  C   UNL     1      -2.231  -0.250  -1.107  0.00  0.00    +0.129 A 
ATOM     16  F   UNL     1      -1.782   0.534  -2.111  0.00  0.00    -0.205 F 
ENDBRANCH   2  10
BRANCH   5  17
ATOM     17  C   UNL     1       2.871  -1.896  -1.406  0.00  0.00    +0.213 C 
BRANCH  17  18
ATOM     18  C   UNL     1       4.020  -0.950  -1.644  0.00  0.00    +0.232 C 
ATOM     19  O   UNL     1       3.975   0.180  -1.206  0.00  0.00    -0.274 OA
ATOM     20  N   UNL     1       5.097  -1.360  -2.343  0.00  0.00    -0.296 N 
ATOM     21  H   UNL     1       5.133  -2.264  -2.693  0.00  0.00    +0.150 HD
BRANCH  20  22
ATOM     22  C   UNL     1       6.213  -0.440  -2.574  0.00  0.00    +0.121 C 
ATOM     23  C   UNL     1       6.801  -0.017  -1.255  0.00  0.00    +0.041 C 
ATOM     24  C   UNL     1       7.322   1.433  -1.280  0.00  0.00    +0.003 C 
ATOM     25  C   UNL     1       8.073   1.776  -2.580  0.00  0.00    +0.000 C 
ATOM     26  C   UNL     1       8.979   0.663  -3.033  0.00  0.00    +0.000 C 
ATOM     27  C   UNL     1       8.212  -0.213  -4.045  0.00  0.00    +0.003 C 
ATOM     28  C   UNL     1       7.309  -1.151  -3.393  0.00  0.00    +0.041 C 
BRANCH  22  29
ATOM     29  C   UNL     1       5.736   0.743  -3.309  0.00  0.00    +0.088 C 
ATOM     30  N   UNL     1       5.367   1.656  -3.876  0.00  0.00    -0.194 NA
ENDBRANCH  22  29
ENDBRANCH  20  22
ENDBRANCH  17  18
ENDBRANCH   5  17
TORSDOF 5
