REMARK  Name = ZINC35051316
REMARK  12 active torsions:
REMARK  status: ('A' for Active; 'I' for Inactive)
REMARK    1  A    between atoms: C_1  and  C_2
REMARK    2  A    between atoms: C_2  and  C_33
REMARK    3  A    between atoms: C_3  and  C_4
REMARK    4  A    between atoms: C_4  and  C_5
REMARK    5  A    between atoms: C_15  and  O_16
REMARK    6  A    between atoms: O_16  and  C_17
REMARK    7  A    between atoms: C_19  and  O_32
REMARK    8  A    between atoms: C_21  and  O_31
REMARK    9  A    between atoms: C_23  and  O_30
REMARK   10  A    between atoms: C_25  and  C_28
REMARK   11  A    between atoms: C_28  and  O_29
REMARK   12  A    between atoms: C_33  and  O_34
REMARK                            x       y       z     vdW  Elec       q    Type
REMARK                         _______ _______ _______ _____ _____    ______ ____
ROOT
ATOM      1  C   UNL     1       0.934  -2.807   1.972  0.00  0.00    -0.001 A 
ATOM      2  C   UNL     1       2.096  -3.226   1.389  0.00  0.00    +0.019 A 
ATOM      3  C   UNL     1       3.103  -3.795   2.176  0.00  0.00    +0.018 A 
ATOM      4  C   UNL     1       4.359  -4.252   1.578  0.00  0.00    +0.018 A 
ATOM      5  C   UNL     1       5.299  -4.795   2.395  0.00  0.00    +0.092 A 
ATOM      6  C   UNL     1       5.046  -4.905   3.778  0.00  0.00    +0.337 A 
ATOM      7  O   UNL     1       5.897  -5.394   4.500  0.00  0.00    -0.245 OA
ATOM      8  O   UNL     1       3.893  -4.484   4.320  0.00  0.00    -0.422 OA
ATOM      9  C   UNL     1       2.918  -3.935   3.564  0.00  0.00    +0.143 A 
ATOM     10  C   UNL     1       1.732  -3.505   4.140  0.00  0.00    +0.093 A 
ATOM     11  C   UNL     1       0.748  -2.938   3.346  0.00  0.00    +0.131 A 
ENDROOT
BRANCH   1  12
ATOM     12  C   UNL     1      -0.150  -2.195   1.124  0.00  0.00    +0.066 C 
BRANCH  12  15
ATOM     13  C   UNL     1       0.491   1.435   0.058  0.00  0.00    +0.041 C 
ATOM     14  C   UNL     1       0.195  -0.042   0.024  0.00  0.00    -0.051 C 
ATOM     15  C   UNL     1      -0.014  -0.694   1.141  0.00  0.00    -0.021 C 
BRANCH  14  16
ATOM     16  C   UNL     1       0.141  -0.770  -1.294  0.00  0.00    +0.186 C 
BRANCH  16  17
ATOM     17  O   UNL     1      -0.731  -0.074  -2.187  0.00  0.00    -0.391 OA
ATOM     18  H   UNL     1      -0.814  -0.487  -3.057  0.00  0.00    +0.210 HD
ENDBRANCH  16  17
ENDBRANCH  14  16
ENDBRANCH  12  15
ENDBRANCH   1  12
BRANCH  11  19
ATOM     19  O   UNL     1      -0.410  -2.512   3.912  0.00  0.00    -0.460 OA
BRANCH  19  20
ATOM     20  C   UNL     1      -0.540  -2.674   5.326  0.00  0.00    +0.339 C 
ATOM     21  C   UNL     1      -1.846  -2.029   5.796  0.00  0.00    +0.214 C 
ATOM     22  C   UNL     1      -2.007  -2.259   7.302  0.00  0.00    +0.180 C 
ATOM     23  C   UNL     1      -1.967  -3.764   7.585  0.00  0.00    +0.177 C 
ATOM     24  C   UNL     1      -0.656  -4.342   7.045  0.00  0.00    +0.179 C 
ATOM     25  O   UNL     1      -0.555  -4.067   5.647  0.00  0.00    -0.331 OA
BRANCH  23  26
ATOM     26  O   UNL     1      -2.045  -3.988   8.994  0.00  0.00    -0.386 OA
ATOM     27  H   UNL     1      -2.850  -3.643   9.403  0.00  0.00    +0.210 HD
ENDBRANCH  23  26
BRANCH  22  28
ATOM     28  O   UNL     1      -3.258  -1.723   7.737  0.00  0.00    -0.386 OA
ATOM     29  H   UNL     1      -3.353  -0.773   7.582  0.00  0.00    +0.210 HD
ENDBRANCH  22  28
BRANCH  21  30
ATOM     30  O   UNL     1      -1.810  -0.626   5.528  0.00  0.00    -0.383 OA
ATOM     31  H   UNL     1      -1.705  -0.408   4.591  0.00  0.00    +0.210 HD
ENDBRANCH  21  30
BRANCH  24  32
ATOM     32  C   UNL     1      -0.634  -5.855   7.270  0.00  0.00    +0.190 C 
BRANCH  32  33
ATOM     33  O   UNL     1       0.635  -6.378   6.874  0.00  0.00    -0.392 OA
ATOM     34  H   UNL     1       0.720  -7.334   6.989  0.00  0.00    +0.210 HD
ENDBRANCH  32  33
ENDBRANCH  24  32
ENDBRANCH  19  20
ENDBRANCH  11  19
TORSDOF 11
