REMARK  Name = ZINC12993013
REMARK  6 active torsions:
REMARK  status: ('A' for Active; 'I' for Inactive)
REMARK    1  A    between atoms: C_1  and  C_2
REMARK    2  A    between atoms: C_3  and  N_26
REMARK    3  A    between atoms: C_5  and  S_9
REMARK    4  A    between atoms: S_9  and  N_12
REMARK    5  A    between atoms: N_12  and  N_13
REMARK    6  A    between atoms: C_14  and  C_16
REMARK                            x       y       z     vdW  Elec       q    Type
REMARK                         _______ _______ _______ _____ _____    ______ ____
ROOT
ATOM      1  N   UNL     1       3.345   4.279  -1.485  0.00  0.00    -0.108 NA
ATOM      2  H   UNL     1       4.192   3.841  -1.669  0.00  0.00    +0.172 HD
ENDROOT
BRANCH   1   3
ATOM      3  N   UNL     1       2.627   4.880  -2.527  0.00  0.00    -0.227 N 
ATOM      4  C   UNL     1       3.218   5.809  -3.304  0.00  0.00    +0.265 C 
ATOM      5  O   UNL     1       4.375   6.127  -3.101  0.00  0.00    -0.268 OA
ATOM      6  H   UNL     1       1.705   4.627  -2.689  0.00  0.00    +0.171 HD
BRANCH   4   7
ATOM      7  C   UNL     1       2.466   6.438  -4.394  0.00  0.00    +0.076 A 
ATOM      8  C   UNL     1       2.879   7.402  -5.297  0.00  0.00    +0.024 A 
ATOM      9  C   UNL     1       1.969   7.835  -6.253  0.00  0.00    -0.036 A 
ATOM     10  C   UNL     1       0.731   7.292  -6.200  0.00  0.00    -0.006 A 
ATOM     11  S   UNL     1       0.780   6.156  -4.910  0.00  0.00    -0.088 S 
ATOM     12  C   UNL     1      -0.444   7.634  -7.089  0.00  0.00    +0.043 C 
ATOM     13  C   UNL     1      -0.107   7.129  -8.502  0.00  0.00    +0.005 C 
ATOM     14  C   UNL     1       0.830   8.091  -9.193  0.00  0.00    +0.001 C 
ATOM     15  C   UNL     1       2.250   8.124  -8.688  0.00  0.00    +0.005 C 
ATOM     16  C   UNL     1       2.364   8.840  -7.341  0.00  0.00    +0.036 C 
ENDBRANCH   4   7
ENDBRANCH   1   3
BRANCH   1  17
ATOM     17  S   UNL     1       2.750   4.315   0.060  0.00  0.00    +0.074 S 
ATOM     18  O   UNL     1       2.491   5.679   0.363  0.00  0.00    -0.152 OA
ATOM     19  O   UNL     1       3.617   3.511   0.848  0.00  0.00    -0.152 OA
BRANCH  17  24
ATOM     20  C   UNL     1      -2.595   1.516  -0.033  0.00  0.00    +0.047 C 
ATOM     21  C   UNL     1      -1.261   2.216  -0.007  0.00  0.00    -0.002 A 
ATOM     22  C   UNL     1      -0.107   1.496   0.241  0.00  0.00    +0.132 A 
ATOM     23  C   UNL     1       1.117   2.136   0.259  0.00  0.00    +0.061 A 
ATOM     24  C   UNL     1       1.189   3.499   0.036  0.00  0.00    +0.110 A 
ATOM     25  C   UNL     1       0.035   4.221  -0.206  0.00  0.00    +0.049 A 
ATOM     26  C   UNL     1      -1.191   3.580  -0.225  0.00  0.00    +0.048 A 
ATOM     27 CL   UNL     1      -2.640   4.486  -0.529  0.00  0.00    -0.083 Cl
BRANCH  22  28
ATOM     28  N   UNL     1      -0.182   0.037   0.479  0.00  0.00    +0.057 N 
ATOM     29  O   UNL     1      -1.117  -0.430   1.104  0.00  0.00    -0.126 OA
ATOM     30  O   UNL     1       0.691  -0.696   0.050  0.00  0.00    -0.126 OA
ENDBRANCH  22  28
ENDBRANCH  17  24
ENDBRANCH   1  17
TORSDOF 5
