REMARK  Name = ZINC41511968
REMARK  6 active torsions:
REMARK  status: ('A' for Active; 'I' for Inactive)
REMARK    1  A    between atoms: C_1  and  C_2
REMARK    2  A    between atoms: C_4  and  O_29
REMARK    3  A    between atoms: C_5  and  C_20
REMARK    4  A    between atoms: C_11  and  C_12
REMARK    5  A    between atoms: C_20  and  N_21
REMARK    6  A    between atoms: C_25  and  C_28
REMARK                            x       y       z     vdW  Elec       q    Type
REMARK                         _______ _______ _______ _____ _____    ______ ____
ROOT
ATOM      1  C   UNL     1      -1.608   1.436   0.270  0.00  0.00    +0.045 C 
ATOM      2  C   UNL     1      -1.290  -0.035   0.190  0.00  0.00    -0.033 A 
ATOM      3  C   UNL     1      -1.393  -0.693  -1.003  0.00  0.00    +0.050 A 
ATOM      4  C   UNL     1      -1.100  -2.052  -1.080  0.00  0.00    +0.122 A 
ATOM      5  C   UNL     1      -0.702  -2.752   0.048  0.00  0.00    +0.020 A 
ATOM      6  C   UNL     1      -0.592  -2.098   1.269  0.00  0.00    +0.145 A 
ATOM      7  C   UNL     1      -0.884  -0.725   1.332  0.00  0.00    +0.071 A 
ATOM      8  C   UNL     1      -0.673  -0.320   2.733  0.00  0.00    +0.232 C 
ATOM      9  O   UNL     1      -0.821   0.788   3.220  0.00  0.00    -0.283 OA
ATOM     10  C   UNL     1      -0.245  -1.552   3.413  0.00  0.00    +0.176 C 
ATOM     11  C   UNL     1       0.068  -1.676   4.728  0.00  0.00    +0.058 C 
ATOM     12  O   UNL     1      -0.231  -2.544   2.491  0.00  0.00    -0.451 OA
ENDROOT
BRANCH  11  13
ATOM     13  C   UNL     1       0.170  -0.479   5.574  0.00  0.00    -0.021 A 
ATOM     14  C   UNL     1      -0.317  -0.501   6.886  0.00  0.00    +0.009 A 
ATOM     15  C   UNL     1      -0.217   0.625   7.674  0.00  0.00    +0.020 A 
ATOM     16  C   UNL     1       0.363   1.778   7.170  0.00  0.00    +0.041 A 
ATOM     17  C   UNL     1       0.848   1.808   5.872  0.00  0.00    +0.020 A 
ATOM     18  C   UNL     1       0.760   0.688   5.074  0.00  0.00    +0.009 A 
ATOM     19 CL   UNL     1       0.483   3.192   8.169  0.00  0.00    -0.084 Cl
ENDBRANCH  11  13
BRANCH   4  20
ATOM     20  O   UNL     1      -1.206  -2.697  -2.269  0.00  0.00    -0.506 OA
ATOM     21  H   UNL     1      -0.393  -2.692  -2.793  0.00  0.00    +0.292 HD
ENDBRANCH   4  20
BRANCH   5  22
ATOM     22  C   UNL     1      -0.388  -4.223  -0.049  0.00  0.00    -0.036 C 
BRANCH  22  23
ATOM     23  N   UNL     1       1.036  -4.400  -0.362  0.00  0.00    +0.383 N 
ATOM     24  C   UNL     1       1.847  -3.895   0.753  0.00  0.00    -0.078 C 
ATOM     25  C   UNL     1       3.331  -4.003   0.399  0.00  0.00    -0.018 C 
ATOM     26  C   UNL     1       3.682  -5.470   0.134  0.00  0.00    -0.001 C 
ATOM     27  C   UNL     1       2.779  -6.008  -0.980  0.00  0.00    -0.031 C 
ATOM     28  C   UNL     1       1.315  -5.825  -0.574  0.00  0.00    -0.075 C 
ATOM     29  C   UNL     1       3.069  -7.494  -1.199  0.00  0.00    +0.005 C 
ATOM     30  H   UNL     1       1.262  -3.885  -1.200  0.00  0.00    -0.081 HD
ENDBRANCH  22  23
ENDBRANCH   5  22
TORSDOF 4
