REMARK  Name = ZINC53169395
REMARK  1 active torsions:
REMARK  status: ('A' for Active; 'I' for Inactive)
REMARK    1  A    between atoms: N_9  and  C_10
REMARK                            x       y       z     vdW  Elec       q    Type
REMARK                         _______ _______ _______ _____ _____    ______ ____
ROOT
ATOM      1  C   UNL     1      -0.043   1.363  -0.302  0.00  0.00    +0.031 A 
ATOM      2  C   UNL     1       1.123   2.052  -0.577  0.00  0.00    +0.043 A 
ATOM      3  C   UNL     1       2.327   1.375  -0.681  0.00  0.00    +0.161 A 
ATOM      4  C   UNL     1       2.370   0.001  -0.512  0.00  0.00    +0.184 A 
ATOM      5  C   UNL     1       1.203  -0.697  -0.236  0.00  0.00    +0.106 A 
ATOM      6  C   UNL     1      -0.009  -0.012  -0.131  0.00  0.00    +0.068 A 
ATOM      7  N   UNL     1      -0.987  -0.965   0.147  0.00  0.00    -0.334 N 
ATOM      8  C   UNL     1      -0.397  -2.173   0.208  0.00  0.00    +0.159 A 
ATOM      9  N   UNL     1       0.924  -2.045  -0.018  0.00  0.00    -0.314 N 
ATOM     10  S   UNL     1      -1.204  -3.649   0.526  0.00  0.00    -0.013 S 
ATOM     11  F   UNL     1       3.545  -0.658  -0.615  0.00  0.00    -0.200 F 
ATOM     12  F   UNL     1       3.462   2.056  -0.950  0.00  0.00    -0.202 F 
ATOM     13  H   UNL     1      -1.932  -0.787   0.275  0.00  0.00    +0.168 HD
ENDROOT
BRANCH   9  14
ATOM     14  C   UNL     1       1.901  -3.137  -0.034  0.00  0.00    +0.090 C 
ATOM     15  C   UNL     1       1.419  -4.384  -0.793  0.00  0.00    +0.025 C 
ATOM     16  C   UNL     1       2.074  -5.218   0.321  0.00  0.00    +0.004 C 
ATOM     17  C   UNL     1       1.881  -4.000   1.239  0.00  0.00    +0.025 C 
ENDBRANCH   9  14
TORSDOF 1
