REMARK  Name = ZINC00663550
REMARK  6 active torsions:
REMARK  status: ('A' for Active; 'I' for Inactive)
REMARK    1  A    between atoms: C_15  and  C_23
REMARK    2  A    between atoms: C_16  and  N_22
REMARK    3  A    between atoms: C_17  and  C_18
REMARK    4  A    between atoms: C_17  and  C_20
REMARK    5  A    between atoms: N_27  and  C_28
REMARK    6  A    between atoms: C_28  and  C_29
REMARK                            x       y       z     vdW  Elec       q    Type
REMARK                         _______ _______ _______ _____ _____    ______ ____
ROOT
ATOM      1  C   UNL     1      -0.043   1.315   4.286  0.00  0.00    +0.000 A 
ATOM      2  C   UNL     1       0.195   0.184   5.042  0.00  0.00    +0.002 A 
ATOM      3  C   UNL     1       0.057  -1.091   4.517  0.00  0.00    +0.024 A 
ATOM      4  C   UNL     1      -0.334  -1.194   3.181  0.00  0.00    +0.041 A 
ATOM      5  C   UNL     1      -0.574  -0.039   2.426  0.00  0.00    -0.008 A 
ATOM      6  C   UNL     1      -0.434   1.227   2.955  0.00  0.00    +0.006 A 
ATOM      7  C   UNL     1      -0.973  -0.505   1.062  0.00  0.00    +0.117 C 
ATOM      8  C   UNL     1       0.002  -0.004   0.002  0.00  0.00    +0.042 C 
ATOM      9  C   UNL     1       1.373  -0.615   0.165  0.00  0.00    +0.010 C 
ATOM     10  C   UNL     1       2.337   0.329   0.881  0.00  0.00    +0.005 C 
ATOM     11  C   UNL     1       2.439   1.626   0.067  0.00  0.00    +0.027 C 
ATOM     12  C   UNL     1       1.067   2.245   0.004  0.00  0.00    -0.022 C 
ATOM     13  C   UNL     1      -0.018   1.496   0.010  0.00  0.00    -0.028 C 
ATOM     14  C   UNL     1      -1.351   2.151   0.080  0.00  0.00    +0.074 C 
ATOM     15  C   UNL     1      -2.440   1.419   0.423  0.00  0.00    +0.055 C 
ATOM     16  C   UNL     1      -2.389  -0.051   0.720  0.00  0.00    +0.199 C 
ATOM     17  C   UNL     1      -0.919  -2.015   1.151  0.00  0.00    +0.234 C 
ATOM     18  O   UNL     1      -1.166  -2.800   0.260  0.00  0.00    -0.274 OA
ATOM     19  N   UNL     1      -0.544  -2.324   2.410  0.00  0.00    -0.266 N 
ENDROOT
BRANCH  15  20
ATOM     20  N   UNL     1      -3.648   2.053   0.501  0.00  0.00    -0.358 N 
ATOM     21  H   UNL     1      -4.550   1.487   0.777  0.00  0.00    +0.142 HD
ATOM     22  H   UNL     1      -3.718   3.130   0.288  0.00  0.00    +0.142 HD
ENDBRANCH  15  20
BRANCH  16  23
ATOM     23  C   UNL     1      -2.862  -0.796  -0.458  0.00  0.00    +0.092 C 
ATOM     24  N   UNL     1      -3.227  -1.371  -1.367  0.00  0.00    -0.194 NA
ENDBRANCH  16  23
BRANCH  16  25
ATOM     25  C   UNL     1      -3.275  -0.340   1.859  0.00  0.00    +0.092 C 
ATOM     26  N   UNL     1      -3.959  -0.563   2.739  0.00  0.00    -0.194 NA
ENDBRANCH  16  25
BRANCH  14  27
ATOM     27  C   UNL     1      -1.484   3.547  -0.213  0.00  0.00    +0.101 C 
ATOM     28  N   UNL     1      -1.590   4.654  -0.445  0.00  0.00    -0.191 NA
ENDBRANCH  14  27
BRANCH  19  29
ATOM     29  C   UNL     1      -0.379  -3.693   2.904  0.00  0.00    +0.148 C 
BRANCH  29  30
ATOM     30  C   UNL     1       1.040  -4.143   2.672  0.00  0.00    -0.030 A 
ATOM     31  C   UNL     1       1.380  -4.779   1.493  0.00  0.00    +0.006 A 
ATOM     32  C   UNL     1       2.683  -5.187   1.277  0.00  0.00    +0.020 A 
ATOM     33  C   UNL     1       3.645  -4.968   2.247  0.00  0.00    +0.041 A 
ATOM     34  C   UNL     1       3.303  -4.337   3.430  0.00  0.00    +0.020 A 
ATOM     35  C   UNL     1       2.001  -3.925   3.642  0.00  0.00    +0.006 A 
ATOM     36 CL   UNL     1       5.280  -5.487   1.981  0.00  0.00    -0.084 Cl
ENDBRANCH  29  30
ENDBRANCH  19  29
TORSDOF 6
