REMARK  Name = ZINC42337010
REMARK  4 active torsions:
REMARK  status: ('A' for Active; 'I' for Inactive)
REMARK    1  A    between atoms: C_1  and  C_2
REMARK    2  A    between atoms: C_3  and  N_11
REMARK    3  A    between atoms: C_7  and  N_8
REMARK    4  A    between atoms: N_11  and  C_12
REMARK                            x       y       z     vdW  Elec       q    Type
REMARK                         _______ _______ _______ _____ _____    ______ ____
ROOT
ATOM      1  C   UNL     1      -0.538   1.447   0.089  0.00  0.00    +0.048 C 
ATOM      2  C   UNL     1      -0.246  -0.031   0.040  0.00  0.00    +0.001 A 
ATOM      3  C   UNL     1      -0.348  -0.720  -1.163  0.00  0.00    +0.032 A 
ATOM      4  C   UNL     1      -0.078  -2.082  -1.204  0.00  0.00    +0.023 A 
ATOM      5  C   UNL     1       0.290  -2.746  -0.050  0.00  0.00    +0.004 A 
ATOM      6  C   UNL     1       0.389  -2.058   1.145  0.00  0.00    +0.033 A 
ATOM      7  C   UNL     1       0.127  -0.700   1.188  0.00  0.00    +0.131 A 
ENDROOT
BRANCH   7   8
ATOM      8  N   UNL     1       0.241   0.034   2.468  0.00  0.00    +0.057 N 
ATOM      9  O   UNL     1       0.675   1.163   2.481  0.00  0.00    -0.126 OA
ATOM     10  O   UNL     1      -0.101  -0.494   3.500  0.00  0.00    -0.126 OA
ENDBRANCH   7   8
BRANCH   3  11
ATOM     11  N   UNL     1      -0.720  -0.045  -2.327  0.00  0.00    -0.341 N 
ATOM     12  H   UNL     1      -0.908   0.906  -2.297  0.00  0.00    +0.146 HD
BRANCH  11  13
ATOM     13  C   UNL     1      -0.826  -0.773  -3.594  0.00  0.00    +0.072 C 
ATOM     14  C   UNL     1      -2.197  -1.438  -3.677  0.00  0.00    +0.035 C 
ATOM     15  C   UNL     1      -2.225  -2.432  -4.843  0.00  0.00    +0.105 C 
ATOM     16  S   UNL     1      -1.960  -1.519  -6.393  0.00  0.00    +0.022 S 
ATOM     17  O   UNL     1      -1.723  -2.439  -7.449  0.00  0.00    -0.257 OA
ATOM     18  C   UNL     1      -0.443  -0.575  -6.060  0.00  0.00    +0.105 C 
ATOM     19  C   UNL     1      -0.625   0.200  -4.751  0.00  0.00    +0.035 C 
ENDBRANCH  11  13
ENDBRANCH   3  11
TORSDOF 3
