REMARK  Name = ZINC20566596
REMARK  6 active torsions:
REMARK  status: ('A' for Active; 'I' for Inactive)
REMARK    1  A    between atoms: C_1  and  C_2
REMARK    2  A    between atoms: C_2  and  C_3
REMARK    3  A    between atoms: C_2  and  C_4
REMARK    4  A    between atoms: C_2  and  N_5
REMARK    5  A    between atoms: C_10  and  C_28
REMARK    6  A    between atoms: C_28  and  C_29
REMARK                            x       y       z     vdW  Elec       q    Type
REMARK                         _______ _______ _______ _____ _____    ______ ____
ROOT
ATOM      1  N   UNL     1       0.688  -0.476  -1.203  0.00  0.00    -0.236 N 
ATOM      2  C   UNL     1       0.091  -1.247  -2.120  0.00  0.00    +0.228 C 
ATOM      3  O   UNL     1      -1.055  -1.639  -2.067  0.00  0.00    -0.275 OA
ATOM      4  C   UNL     1       1.068  -1.552  -3.233  0.00  0.00    +0.107 C 
ATOM      5  C   UNL     1       1.418  -3.054  -3.208  0.00  0.00    +0.072 C 
ATOM      6  N   UNL     1       2.551  -3.167  -2.251  0.00  0.00    -0.295 NA
ATOM      7  C   UNL     1       3.365  -1.966  -2.516  0.00  0.00    +0.136 C 
ATOM      8  C   UNL     1       2.362  -0.817  -2.785  0.00  0.00    +0.122 C 
ATOM      9  C   UNL     1       1.960  -0.168  -1.480  0.00  0.00    +0.229 C 
ATOM     10  O   UNL     1       2.679   0.521  -0.789  0.00  0.00    -0.275 OA
ATOM     11  C   UNL     1       4.274  -1.649  -1.363  0.00  0.00    +0.005 A 
ATOM     12  C   UNL     1       4.056  -1.361  -0.033  0.00  0.00    +0.008 A 
ATOM     13  C   UNL     1       5.126  -1.107   0.806  0.00  0.00    +0.002 A 
ATOM     14  C   UNL     1       6.416  -1.142   0.307  0.00  0.00    +0.022 A 
ATOM     15  C   UNL     1       6.640  -1.430  -1.024  0.00  0.00    +0.062 A 
ATOM     16  C   UNL     1       5.567  -1.686  -1.876  0.00  0.00    +0.057 A 
ATOM     17  N   UNL     1       5.537  -1.996  -3.238  0.00  0.00    -0.282 N 
ATOM     18  C   UNL     1       4.281  -2.174  -3.691  0.00  0.00    +0.243 C 
ATOM     19  O   UNL     1       3.952  -2.448  -4.826  0.00  0.00    -0.273 OA
ATOM     20 CL   UNL     1       8.263  -1.471  -1.639  0.00  0.00    -0.082 Cl
ATOM     21  H   UNL     1       2.220  -3.176  -1.298  0.00  0.00    +0.124 HD
ATOM     22  H   UNL     1       6.329  -2.073  -3.794  0.00  0.00    +0.155 HD
ENDROOT
BRANCH   1  24
ATOM     23  C   UNL     1      -0.019   1.526   0.010  0.00  0.00    +0.031 C 
ATOM     24  C   UNL     1       0.002  -0.004   0.002  0.00  0.00    +0.036 C 
ATOM     25  C   UNL     1       0.742  -0.511   1.242  0.00  0.00    +0.031 C 
ATOM     26  C   UNL     1      -1.433  -0.534   0.013  0.00  0.00    +0.031 C 
ENDBRANCH   1  24
BRANCH   5  27
ATOM     27  C   UNL     1       0.221  -3.871  -2.717  0.00  0.00    +0.054 C 
BRANCH  27  28
ATOM     28  C   UNL     1       0.541  -5.341  -2.816  0.00  0.00    -0.046 A 
ATOM     29  C   UNL     1       0.251  -6.034  -3.977  0.00  0.00    +0.004 A 
ATOM     30  C   UNL     1       0.545  -7.382  -4.068  0.00  0.00    +0.000 A 
ATOM     31  C   UNL     1       1.128  -8.036  -2.999  0.00  0.00    +0.000 A 
ATOM     32  C   UNL     1       1.419  -7.342  -1.839  0.00  0.00    +0.000 A 
ATOM     33  C   UNL     1       1.129  -5.994  -1.749  0.00  0.00    +0.004 A 
ENDBRANCH  27  28
ENDBRANCH   5  27
TORSDOF 3
