REMARK  Name = ZINC33271456
REMARK  5 active torsions:
REMARK  status: ('A' for Active; 'I' for Inactive)
REMARK    1  A    between atoms: C_1  and  C_2
REMARK    2  A    between atoms: C_13  and  C_16
REMARK    3  A    between atoms: C_21  and  C_23
REMARK    4  A    between atoms: C_28  and  O_29
REMARK    5  A    between atoms: O_29  and  C_30
REMARK                            x       y       z     vdW  Elec       q    Type
REMARK                         _______ _______ _______ _____ _____    ______ ____
ROOT
ATOM      1  C   UNL     1       0.960   4.928  -0.913  0.00  0.00    +0.068 C 
ATOM      2  C   UNL     1       1.876   3.931  -0.251  0.00  0.00    +0.066 A 
ATOM      3  C   UNL     1       1.531   2.645   0.139  0.00  0.00    +0.023 A 
ATOM      4  C   UNL     1       2.642   2.056   0.685  0.00  0.00    +0.134 A 
ATOM      5  N   UNL     1       3.639   2.964   0.655  0.00  0.00    -0.198 N 
ATOM      6  N   UNL     1       3.137   4.130   0.053  0.00  0.00    -0.168 NA
ATOM      7  C   UNL     1       4.939   2.778   1.137  0.00  0.00    +0.176 A 
ATOM      8  C   UNL     1       5.994   3.538   0.598  0.00  0.00    +0.054 A 
ATOM      9  C   UNL     1       7.262   3.370   1.062  0.00  0.00    +0.054 A 
ATOM     10  C   UNL     1       7.500   2.421   2.074  0.00  0.00    +0.178 A 
ATOM     11  N   UNL     1       8.585   2.024   2.720  0.00  0.00    -0.128 NA
ATOM     12  N   UNL     1       8.263   1.112   3.569  0.00  0.00    -0.132 NA
ATOM     13  C   UNL     1       6.975   0.878   3.515  0.00  0.00    +0.152 A 
ATOM     14  N   UNL     1       6.449   1.692   2.575  0.00  0.00    -0.195 N 
ATOM     15  N   UNL     1       5.159   1.894   2.080  0.00  0.00    -0.144 NA
ATOM     16  C   UNL     1       6.216  -0.118   4.353  0.00  0.00    +0.090 C 
ATOM     17  N   UNL     1       2.617   0.750   1.171  0.00  0.00    -0.270 N 
ATOM     18  C   UNL     1       1.541  -0.014   0.888  0.00  0.00    +0.219 C 
ATOM     19  O   UNL     1       1.420  -1.087   1.439  0.00  0.00    -0.275 OA
ATOM     20  C   UNL     1       0.487   0.425  -0.090  0.00  0.00    +0.109 C 
ATOM     21  C   UNL     1       0.210   1.927   0.029  0.00  0.00    +0.066 C 
ATOM     22  H   UNL     1       3.460   0.369   1.766  0.00  0.00    +0.156 HD
ENDROOT
BRANCH  21  23
ATOM     23  C   UNL     1      -0.617   2.194   1.261  0.00  0.00    +0.002 A 
ATOM     24  C   UNL     1      -0.135   1.842   2.507  0.00  0.00    +0.008 A 
ATOM     25  C   UNL     1      -0.891   2.091   3.637  0.00  0.00    +0.001 A 
ATOM     26  C   UNL     1      -2.135   2.684   3.523  0.00  0.00    +0.004 A 
ATOM     27  C   UNL     1      -2.624   3.033   2.279  0.00  0.00    +0.046 A 
ATOM     28  C   UNL     1      -1.865   2.788   1.143  0.00  0.00    +0.125 A 
BRANCH  28  29
ATOM     29  O   UNL     1      -2.343   3.131  -0.082  0.00  0.00    -0.489 OA
BRANCH  29  30
ATOM     30  C   UNL     1      -3.578   3.849  -0.119  0.00  0.00    +0.173 C 
ATOM     31  C   UNL     1      -4.763   2.861  -0.123  0.00  0.00    +0.044 C 
ATOM     32  C   UNL     1      -5.804   3.520  -1.062  0.00  0.00    +0.004 C 
ATOM     33  C   UNL     1      -4.919   4.137  -2.174  0.00  0.00    +0.004 C 
ATOM     34  C   UNL     1      -3.677   4.660  -1.423  0.00  0.00    +0.044 C 
ENDBRANCH  29  30
ENDBRANCH  28  29
ENDBRANCH  21  23
TORSDOF 3
