REMARK  Name = ZINC47383663
REMARK  8 active torsions:
REMARK  status: ('A' for Active; 'I' for Inactive)
REMARK    1  A    between atoms: C_1  and  C_2
REMARK    2  A    between atoms: C_5  and  N_10
REMARK    3  A    between atoms: C_6  and  C_9
REMARK    4  A    between atoms: C_7  and  O_8
REMARK    5  A    between atoms: N_10  and  S_11
REMARK    6  A    between atoms: S_11  and  C_14
REMARK    7  A    between atoms: C_21  and  C_27
REMARK    8  A    between atoms: C_24  and  C_26
REMARK                            x       y       z     vdW  Elec       q    Type
REMARK                         _______ _______ _______ _____ _____    ______ ____
ROOT
ATOM      1  S   UNL     1       0.778  -4.967  -1.261  0.00  0.00    +0.072 S 
ATOM      2  O   UNL     1       0.553  -6.352  -1.038  0.00  0.00    -0.150 OA
ATOM      3  O   UNL     1       0.364  -4.310  -2.451  0.00  0.00    -0.150 OA
ENDROOT
BRANCH   1   4
ATOM      4  C   UNL     1       2.516  -4.710  -1.122  0.00  0.00    +0.109 A 
ATOM      5  C   UNL     1       3.108  -3.624  -1.742  0.00  0.00    +0.030 A 
ATOM      6  C   UNL     1       4.467  -3.421  -1.635  0.00  0.00    +0.026 A 
ATOM      7  C   UNL     1       5.256  -4.309  -0.901  0.00  0.00    +0.040 A 
ATOM      8  C   UNL     1       4.654  -5.393  -0.284  0.00  0.00    -0.022 A 
ATOM      9  C   UNL     1       3.290  -5.590  -0.389  0.00  0.00    +0.034 A 
ATOM     10  C   UNL     1       5.718  -6.189   0.438  0.00  0.00    +0.059 C 
ATOM     11  C   UNL     1       7.024  -5.427   0.162  0.00  0.00    +0.083 C 
ATOM     12  N   UNL     1       6.635  -4.286  -0.671  0.00  0.00    -0.268 N 
ATOM     13  C   UNL     1       7.483  -3.351  -1.145  0.00  0.00    +0.217 C 
ATOM     14  O   UNL     1       7.052  -2.396  -1.756  0.00  0.00    -0.276 OA
ATOM     15  C   UNL     1       8.966  -3.493  -0.916  0.00  0.00    +0.109 C 
ATOM     16  C   UNL     1       8.012  -6.322  -0.590  0.00  0.00    +0.029 C 
ENDBRANCH   1   4
BRANCH   1  17
ATOM     17  N   UNL     1       0.062  -4.163  -0.003  0.00  0.00    -0.216 N 
ATOM     18  H   UNL     1      -0.469  -4.651   0.645  0.00  0.00    +0.174 HD
BRANCH  17  23
ATOM     19  C   UNL     1       0.715   1.451   0.505  0.00  0.00    +0.047 C 
ATOM     20  C   UNL     1       0.541  -0.040   0.371  0.00  0.00    -0.009 A 
ATOM     21  C   UNL     1       0.444  -0.614  -0.882  0.00  0.00    +0.009 A 
ATOM     22  C   UNL     1       0.285  -1.980  -1.009  0.00  0.00    +0.025 A 
ATOM     23  C   UNL     1       0.223  -2.781   0.125  0.00  0.00    +0.054 A 
ATOM     24  C   UNL     1       0.321  -2.207   1.384  0.00  0.00    +0.014 A 
ATOM     25  C   UNL     1       0.485  -0.836   1.507  0.00  0.00    +0.124 A 
ATOM     26  C   UNL     1       0.254  -3.072   2.616  0.00  0.00    +0.049 C 
BRANCH  25  27
ATOM     27  O   UNL     1       0.587  -0.271   2.739  0.00  0.00    -0.506 OA
ATOM     28  H   UNL     1      -0.261  -0.008   3.122  0.00  0.00    +0.292 HD
ENDBRANCH  25  27
ENDBRANCH  17  23
ENDBRANCH   1  17
TORSDOF 4
