REMARK  Name = ZINC67320054
REMARK  8 active torsions:
REMARK  status: ('A' for Active; 'I' for Inactive)
REMARK    1  A    between atoms: C_1  and  C_2
REMARK    2  A    between atoms: C_2  and  C_4
REMARK    3  A    between atoms: C_2  and  N_15
REMARK    4  A    between atoms: N_18  and  C_19
REMARK    5  A    between atoms: C_23  and  O_25
REMARK    6  A    between atoms: O_25  and  C_26
REMARK    7  A    between atoms: C_26  and  C_27
REMARK    8  A    between atoms: C_27  and  C_29
REMARK                            x       y       z     vdW  Elec       q    Type
REMARK                         _______ _______ _______ _____ _____    ______ ____
ROOT
ATOM      1  N   UNL     1      -1.370  -0.517   0.012  0.00  0.00    -0.293 N 
ATOM      2  C   UNL     1      -2.051  -0.641  -1.144  0.00  0.00    +0.304 C 
ATOM      3  O   UNL     1      -1.526  -0.331  -2.196  0.00  0.00    -0.252 OA
ATOM      4  N   UNL     1      -3.315  -1.109  -1.135  0.00  0.00    -0.269 N 
ATOM      5  H   UNL     1      -1.790  -0.764   0.851  0.00  0.00    +0.151 HD
ATOM      6  H   UNL     1      -3.711  -1.420  -0.306  0.00  0.00    +0.156 HD
ENDROOT
BRANCH   4   7
ATOM      7  C   UNL     1      -4.056  -1.148  -2.322  0.00  0.00    +0.038 A 
ATOM      8  C   UNL     1      -5.423  -0.902  -2.296  0.00  0.00    +0.023 A 
ATOM      9  C   UNL     1      -6.154  -0.940  -3.468  0.00  0.00    +0.005 A 
ATOM     10  C   UNL     1      -5.528  -1.222  -4.667  0.00  0.00    +0.046 A 
ATOM     11  C   UNL     1      -4.163  -1.468  -4.699  0.00  0.00    +0.123 A 
ATOM     12  C   UNL     1      -3.425  -1.425  -3.526  0.00  0.00    +0.069 A 
BRANCH  11  13
ATOM     13  O   UNL     1      -3.549  -1.746  -5.879  0.00  0.00    -0.488 OA
BRANCH  13  14
ATOM     14  C   UNL     1      -4.370  -1.768  -7.048  0.00  0.00    +0.259 C 
BRANCH  14  15
ATOM     15  C   UNL     1      -3.522  -2.091  -8.251  0.00  0.00    -0.043 C 
ATOM     16  C   UNL     1      -2.236  -2.298  -8.110  0.00  0.00    +0.011 C 
ATOM     17  C   UNL     1      -4.153  -2.174  -9.617  0.00  0.00    +0.042 C 
ENDBRANCH  14  15
ENDBRANCH  13  14
ENDBRANCH  11  13
ENDBRANCH   4   7
BRANCH   1  19
ATOM     18  C   UNL     1      -0.020   1.522   0.021  0.00  0.00    +0.033 C 
ATOM     19  C   UNL     1       0.003  -0.008   0.002  0.00  0.00    +0.102 C 
BRANCH  19  20
ATOM     20  C   UNL     1       0.736  -0.515   1.218  0.00  0.00    -0.025 A 
ATOM     21  C   UNL     1       0.086  -0.579   2.437  0.00  0.00    +0.009 A 
ATOM     22  C   UNL     1       0.751  -1.044   3.557  0.00  0.00    +0.048 A 
ATOM     23  C   UNL     1       2.071  -1.446   3.458  0.00  0.00    +0.142 A 
ATOM     24  C   UNL     1       2.726  -1.381   2.229  0.00  0.00    +0.076 A 
ATOM     25  C   UNL     1       2.053  -0.920   1.109  0.00  0.00    +0.032 A 
ATOM     26  N   UNL     1       4.065  -1.789   2.142  0.00  0.00    -0.280 N 
ATOM     27  C   UNL     1       4.592  -2.521   3.148  0.00  0.00    +0.255 C 
ATOM     28  O   UNL     1       5.756  -2.859   3.110  0.00  0.00    -0.272 OA
ATOM     29  C   UNL     1       3.728  -2.916   4.318  0.00  0.00    +0.325 C 
ATOM     30  O   UNL     1       2.740  -1.907   4.548  0.00  0.00    -0.481 OA
ATOM     31  H   UNL     1       4.604  -1.550   1.372  0.00  0.00    +0.155 HD
ENDBRANCH  19  20
ENDBRANCH   1  19
TORSDOF 6
