REMARK  Name = ZINC09340106
REMARK  7 active torsions:
REMARK  status: ('A' for Active; 'I' for Inactive)
REMARK    1  A    between atoms: C_1  and  C_2
REMARK    2  A    between atoms: C_12  and  C_13
REMARK    3  A    between atoms: C_13  and  C_14
REMARK    4  A    between atoms: N_16  and  CA_17
REMARK    5  A    between atoms: CA_17  and  CB_19
REMARK    6  A    between atoms: CA_17  and  C_20
REMARK    7  A    between atoms: C_20  and  O_21
REMARK                            x       y       z     vdW  Elec       q    Type
REMARK                         _______ _______ _______ _____ _____    ______ ____
ROOT
ATOM      1  C   UNK A   0       0.376   9.953  -2.788  0.00  0.00    +0.045 C 
ATOM      2  C   UNK A   0       1.433   9.067  -2.181  0.00  0.00    -0.029 A 
ATOM      3  C   UNK A   0       1.181   7.645  -1.936  0.00  0.00    +0.021 A 
ATOM      4  C   UNK A   0      -0.052   7.068  -2.254  0.00  0.00    +0.019 A 
ATOM      5  C   UNK A   0      -0.269   5.737  -2.022  0.00  0.00    -0.005 A 
ATOM      6  C   UNK A   0       0.738   4.950  -1.472  0.00  0.00    +0.128 A 
ATOM      7  C   UNK A   0       1.966   5.511  -1.147  0.00  0.00    +0.093 A 
ATOM      8  C   UNK A   0       2.202   6.859  -1.372  0.00  0.00    +0.143 A 
ATOM      9  O   UNK A   0       3.393   7.405  -1.056  0.00  0.00    -0.422 OA
ATOM     10  C   UNK A   0       3.619   8.703  -1.278  0.00  0.00    +0.341 A 
ATOM     11  O   UNK A   0       4.705   9.165  -0.980  0.00  0.00    -0.245 OA
ATOM     12  C   UNK A   0       2.654   9.560  -1.843  0.00  0.00    +0.049 A 
ATOM     13  O   UNK A   0       0.560   3.623  -1.246  0.00  0.00    -0.485 OA
ATOM     14  C   UNK A   0      -0.775   3.122  -1.221  0.00  0.00    +0.111 C 
ATOM     15  C   UNK A   0      -0.753   1.593  -1.232  0.00  0.00    +0.048 C 
ATOM     16  C   UNK A   0      -0.013   1.086   0.008  0.00  0.00    +0.004 C 
ATOM     17  C   UNK A   0      -0.729   1.579   1.267  0.00  0.00    +0.000 C 
ATOM     18  C   UNK A   0      -0.750   3.109   1.276  0.00  0.00    +0.004 C 
ATOM     19  C   UNK A   0      -1.490   3.617   0.036  0.00  0.00    +0.048 C 
ATOM     20  C   UNK A   0      -1.512   3.631  -2.465  0.00  0.00    +0.053 C 
ATOM     21  C   UNK A   0      -1.615   5.156  -2.374  0.00  0.00    +0.043 C 
ENDROOT
BRANCH  12  22
ATOM     22  C   UNK A   0       2.974  11.015  -2.072  0.00  0.00    +0.138 C 
BRANCH  22  23
ATOM     23  C   UNK A   0       3.565  11.189  -3.447  0.00  0.00    +0.218 C 
ATOM     24  O   UNK A   0       3.712  10.226  -4.170  0.00  0.00    -0.275 OA
ATOM     25  N   ALA A   1       3.930  12.414  -3.873  0.00  0.00    -0.310 N 
ATOM     26  H   ALA A   1       3.812  13.184  -3.295  0.00  0.00    +0.149 HD
BRANCH  25  27
ATOM     27  CA  ALA A   1       4.505  12.584  -5.210  0.00  0.00    +0.095 C 
ATOM     28  CB  ALA A   1       3.378  12.723  -6.236  0.00  0.00    +0.030 C 
BRANCH  27  29
ATOM     29  C   ALA A   1       5.376  13.841  -5.235  0.00  0.00    +0.177 C 
BRANCH  29  30
ATOM     30  O   ALA A   1       4.556  14.993  -5.028  0.00  0.00    -0.393 OA
ATOM     31  H   ALA A   1       5.043  15.828  -5.031  0.00  0.00    +0.209 HD
ENDBRANCH  29  30
ENDBRANCH  27  29
ENDBRANCH  25  27
ENDBRANCH  22  23
ENDBRANCH  12  22
TORSDOF 5
