REMARK  Name = ZINC61050213
REMARK  6 active torsions:
REMARK  status: ('A' for Active; 'I' for Inactive)
REMARK    1  A    between atoms: C_1  and  C_2
REMARK    2  A    between atoms: C_2  and  C_3
REMARK    3  A    between atoms: C_2  and  N_12
REMARK    4  A    between atoms: N_8  and  C_9
REMARK    5  A    between atoms: C_15  and  C_18
REMARK    6  A    between atoms: C_18  and  C_19
REMARK                            x       y       z     vdW  Elec       q    Type
REMARK                         _______ _______ _______ _____ _____    ______ ____
ROOT
ATOM      1  N   UNL     1       0.815  -0.909  -0.821  0.00  0.00    +0.387 N 
ATOM      2  C   UNL     1       0.662  -2.284  -0.331  0.00  0.00    -0.078 C 
ATOM      3  C   UNL     1       1.442  -3.242  -1.234  0.00  0.00    -0.015 C 
ATOM      4  C   UNL     1       2.924  -2.855  -1.220  0.00  0.00    -0.006 C 
ATOM      5  C   UNL     1       3.064  -1.395  -1.662  0.00  0.00    -0.015 C 
ATOM      6  C   UNL     1       2.224  -0.506  -0.743  0.00  0.00    -0.078 C 
ATOM      7  H   UNL     1       0.505  -0.860  -1.780  0.00  0.00    -0.081 HD
ENDROOT
BRANCH   1   9
ATOM      8  C   UNL     1       0.145   1.427  -0.520  0.00  0.00    -0.004 C 
ATOM      9  C   UNL     1       0.002  -0.004   0.002  0.00  0.00    +0.017 C 
BRANCH   9  10
ATOM     10  C   UNL     1      -1.444  -0.422  -0.069  0.00  0.00    +0.207 C 
ATOM     11  O   UNL     1      -1.865  -0.982  -1.059  0.00  0.00    -0.277 OA
ATOM     12  N   UNL     1      -2.269  -0.175   0.967  0.00  0.00    -0.242 N 
ATOM     13  C   UNL     1      -3.562  -0.549   0.903  0.00  0.00    +0.306 C 
ATOM     14  O   UNL     1      -3.984  -1.110  -0.089  0.00  0.00    -0.252 OA
ATOM     15  N   UNL     1      -4.387  -0.302   1.940  0.00  0.00    -0.296 N 
ATOM     16  H   UNL     1      -1.932   0.273   1.759  0.00  0.00    +0.159 HD
ATOM     17  H   UNL     1      -4.050   0.146   2.732  0.00  0.00    +0.151 HD
BRANCH  15  18
ATOM     18  C   UNL     1      -5.793  -0.708   1.871  0.00  0.00    +0.075 C 
ATOM     19  C   UNL     1      -6.843   0.290   2.362  0.00  0.00    +0.024 C 
ATOM     20  C   UNL     1      -6.523  -0.955   3.192  0.00  0.00    +0.024 C 
ENDBRANCH  15  18
ENDBRANCH   9  10
ENDBRANCH   1   9
BRANCH   4  21
ATOM     21  C   UNL     1       3.698  -3.758  -2.183  0.00  0.00    +0.099 C 
BRANCH  21  22
ATOM     22  C   UNL     1       5.171  -3.459  -2.077  0.00  0.00    +0.216 C 
ATOM     23  O   UNL     1       5.563  -2.608  -1.308  0.00  0.00    -0.276 OA
ATOM     24  N   UNL     1       6.053  -4.138  -2.838  0.00  0.00    -0.301 N 
ATOM     25  C   UNL     1       5.715  -5.186  -3.812  0.00  0.00    +0.108 C 
ATOM     26  C   UNL     1       7.040  -5.691  -4.420  0.00  0.00    +0.020 C 
ATOM     27  C   UNL     1       8.088  -5.297  -3.345  0.00  0.00    +0.020 C 
ATOM     28  C   UNL     1       7.514  -3.948  -2.835  0.00  0.00    +0.108 C 
ENDBRANCH  21  22
ENDBRANCH   4  21
TORSDOF 5
