REMARK  Name = ZINC20577202
REMARK  6 active torsions:
REMARK  status: ('A' for Active; 'I' for Inactive)
REMARK    1  A    between atoms: C_1  and  C_2
REMARK    2  A    between atoms: C_2  and  C_3
REMARK    3  A    between atoms: C_6  and  N_9
REMARK    4  A    between atoms: C_11  and  C_16
REMARK    5  A    between atoms: C_22  and  C_24
REMARK    6  A    between atoms: C_29  and  N_30
REMARK                            x       y       z     vdW  Elec       q    Type
REMARK                         _______ _______ _______ _____ _____    ______ ____
ROOT
ATOM      1  C   UNL     1       4.258  -0.998   0.906  0.00  0.00    +0.109 A 
ATOM      2  N   UNL     1       3.147  -1.598   0.530  0.00  0.00    -0.144 NA
ATOM      3  N   UNL     1       2.058  -0.975   0.398  0.00  0.00    -0.126 NA
ATOM      4  C   UNL     1       1.968   0.330   0.618  0.00  0.00    +0.188 A 
ATOM      5  S   UNL     1       3.661   0.681   1.085  0.00  0.00    -0.035 S 
ATOM      6  N   UNL     1       0.873   1.179   0.521  0.00  0.00    -0.259 N 
ATOM      7  C   UNL     1      -0.327   0.692   0.146  0.00  0.00    +0.252 C 
ATOM      8  O   UNL     1      -0.450  -0.490  -0.108  0.00  0.00    -0.270 OA
ATOM      9  H   UNL     1       0.984   2.249   0.751  0.00  0.00    +0.157 HD
ENDROOT
BRANCH   7  10
ATOM     10  C   UNL     1      -1.490   1.597   0.037  0.00  0.00    +0.067 A 
ATOM     11  C   UNL     1      -1.863   2.393   1.122  0.00  0.00    +0.017 A 
ATOM     12  C   UNL     1      -2.950   3.234   1.014  0.00  0.00    +0.021 A 
ATOM     13  C   UNL     1      -3.670   3.292  -0.168  0.00  0.00    +0.043 A 
ATOM     14  C   UNL     1      -3.305   2.506  -1.247  0.00  0.00    +0.053 A 
ATOM     15  C   UNL     1      -2.217   1.664  -1.153  0.00  0.00    +0.140 A 
ATOM     16 CL   UNL     1      -5.037   4.355  -0.295  0.00  0.00    -0.083 Cl
BRANCH  15  17
ATOM     17  N   UNL     1      -1.824   0.828  -2.310  0.00  0.00    +0.057 N 
ATOM     18  O   UNL     1      -2.528   0.793  -3.303  0.00  0.00    -0.126 OA
ATOM     19  O   UNL     1      -0.796   0.176  -2.269  0.00  0.00    -0.126 OA
ENDBRANCH  15  17
ENDBRANCH   7  10
BRANCH   1  22
ATOM     20  N   UNL     1       6.918  -3.426   0.325  0.00  0.00    -0.271 N 
ATOM     21  C   UNL     1       6.155  -2.266  -0.150  0.00  0.00    +0.124 C 
ATOM     22  C   UNL     1       5.638  -1.563   1.124  0.00  0.00    +0.073 C 
ATOM     23  C   UNL     1       5.604  -2.730   2.138  0.00  0.00    +0.108 C 
ATOM     24  C   UNL     1       6.624  -3.713   1.605  0.00  0.00    +0.220 C 
ATOM     25  O   UNL     1       7.106  -4.627   2.241  0.00  0.00    -0.275 OA
BRANCH  20  29
ATOM     26  C   UNL     1       9.644  -5.558  -1.995  0.00  0.00    -0.048 A 
ATOM     27  C   UNL     1       9.063  -4.407  -2.496  0.00  0.00    +0.005 A 
ATOM     28  C   UNL     1       8.160  -3.698  -1.729  0.00  0.00    +0.024 A 
ATOM     29  C   UNL     1       7.833  -4.142  -0.454  0.00  0.00    +0.036 A 
ATOM     30  C   UNL     1       8.422  -5.296   0.047  0.00  0.00    +0.024 A 
ATOM     31  C   UNL     1       9.321  -6.003  -0.727  0.00  0.00    +0.005 A 
BRANCH  26  33
ATOM     32  C   UNL     1      12.043  -5.806  -2.568  0.00  0.00    +0.009 C 
ATOM     33  C   UNL     1      10.630  -6.329  -2.834  0.00  0.00    +0.032 C 
ENDBRANCH  26  33
ENDBRANCH  20  29
ENDBRANCH   1  22
TORSDOF 5
