REMARK  Name = ZINC17076902
REMARK  7 active torsions:
REMARK  status: ('A' for Active; 'I' for Inactive)
REMARK    1  A    between atoms: C_1  and  C_2
REMARK    2  A    between atoms: C_2  and  O_3
REMARK    3  A    between atoms: O_3  and  C_4
REMARK    4  A    between atoms: C_4  and  C_6
REMARK    5  A    between atoms: C_7  and  N_23
REMARK    6  A    between atoms: C_10  and  C_14
REMARK    7  A    between atoms: C_11  and  C_13
REMARK                            x       y       z     vdW  Elec       q    Type
REMARK                         _______ _______ _______ _____ _____    ______ ____
ROOT
ATOM      1  C   UNL     1      -2.185   3.009   5.244  0.00  0.00    +0.209 A 
ATOM      2  C   UNL     1      -1.034   2.607   4.560  0.00  0.00    +0.155 A 
ATOM      3  N   UNL     1      -1.159   2.235   3.248  0.00  0.00    -0.196 N 
ATOM      4  C   UNL     1      -2.402   2.273   2.665  0.00  0.00    +0.187 A 
ATOM      5  C   UNL     1      -2.238   1.854   1.343  0.00  0.00    +0.051 A 
ATOM      6  C   UNL     1      -0.879   1.563   1.165  0.00  0.00    +0.070 A 
ATOM      7  N   UNL     1      -0.245   1.792   2.289  0.00  0.00    -0.168 NA
ATOM      8  C   UNL     1      -0.247   1.073  -0.113  0.00  0.00    +0.068 C 
ATOM      9  N   UNL     1      -3.468   2.667   3.374  0.00  0.00    -0.128 NA
ATOM     10  N   UNL     1      -3.366   3.019   4.606  0.00  0.00    -0.137 NA
ENDROOT
BRANCH   5  11
ATOM     11  C   UNL     1      -3.303   1.736   0.321  0.00  0.00    -0.012 A 
ATOM     12  C   UNL     1      -3.973   2.875  -0.127  0.00  0.00    +0.010 A 
ATOM     13  C   UNL     1      -4.961   2.760  -1.083  0.00  0.00    +0.016 A 
ATOM     14  C   UNL     1      -5.295   1.516  -1.591  0.00  0.00    +0.018 A 
ATOM     15  C   UNL     1      -4.637   0.382  -1.147  0.00  0.00    +0.016 A 
ATOM     16  C   UNL     1      -3.644   0.486  -0.195  0.00  0.00    +0.010 A 
ATOM     17 BR   UNL     1      -6.654   1.366  -2.897  0.00  0.00    -0.050 Br
ENDBRANCH   5  11
BRANCH   2  18
ATOM     18  N   UNL     1       0.184   2.586   5.183  0.00  0.00    -0.341 N 
ATOM     19  H   UNL     1       0.998   2.663   4.661  0.00  0.00    +0.144 HD
ATOM     20  H   UNL     1       0.234   2.494   6.148  0.00  0.00    +0.144 HD
ENDBRANCH   2  18
BRANCH   1  21
ATOM     21  C   UNL     1      -2.102   3.417   6.652  0.00  0.00    +0.363 C 
ATOM     22  O   UNL     1      -1.018   3.504   7.197  0.00  0.00    -0.243 OA
BRANCH  21  23
ATOM     23  O   UNL     1      -3.227   3.695   7.341  0.00  0.00    -0.460 OA
BRANCH  23  25
ATOM     24  C   UNL     1      -4.446   4.364   9.341  0.00  0.00    +0.048 C 
ATOM     25  C   UNL     1      -3.070   4.092   8.729  0.00  0.00    +0.229 C 
ENDBRANCH  23  25
ENDBRANCH  21  23
ENDBRANCH   1  21
TORSDOF 5
