REMARK  Name = ZINC39516100
REMARK  4 active torsions:
REMARK  status: ('A' for Active; 'I' for Inactive)
REMARK    1  A    between atoms: C_6  and  C_11
REMARK    2  A    between atoms: C_16  and  C_17
REMARK    3  A    between atoms: N_20  and  C_23
REMARK    4  A    between atoms: C_23  and  C_24
REMARK                            x       y       z     vdW  Elec       q    Type
REMARK                         _______ _______ _______ _____ _____    ______ ____
ROOT
ATOM      1  C   UNL     1       5.008  -2.700  -0.060  0.00  0.00    +0.108 C 
ATOM      2  C   UNL     1       5.087  -3.641  -1.246  0.00  0.00    +0.121 C 
ATOM      3  N   UNL     1       5.218  -4.827  -0.750  0.00  0.00    -0.161 NA
ATOM      4  N   UNL     1       5.239  -4.821   0.641  0.00  0.00    -0.158 NA
ATOM      5  C   UNL     1       5.125  -3.627   1.133  0.00  0.00    +0.057 C 
ENDROOT
BRANCH   1  11
ATOM      6  C   UNL     1      -0.016   1.357   0.009  0.00  0.00    +0.001 A 
ATOM      7  C   UNL     1       1.169   2.091   0.002  0.00  0.00    +0.001 A 
ATOM      8  C   UNL     1       2.378   1.468  -0.013  0.00  0.00    +0.008 A 
ATOM      9  C   UNL     1       2.438   0.063  -0.021  0.00  0.00    -0.018 A 
ATOM     10  C   UNL     1       3.668  -0.615  -0.036  0.00  0.00    +0.013 A 
ATOM     11  C   UNL     1       3.687  -1.976  -0.043  0.00  0.00    -0.033 A 
ATOM     12  C   UNL     1       2.502  -2.710  -0.036  0.00  0.00    +0.005 A 
ATOM     13  C   UNL     1       1.292  -2.087  -0.021  0.00  0.00    +0.009 A 
ATOM     14  C   UNL     1       1.233  -0.683  -0.013  0.00  0.00    -0.018 A 
ATOM     15  C   UNL     1       0.002  -0.004   0.002  0.00  0.00    +0.008 A 
ENDBRANCH   1  11
BRANCH   5  16
ATOM     16  C   UNL     1       5.110  -3.239   2.590  0.00  0.00    +0.033 C 
ATOM     17  C   UNL     1       6.348  -2.395   2.907  0.00  0.00    -0.009 C 
ATOM     18  C   UNL     1       6.368  -2.071   4.402  0.00  0.00    -0.078 C 
ATOM     19  N   UNL     1       6.412  -3.318   5.176  0.00  0.00    +0.380 N 
ATOM     20  C   UNL     1       5.194  -4.100   4.931  0.00  0.00    -0.078 C 
ATOM     21  C   UNL     1       5.129  -4.502   3.456  0.00  0.00    -0.009 C 
ATOM     22  H   UNL     1       7.218  -3.857   4.897  0.00  0.00    -0.082 HD
BRANCH  19  23
ATOM     23  C   UNL     1       6.510  -3.002   6.607  0.00  0.00    -0.075 C 
BRANCH  23  24
ATOM     24  C   UNL     1       6.682  -4.295   7.405  0.00  0.00    -0.028 C 
ATOM     25  C   UNL     1       5.573  -4.671   8.389  0.00  0.00    +0.002 C 
ATOM     26  C   UNL     1       6.921  -4.170   8.911  0.00  0.00    +0.002 C 
ENDBRANCH  23  24
ENDBRANCH  19  23
ENDBRANCH   5  16
TORSDOF 4
