REMARK  Name = ZINC03610772
REMARK  7 active torsions:
REMARK  status: ('A' for Active; 'I' for Inactive)
REMARK    1  A    between atoms: C_1  and  C_2
REMARK    2  A    between atoms: C_2  and  C_21
REMARK    3  A    between atoms: N_5  and  C_9
REMARK    4  A    between atoms: C_9  and  C_10
REMARK    5  A    between atoms: N_12  and  C_13
REMARK    6  A    between atoms: C_13  and  C_14
REMARK    7  A    between atoms: C_14  and  C_15
REMARK                            x       y       z     vdW  Elec       q    Type
REMARK                         _______ _______ _______ _____ _____    ______ ____
ROOT
ATOM      1  C   UNL     1       0.770  -4.761  -1.244  0.00  0.00    +0.047 C 
ATOM      2  C   UNL     1      -0.582  -4.361  -0.650  0.00  0.00    +0.136 C 
ATOM      3  C   UNL     1      -0.787  -2.861  -0.733  0.00  0.00    +0.251 C 
ATOM      4  O   UNL     1      -0.837  -2.183  -1.737  0.00  0.00    -0.272 OA
ATOM      5  N   UNL     1      -0.901  -2.438   0.541  0.00  0.00    -0.215 N 
ATOM      6  C   UNL     1      -0.805  -3.452   1.409  0.00  0.00    +0.310 C 
ATOM      7  O   UNL     1      -0.880  -3.319   2.614  0.00  0.00    -0.252 OA
ATOM      8  N   UNL     1      -0.615  -4.635   0.797  0.00  0.00    -0.281 N 
ATOM      9  H   UNL     1      -0.517  -5.500   1.225  0.00  0.00    +0.152 HD
ENDROOT
BRANCH   2  10
ATOM     10  C   UNL     1      -1.703  -5.084  -1.352  0.00  0.00    -0.008 A 
ATOM     11  C   UNL     1      -2.531  -5.906  -0.651  0.00  0.00    +0.007 A 
ATOM     12  C   UNL     1      -3.576  -6.578  -1.282  0.00  0.00    +0.001 A 
ATOM     13  C   UNL     1      -3.791  -6.442  -2.619  0.00  0.00    +0.008 A 
ATOM     14  C   UNL     1      -2.953  -5.608  -3.376  0.00  0.00    -0.018 A 
ATOM     15  C   UNL     1      -1.893  -4.919  -2.734  0.00  0.00    -0.012 A 
ATOM     16  C   UNL     1      -1.055  -4.084  -3.492  0.00  0.00    +0.009 A 
ATOM     17  C   UNL     1      -1.270  -3.949  -4.829  0.00  0.00    +0.001 A 
ATOM     18  C   UNL     1      -2.311  -4.626  -5.461  0.00  0.00    +0.001 A 
ATOM     19  C   UNL     1      -3.143  -5.443  -4.759  0.00  0.00    +0.008 A 
ENDBRANCH   2  10
BRANCH   5  20
ATOM     20  C   UNL     1      -1.110  -1.040   0.929  0.00  0.00    +0.213 C 
BRANCH  20  21
ATOM     21  C   UNL     1       0.225  -0.369   1.129  0.00  0.00    +0.231 C 
ATOM     22  O   UNL     1       1.250  -0.997   0.965  0.00  0.00    -0.274 OA
ATOM     23  N   UNL     1       0.280   0.927   1.491  0.00  0.00    -0.314 N 
ATOM     24  H   UNL     1      -0.540   1.430   1.619  0.00  0.00    +0.149 HD
BRANCH  23  25
ATOM     25  C   UNL     1       1.577   1.579   1.686  0.00  0.00    +0.108 C 
BRANCH  25  26
ATOM     26  C   UNL     1       1.359   3.039   2.091  0.00  0.00    +0.049 C 
BRANCH  26  27
ATOM     27  C   UNL     1       2.693   3.709   2.292  0.00  0.00    -0.072 C 
ATOM     28  C   UNL     1       3.198   4.366   1.297  0.00  0.00    -0.028 C 
ATOM     29  C   UNL     1       4.517   5.080   1.343  0.00  0.00    +0.027 C 
ATOM     30  C   UNL     1       4.962   5.274   2.795  0.00  0.00    +0.004 C 
ATOM     31  C   UNL     1       4.840   3.929   3.523  0.00  0.00    +0.005 C 
ATOM     32  C   UNL     1       3.357   3.569   3.630  0.00  0.00    +0.030 C 
ENDBRANCH  26  27
ENDBRANCH  25  26
ENDBRANCH  23  25
ENDBRANCH  20  21
ENDBRANCH   5  20
TORSDOF 6
