REMARK  Name = ZINC40733847
REMARK  5 active torsions:
REMARK  status: ('A' for Active; 'I' for Inactive)
REMARK    1  A    between atoms: C_1  and  C_2
REMARK    2  A    between atoms: C_2  and  C_3
REMARK    3  A    between atoms: C_11  and  N_28
REMARK    4  A    between atoms: C_12  and  O_16
REMARK    5  A    between atoms: O_16  and  C_17
REMARK                            x       y       z     vdW  Elec       q    Type
REMARK                         _______ _______ _______ _____ _____    ______ ____
ROOT
ATOM      1  C   UNL     1      -2.640   0.152  -0.117  0.00  0.00    +0.075 C 
ATOM      2  C   UNL     1      -2.124  -0.422   1.206  0.00  0.00    +0.022 C 
ATOM      3  C   UNL     1      -2.129  -1.951   1.131  0.00  0.00    +0.003 C 
ATOM      4  C   UNL     1      -1.197  -2.411   0.008  0.00  0.00    +0.019 C 
ATOM      5  C   UNL     1      -1.702  -1.859  -1.329  0.00  0.00    +0.107 C 
ATOM      6  N   UNL     1      -1.841  -0.400  -1.219  0.00  0.00    -0.311 N 
ATOM      7  C   UNL     1      -1.225   0.441  -2.138  0.00  0.00    +0.149 A 
ATOM      8  C   UNL     1      -1.918   0.889  -3.266  0.00  0.00    +0.128 A 
ATOM      9  C   UNL     1      -1.253   1.731  -4.155  0.00  0.00    +0.246 A 
ATOM     10  N   UNL     1       0.005   2.075  -3.899  0.00  0.00    -0.199 NA
ATOM     11  C   UNL     1       0.624   1.632  -2.824  0.00  0.00    +0.227 A 
ATOM     12  N   UNL     1       0.031   0.838  -1.954  0.00  0.00    -0.219 NA
ENDROOT
BRANCH   8  13
ATOM     13  N   UNL     1      -3.247   0.500  -3.497  0.00  0.00    -0.351 N 
ATOM     14  H   UNL     1      -3.672  -0.146  -2.912  0.00  0.00    +0.143 HD
ATOM     15  H   UNL     1      -3.739   0.876  -4.243  0.00  0.00    +0.143 HD
ENDBRANCH   8  13
BRANCH   1  17
ATOM     16  C   UNL     1      -3.455   2.260   0.950  0.00  0.00    +0.006 C 
ATOM     17  C   UNL     1      -2.507   1.677  -0.100  0.00  0.00    +0.019 C 
ENDBRANCH   1  17
BRANCH   9  18
ATOM     18  O   UNL     1      -1.881   2.192  -5.266  0.00  0.00    -0.434 OA
BRANCH  18  19
ATOM     19  C   UNL     1      -1.154   2.920  -6.153  0.00  0.00    +0.156 A 
ATOM     20  C   UNL     1      -1.179   4.295  -6.106  0.00  0.00    +0.049 A 
ATOM     21  C   UNL     1      -0.439   5.054  -7.009  0.00  0.00    +0.019 A 
ATOM     22  C   UNL     1       0.330   4.456  -7.962  0.00  0.00    +0.027 A 
ATOM     23  C   UNL     1       0.380   3.054  -8.042  0.00  0.00    +0.018 A 
ATOM     24  C   UNL     1      -0.364   2.272  -7.125  0.00  0.00    +0.114 A 
ATOM     25  N   UNL     1      -0.314   0.938  -7.195  0.00  0.00    -0.251 NA
ATOM     26  C   UNL     1       0.418   0.330  -8.096  0.00  0.00    +0.111 A 
ATOM     27  C   UNL     1       1.178   1.039  -9.023  0.00  0.00    +0.020 A 
ATOM     28  C   UNL     1       1.163   2.405  -9.015  0.00  0.00    +0.013 A 
ATOM     29 BR   UNL     1       1.324   5.511  -9.177  0.00  0.00    -0.050 Br
ENDBRANCH  18  19
ENDBRANCH   9  18
TORSDOF 4
