REMARK  Name = ZINC05190523
REMARK  2 active torsions:
REMARK  status: ('A' for Active; 'I' for Inactive)
REMARK    1  A    between atoms: C_1  and  C_2
REMARK    2  A    between atoms: C_13  and  C_14
REMARK                            x       y       z     vdW  Elec       q    Type
REMARK                         _______ _______ _______ _____ _____    ______ ____
ROOT
ATOM      1  C   UNL     1      -0.056   1.647   0.129  0.00  0.00    +0.021 C 
ATOM      2  C   UNL     1      -0.028   0.119   0.080  0.00  0.00    +0.067 C 
ATOM      3  C   UNL     1      -1.453  -0.468   0.171  0.00  0.00    +0.116 C 
ATOM      4  N   UNL     1      -1.607  -1.286   1.356  0.00  0.00    -0.337 N 
ATOM      5  C   UNL     1      -0.573  -1.449   2.204  0.00  0.00    +0.069 C 
ATOM      6  C   UNL     1      -0.583  -2.219   3.395  0.00  0.00    +0.005 C 
ATOM      7  C   UNL     1      -1.780  -2.802   3.845  0.00  0.00    +0.014 C 
ATOM      8  C   UNL     1      -1.788  -3.541   4.987  0.00  0.00    +0.051 C 
ATOM      9  C   UNL     1      -0.602  -3.721   5.716  0.00  0.00    +0.179 C 
ATOM     10  O   UNL     1      -0.611  -4.445   6.835  0.00  0.00    -0.288 OA
ATOM     11  C   UNL     1       0.595  -3.139   5.267  0.00  0.00    +0.054 C 
ATOM     12  C   UNL     1       0.605  -2.404   4.122  0.00  0.00    -0.037 C 
ATOM     13  C   UNL     1       1.890  -1.785   3.636  0.00  0.00    +0.044 C 
ATOM     14  S   UNL     1       0.728  -0.579   1.600  0.00  0.00    -0.105 S 
ATOM     15  H   UNL     1      -2.455  -1.718   1.539  0.00  0.00    +0.147 HD
ENDROOT
TORSDOF 0
