REMARK  Name = ZINC13899102
REMARK  8 active torsions:
REMARK  status: ('A' for Active; 'I' for Inactive)
REMARK    1  A    between atoms: C_1  and  C_2
REMARK    2  A    between atoms: C_2  and  C_3
REMARK    3  A    between atoms: C_2  and  C_4
REMARK    4  A    between atoms: C_2  and  C_5
REMARK    5  A    between atoms: C_12  and  C_16
REMARK    6  A    between atoms: N_18  and  N_19
REMARK    7  A    between atoms: C_20  and  C_21
REMARK    8  A    between atoms: C_25  and  N_27
REMARK                            x       y       z     vdW  Elec       q    Type
REMARK                         _______ _______ _______ _____ _____    ______ ____
ROOT
ATOM      1  C   UNL     1      -0.618   5.464  -0.994  0.00  0.00    +0.276 C 
ATOM      2  O   UNL     1       0.478   5.839  -1.354  0.00  0.00    -0.270 OA
ATOM      3  N   UNL     1      -1.491   6.344  -0.465  0.00  0.00    -0.204 N 
ATOM      4  H   UNL     1      -2.367   6.045  -0.176  0.00  0.00    +0.177 HD
ENDROOT
BRANCH   1  12
ATOM      5  C   UNL     1       0.662  -0.170  -2.683  0.00  0.00    -0.038 A 
ATOM      6  C   UNL     1      -0.623  -0.549  -3.025  0.00  0.00    +0.008 A 
ATOM      7  C   UNL     1      -1.668   0.345  -2.892  0.00  0.00    +0.050 A 
ATOM      8  C   UNL     1      -1.430   1.625  -2.415  0.00  0.00    +0.162 A 
ATOM      9  C   UNL     1      -0.139   2.007  -2.074  0.00  0.00    +0.163 A 
ATOM     10  C   UNL     1       0.906   1.104  -2.208  0.00  0.00    +0.053 A 
ATOM     11  O   UNL     1       0.118   3.261  -1.612  0.00  0.00    -0.472 OA
ATOM     12  C   UNL     1      -1.004   4.015  -1.138  0.00  0.00    +0.297 C 
ATOM     13  C   UNL     1      -2.140   3.881  -2.161  0.00  0.00    +0.283 C 
ATOM     14  O   UNL     1      -2.471   2.492  -2.282  0.00  0.00    -0.484 OA
BRANCH   5  16
ATOM     15  C   UNL     1       1.264  -2.476  -3.369  0.00  0.00    +0.015 C 
ATOM     16  C   UNL     1       1.799  -1.149  -2.828  0.00  0.00    -0.013 C 
ATOM     17  C   UNL     1       2.837  -0.584  -3.800  0.00  0.00    +0.015 C 
ATOM     18  C   UNL     1       2.450  -1.380  -1.463  0.00  0.00    +0.015 C 
ENDBRANCH   5  16
ENDBRANCH   1  12
BRANCH   3  19
ATOM     19  N   UNL     1      -1.133   7.692  -0.331  0.00  0.00    -0.187 NA
ATOM     20  C   UNL     1      -1.929   8.518   0.276  0.00  0.00    +0.142 C 
BRANCH  20  21
ATOM     21  C   UNL     1      -3.078   8.005   1.043  0.00  0.00    +0.045 A 
ATOM     22  C   UNL     1      -3.045   6.716   1.579  0.00  0.00    +0.033 A 
ATOM     23  C   UNL     1      -4.123   6.244   2.300  0.00  0.00    +0.044 A 
ATOM     24  C   UNL     1      -5.241   7.040   2.486  0.00  0.00    +0.056 A 
ATOM     25  C   UNL     1      -5.287   8.315   1.955  0.00  0.00    +0.175 A 
ATOM     26  C   UNL     1      -4.212   8.806   1.233  0.00  0.00    +0.218 A 
ATOM     27 CL   UNL     1      -4.079   4.644   2.973  0.00  0.00    -0.083 Cl
ATOM     28  O   UNL     1      -4.257  10.060   0.711  0.00  0.00    -0.285 OA
BRANCH  25  29
ATOM     29  N   UNL     1      -6.487   9.158   2.159  0.00  0.00    +0.060 N 
ATOM     30  O   UNL     1      -7.433   8.727   2.794  0.00  0.00    -0.126 OA
ATOM     31  O   UNL     1      -6.529  10.282   1.692  0.00  0.00    -0.126 OA
ENDBRANCH  25  29
ENDBRANCH  20  21
ENDBRANCH   3  19
TORSDOF 5
