REMARK  Name = ZINC22109121
REMARK  10 active torsions:
REMARK  status: ('A' for Active; 'I' for Inactive)
REMARK    1  A    between atoms: C_1  and  O_2
REMARK    2  A    between atoms: O_2  and  C_3
REMARK    3  A    between atoms: C_4  and  C_11
REMARK    4  A    between atoms: C_11  and  N_12
REMARK    5  A    between atoms: N_12  and  C_13
REMARK    6  A    between atoms: C_13  and  C_14
REMARK    7  A    between atoms: C_14  and  C_15
REMARK    8  A    between atoms: C_15  and  S_16
REMARK    9  A    between atoms: S_16  and  C_17
REMARK   10  A    between atoms: N_21  and  C_22
REMARK                            x       y       z     vdW  Elec       q    Type
REMARK                         _______ _______ _______ _____ _____    ______ ____
ROOT
ATOM      1  C   UNL     1       4.016   5.949   1.401  0.00  0.00    -0.081 C 
ENDROOT
BRANCH   1   2
ATOM      2  N   UNL     1       2.756   5.194   1.369  0.00  0.00    +0.382 N 
ATOM      3  H   UNL     1       1.946   5.843   1.734  0.00  0.00    -0.085 HD
ATOM      4  H   UNL     1       2.852   4.320   2.030  0.00  0.00    -0.085 HD
BRANCH   2   5
ATOM      5  C   UNL     1       2.446   4.744   0.005  0.00  0.00    -0.043 C 
BRANCH   5   7
ATOM      6  C   UNL     1      -0.060   4.654   0.027  0.00  0.00    +0.135 A 
ATOM      7  C   UNL     1       1.150   3.975   0.012  0.00  0.00    -0.021 A 
ATOM      8  C   UNL     1       1.166   2.594   0.005  0.00  0.00    +0.020 A 
ATOM      9  C   UNL     1      -0.024   1.887   0.012  0.00  0.00    +0.019 A 
ATOM     10  C   UNL     1      -1.231   2.561   0.022  0.00  0.00    +0.034 A 
ATOM     11  C   UNL     1      -1.252   3.943   0.034  0.00  0.00    +0.061 A 
ATOM     12 BR   UNL     1      -2.903   4.865   0.055  0.00  0.00    -0.046 Br
ATOM     13 BR   UNL     1       0.002  -0.004   0.002  0.00  0.00    -0.050 Br
BRANCH   6  15
ATOM     14  C   UNL     1      -0.098   6.669  -1.234  0.00  0.00    +0.277 C 
ATOM     15  O   UNL     1      -0.078   6.013   0.035  0.00  0.00    -0.494 OA
ENDBRANCH   6  15
ENDBRANCH   5   7
ENDBRANCH   2   5
ENDBRANCH   1   2
BRANCH   1  16
ATOM     16  C   UNL     1       4.305   6.399   2.834  0.00  0.00    -0.008 C 
BRANCH  16  17
ATOM     17  C   UNL     1       5.617   7.185   2.867  0.00  0.00    +0.075 C 
BRANCH  17  18
ATOM     18  S   UNL     1       5.958   7.718   4.563  0.00  0.00    -0.084 S 
BRANCH  18  19
ATOM     19  C   UNL     1       7.479   8.573   4.314  0.00  0.00    +0.214 A 
ATOM     20  N   UNL     1       8.111   8.728   3.171  0.00  0.00    -0.101 NA
ATOM     21  N   UNL     1       9.190   9.403   3.342  0.00  0.00    -0.022 NA
ATOM     22  N   UNL     1       9.328   9.725   4.582  0.00  0.00    -0.038 NA
ATOM     23  N   UNL     1       8.215   9.202   5.264  0.00  0.00    -0.187 N 
BRANCH  23  24
ATOM     24  C   UNL     1       7.929   9.306   6.633  0.00  0.00    +0.070 A 
ATOM     25  C   UNL     1       6.615   9.428   7.062  0.00  0.00    +0.028 A 
ATOM     26  C   UNL     1       6.336   9.525   8.411  0.00  0.00    +0.002 A 
ATOM     27  C   UNL     1       7.365   9.512   9.334  0.00  0.00    +0.000 A 
ATOM     28  C   UNL     1       8.676   9.395   8.910  0.00  0.00    +0.002 A 
ATOM     29  C   UNL     1       8.961   9.293   7.562  0.00  0.00    +0.028 A 
ENDBRANCH  23  24
ENDBRANCH  18  19
ENDBRANCH  17  18
ENDBRANCH  16  17
ENDBRANCH   1  16
TORSDOF 9
