REMARK  Name = ZINC66159094
REMARK  10 active torsions:
REMARK  status: ('A' for Active; 'I' for Inactive)
REMARK    1  A    between atoms: C_1  and  C_2
REMARK    2  A    between atoms: C_3  and  C_24
REMARK    3  A    between atoms: C_7  and  N_8
REMARK    4  A    between atoms: N_11  and  C_12
REMARK    5  A    between atoms: N_11  and  C_21
REMARK    6  A    between atoms: C_12  and  C_13
REMARK    7  A    between atoms: C_16  and  C_19
REMARK    8  A    between atoms: C_21  and  C_22
REMARK    9  A    between atoms: C_21  and  C_23
REMARK   10  A    between atoms: N_26  and  C_27
REMARK                            x       y       z     vdW  Elec       q    Type
REMARK                         _______ _______ _______ _____ _____    ______ ____
ROOT
ATOM      1  N   UNL     1      -0.123  -0.242   2.064  0.00  0.00    -0.269 N 
ATOM      2  C   UNL     1       0.237  -0.893   3.188  0.00  0.00    +0.307 C 
ATOM      3  O   UNL     1       0.281  -2.108   3.200  0.00  0.00    -0.252 OA
ATOM      4  N   UNL     1       0.549  -0.197   4.299  0.00  0.00    -0.279 N 
ATOM      5  H   UNL     1      -0.196   0.725   2.066  0.00  0.00    +0.156 HD
ENDROOT
BRANCH   1  12
ATOM      6  C   UNL     1       0.061   1.122  -0.423  0.00  0.00    +0.046 C 
ATOM      7  C   UNL     1      -0.314  -0.335  -0.339  0.00  0.00    -0.017 A 
ATOM      8  C   UNL     1      -0.578  -1.058  -1.502  0.00  0.00    +0.041 A 
ATOM      9  C   UNL     1      -0.925  -2.407  -1.416  0.00  0.00    +0.013 A 
ATOM     10  C   UNL     1      -1.006  -3.021  -0.182  0.00  0.00    +0.003 A 
ATOM     11  C   UNL     1      -0.745  -2.304   0.970  0.00  0.00    +0.023 A 
ATOM     12  C   UNL     1      -0.393  -0.962   0.895  0.00  0.00    +0.038 A 
BRANCH   8  13
ATOM     13  C   UNL     1      -0.490  -0.398  -2.822  0.00  0.00    +0.244 C 
ATOM     14  O   UNL     1      -0.083   0.744  -2.904  0.00  0.00    -0.270 OA
ATOM     15  N   UNL     1      -0.862  -1.063  -3.934  0.00  0.00    -0.314 N 
ATOM     16  C   UNL     1      -0.775  -0.408  -5.242  0.00  0.00    +0.128 C 
ATOM     17  H   UNL     1      -1.187  -1.974  -3.868  0.00  0.00    +0.149 HD
ENDBRANCH   8  13
ENDBRANCH   1  12
BRANCH   4  18
ATOM     18  C   UNL     1       0.380   1.258   4.324  0.00  0.00    +0.072 C 
ATOM     19  C   UNL     1       1.315   1.898   3.297  0.00  0.00    +0.028 C 
ATOM     20  C   UNL     1      -1.070   1.608   3.982  0.00  0.00    +0.028 C 
ENDBRANCH   4  18
BRANCH   4  21
ATOM     21  C   UNL     1       1.059  -0.895   5.482  0.00  0.00    +0.144 C 
BRANCH  21  22
ATOM     22  C   UNL     1       2.566  -0.861   5.475  0.00  0.00    -0.030 A 
ATOM     23  C   UNL     1       3.273  -1.817   4.768  0.00  0.00    +0.006 A 
ATOM     24  C   UNL     1       4.652  -1.792   4.757  0.00  0.00    +0.019 A 
ATOM     25  C   UNL     1       5.334  -0.799   5.462  0.00  0.00    +0.052 A 
ATOM     26  C   UNL     1       4.614   0.163   6.173  0.00  0.00    +0.019 A 
ATOM     27  C   UNL     1       3.235   0.129   6.171  0.00  0.00    +0.006 A 
BRANCH  25  28
ATOM     28  C   UNL     1       6.766  -0.767   5.456  0.00  0.00    +0.099 C 
ATOM     29  N   UNL     1       7.902  -0.742   5.451  0.00  0.00    -0.191 NA
ENDBRANCH  25  28
ENDBRANCH  21  22
ENDBRANCH   4  21
TORSDOF 6
