REMARK  Name = ZINC07502016
REMARK  6 active torsions:
REMARK  status: ('A' for Active; 'I' for Inactive)
REMARK    1  A    between atoms: C_1  and  C_2
REMARK    2  A    between atoms: C_3  and  S_9
REMARK    3  A    between atoms: C_4  and  C_8
REMARK    4  A    between atoms: S_9  and  N_12
REMARK    5  A    between atoms: N_12  and  C_13
REMARK    6  A    between atoms: C_16  and  C_19
REMARK                            x       y       z     vdW  Elec       q    Type
REMARK                         _______ _______ _______ _____ _____    ______ ____
ROOT
ATOM      1  C   UNL     1       1.700   9.706  -0.024  0.00  0.00    +0.048 A 
ATOM      2  C   UNL     1       0.354   9.362  -0.070  0.00  0.00    +0.025 A 
ATOM      3  C   UNL     1      -0.017   8.035  -0.136  0.00  0.00    +0.012 A 
ATOM      4  C   UNL     1       0.958   7.040  -0.157  0.00  0.00    +0.002 A 
ATOM      5  C   UNL     1       2.307   7.387  -0.104  0.00  0.00    +0.012 A 
ATOM      6  C   UNL     1       2.674   8.715  -0.044  0.00  0.00    +0.025 A 
ENDROOT
BRANCH   4   7
ATOM      7  C   UNL     1       0.561   5.612  -0.228  0.00  0.00    +0.090 A 
ATOM      8  C   UNL     1       1.404   4.552  -0.255  0.00  0.00    +0.121 A 
ATOM      9  N   UNL     1       0.628   3.399  -0.323  0.00  0.00    -0.300 N 
ATOM     10  C   UNL     1       0.821   2.035  -0.378  0.00  0.00    +0.100 A 
ATOM     11  C   UNL     1      -0.217   1.202  -0.438  0.00  0.00    +0.067 A 
ATOM     12  S   UNL     1      -1.600   2.332  -0.428  0.00  0.00    -0.058 S 
ATOM     13  C   UNL     1      -0.668   3.843  -0.333  0.00  0.00    +0.178 A 
ATOM     14  N   UNL     1      -0.703   5.143  -0.277  0.00  0.00    -0.221 NA
ENDBRANCH   4   7
BRANCH   1  15
ATOM     15  N   UNL     1       2.074  11.050   0.044  0.00  0.00    -0.216 N 
ATOM     16  H   UNL     1       1.662  11.698  -0.549  0.00  0.00    +0.174 HD
BRANCH  15  17
ATOM     17  S   UNL     1       3.221  11.537   1.135  0.00  0.00    +0.076 S 
ATOM     18  O   UNL     1       4.337  10.675   0.962  0.00  0.00    -0.150 OA
ATOM     19  O   UNL     1       3.323  12.949   1.014  0.00  0.00    -0.150 OA
BRANCH  17  22
ATOM     20  C   UNL     1       3.774   8.996   3.142  0.00  0.00    +0.067 C 
ATOM     21  C   UNL     1       2.859  10.135   3.511  0.00  0.00    +0.060 A 
ATOM     22  C   UNL     1       2.579  11.214   2.744  0.00  0.00    +0.151 A 
ATOM     23  C   UNL     1       1.695  12.031   3.456  0.00  0.00    +0.087 A 
ATOM     24  N   UNL     1       1.446  11.458   4.606  0.00  0.00    -0.177 NA
ATOM     25  N   UNL     1       2.172  10.262   4.665  0.00  0.00    -0.280 N 
ATOM     26  H   UNL     1       2.180   9.616   5.429  0.00  0.00    +0.189 HD
ATOM     27  C   UNL     1       1.125  13.342   2.980  0.00  0.00    +0.069 C 
ENDBRANCH  17  22
ENDBRANCH  15  17
ENDBRANCH   1  15
TORSDOF 4
