REMARK  Name = ZINC24023279
REMARK  12 active torsions:
REMARK  status: ('A' for Active; 'I' for Inactive)
REMARK    1  A    between atoms: C_1  and  C_2
REMARK    2  A    between atoms: C_2  and  C_3
REMARK    3  A    between atoms: C_2  and  C_4
REMARK    4  A    between atoms: C_4  and  N_5
REMARK    5  A    between atoms: C_6  and  N_35
REMARK    6  A    between atoms: C_7  and  N_14
REMARK    7  A    between atoms: N_14  and  C_15
REMARK    8  A    between atoms: C_15  and  C_16
REMARK    9  A    between atoms: C_16  and  C_17
REMARK   10  A    between atoms: C_16  and  C_18
REMARK   11  A    between atoms: C_19  and  C_21
REMARK   12  A    between atoms: N_26  and  C_28
REMARK                            x       y       z     vdW  Elec       q    Type
REMARK                         _______ _______ _______ _____ _____    ______ ____
ROOT
ATOM      1  N   UNL     1      -0.720   3.406  -2.804  0.00  0.00    -0.264 N 
ATOM      2  C   UNL     1      -0.622   3.098  -1.494  0.00  0.00    +0.225 C 
ATOM      3  O   UNL     1       0.135   3.722  -0.779  0.00  0.00    -0.275 OA
ENDROOT
BRANCH   1   6
ATOM      4  N   UNL     1       0.386   6.552  -4.347  0.00  0.00    -0.280 N 
ATOM      5  C   UNL     1      -0.442   5.592  -3.814  0.00  0.00    +0.127 A 
ATOM      6  C   UNL     1       0.103   4.410  -3.357  0.00  0.00    +0.140 A 
ATOM      7  C   UNL     1       1.496   4.225  -3.446  0.00  0.00    +0.277 A 
ATOM      8  O   UNL     1       2.005   3.192  -3.045  0.00  0.00    -0.266 OA
ATOM      9  N   UNL     1       2.262   5.196  -3.982  0.00  0.00    -0.273 N 
ATOM     10  H   UNL     1       3.350   5.055  -4.062  0.00  0.00    +0.173 HD
ATOM     11  C   UNL     1       1.713   6.341  -4.422  0.00  0.00    +0.331 A 
ATOM     12  O   UNL     1       2.428   7.202  -4.897  0.00  0.00    -0.246 OA
BRANCH   5  13
ATOM     13  N   UNL     1      -1.797   5.808  -3.736  0.00  0.00    -0.343 N 
ATOM     14  H   UNL     1      -2.454   5.036  -3.309  0.00  0.00    +0.144 HD
ATOM     15  H   UNL     1      -2.225   6.753  -4.102  0.00  0.00    +0.144 HD
ENDBRANCH   5  13
BRANCH   4  16
ATOM     16  C   UNL     1      -0.180   7.812  -4.836  0.00  0.00    +0.131 C 
BRANCH  16  18
ATOM     17  C   UNL     1      -0.683  10.185  -4.236  0.00  0.00    +0.009 C 
ATOM     18  C   UNL     1      -0.210   8.834  -3.697  0.00  0.00    +0.003 C 
ATOM     19  C   UNL     1      -1.171   8.354  -2.607  0.00  0.00    +0.009 C 
ENDBRANCH  16  18
ENDBRANCH   4  16
ENDBRANCH   1   6
BRANCH   2  20
ATOM     20  C   UNL     1      -1.452   1.980  -0.918  0.00  0.00    +0.102 C 
ATOM     21  C   UNL     1      -2.888   2.461  -0.608  0.00  0.00    +0.110 C 
ATOM     22  C   UNL     1      -2.833   2.882   0.845  0.00  0.00    +0.221 C 
ATOM     23  O   UNL     1      -3.661   3.572   1.400  0.00  0.00    -0.275 OA
ATOM     24  N   UNL     1      -1.730   2.379   1.431  0.00  0.00    -0.269 N 
ATOM     25  C   UNL     1      -0.944   1.580   0.484  0.00  0.00    +0.127 C 
BRANCH  24  26
ATOM     26  C   UNL     1      -1.378   2.591   2.769  0.00  0.00    +0.055 A 
ATOM     27  C   UNL     1      -0.588   3.678   3.117  0.00  0.00    +0.025 A 
ATOM     28  C   UNL     1      -0.243   3.885   4.439  0.00  0.00    +0.002 A 
ATOM     29  C   UNL     1      -0.683   3.010   5.415  0.00  0.00    +0.002 A 
ATOM     30  C   UNL     1      -1.471   1.927   5.073  0.00  0.00    +0.022 A 
ATOM     31  C   UNL     1      -1.824   1.717   3.753  0.00  0.00    +0.062 A 
ATOM     32 CL   UNL     1      -2.819   0.360   3.325  0.00  0.00    -0.082 Cl
ENDBRANCH  24  26
ENDBRANCH   2  20
BRANCH   1  33
ATOM     33  C   UNL     1      -1.681   2.698  -3.653  0.00  0.00    +0.117 C 
BRANCH  33  34
ATOM     34  C   UNL     1      -0.965   1.579  -4.411  0.00  0.00    +0.001 C 
ATOM     35  C   UNL     1      -0.487   0.516  -3.420  0.00  0.00    +0.009 C 
ATOM     36  C   UNL     1      -1.930   0.944  -5.414  0.00  0.00    +0.009 C 
ENDBRANCH  33  34
ENDBRANCH   1  33
TORSDOF 8
