REMARK  Name = ZINC65086757
REMARK  4 active torsions:
REMARK  status: ('A' for Active; 'I' for Inactive)
REMARK    1  A    between atoms: C_3  and  N_9
REMARK    2  A    between atoms: N_9  and  N_10
REMARK    3  A    between atoms: C_11  and  C_13
REMARK    4  A    between atoms: N_18  and  C_21
REMARK                            x       y       z     vdW  Elec       q    Type
REMARK                         _______ _______ _______ _____ _____    ______ ____
ROOT
ATOM      1  C   UNL     1       4.676   5.756  -0.012  0.00  0.00    +0.303 C 
ATOM      2  O   UNL     1       3.633   6.345  -0.209  0.00  0.00    -0.265 OA
ATOM      3  N   UNL     1       5.830   6.445   0.082  0.00  0.00    -0.291 N 
ATOM      4  C   UNL     1       7.120   5.741   0.118  0.00  0.00    +0.127 C 
ATOM      5  C   UNL     1       8.009   6.288  -1.006  0.00  0.00    +0.124 C 
ATOM      6  N   UNL     1       8.001   7.756  -0.938  0.00  0.00    -0.327 N 
ATOM      7  C   UNL     1       6.712   8.460  -0.975  0.00  0.00    +0.124 C 
ATOM      8  C   UNL     1       5.823   7.913   0.143  0.00  0.00    +0.127 C 
ENDROOT
BRANCH   6   9
ATOM      9  C   UNL     1       9.194   8.467  -0.841  0.00  0.00    +0.033 A 
ATOM     10  C   UNL     1       9.190   9.843  -0.614  0.00  0.00    +0.040 A 
ATOM     11  C   UNL     1      10.393  10.510  -0.523  0.00  0.00    +0.084 A 
ATOM     12  N   UNL     1      11.537   9.864  -0.650  0.00  0.00    -0.367 N 
ATOM     13  C   UNL     1      11.582   8.562  -0.867  0.00  0.00    +0.084 A 
ATOM     14  C   UNL     1      10.424   7.821  -0.964  0.00  0.00    +0.040 A 
ATOM     15  H   UNL     1      12.368  10.359  -0.582  0.00  0.00    +0.165 HD
ENDBRANCH   6   9
BRANCH   1  17
ATOM     16  N   UNL     1       3.550   3.568  -0.097  0.00  0.00    -0.229 N 
ATOM     17  C   UNL     1       4.679   4.268   0.126  0.00  0.00    +0.315 C 
ATOM     18  O   UNL     1       5.699   3.691   0.440  0.00  0.00    -0.264 OA
ATOM     19  H   UNL     1       2.734   4.030  -0.347  0.00  0.00    +0.173 HD
BRANCH  16  20
ATOM     20  N   UNL     1       3.553   2.173   0.033  0.00  0.00    -0.263 N 
ATOM     21  H   UNL     1       4.369   1.711   0.284  0.00  0.00    +0.170 HD
BRANCH  20  24
ATOM     22  C   UNL     1       0.057   1.385  -0.786  0.00  0.00    +0.022 A 
ATOM     23  C   UNL     1       1.214   2.106  -0.557  0.00  0.00    +0.027 A 
ATOM     24  C   UNL     1       2.381   1.446  -0.198  0.00  0.00    +0.063 A 
ATOM     25  C   UNL     1       2.384   0.062  -0.070  0.00  0.00    +0.065 A 
ATOM     26  C   UNL     1       1.224  -0.653  -0.300  0.00  0.00    +0.042 A 
ATOM     27  C   UNL     1       0.061   0.008  -0.658  0.00  0.00    +0.042 A 
ATOM     28 CL   UNL     1      -1.394  -0.893  -0.946  0.00  0.00    -0.083 Cl
ATOM     29 CL   UNL     1       3.841  -0.767   0.377  0.00  0.00    -0.082 Cl
ENDBRANCH  20  24
ENDBRANCH  16  20
ENDBRANCH   1  17
TORSDOF 4
