REMARK  Name = ZINC10384458
REMARK  4 active torsions:
REMARK  status: ('A' for Active; 'I' for Inactive)
REMARK    1  A    between atoms: C_1  and  C_2
REMARK    2  A    between atoms: C_7  and  C_8
REMARK    3  A    between atoms: N_10  and  N_11
REMARK    4  A    between atoms: C_12  and  C_14
REMARK                            x       y       z     vdW  Elec       q    Type
REMARK                         _______ _______ _______ _____ _____    ______ ____
ROOT
ATOM      1  N   UNL     1       1.364  -5.014   0.911  0.00  0.00    -0.230 N 
ATOM      2  C   UNL     1       0.223  -4.333   1.139  0.00  0.00    +0.267 C 
ATOM      3  O   UNL     1      -0.845  -4.916   1.128  0.00  0.00    -0.268 OA
ATOM      4  H   UNL     1       2.215  -4.550   0.920  0.00  0.00    +0.173 HD
ENDROOT
BRANCH   2   5
ATOM      5  C   UNL     1       0.269  -2.885   1.401  0.00  0.00    +0.123 A 
ATOM      6  C   UNL     1       1.478  -2.210   1.415  0.00  0.00    +0.031 A 
ATOM      7  C   UNL     1       1.476  -0.815   1.670  0.00  0.00    +0.020 A 
ATOM      8  C   UNL     1       2.683  -0.100   1.692  0.00  0.00    +0.031 A 
ATOM      9  C   UNL     1       2.673   1.243   1.938  0.00  0.00    +0.042 A 
ATOM     10  C   UNL     1       1.475   1.908   2.169  0.00  0.00    +0.023 A 
ATOM     11  C   UNL     1       0.278   1.225   2.152  0.00  0.00    +0.048 A 
ATOM     12  C   UNL     1       0.262  -0.143   1.903  0.00  0.00    +0.139 A 
ATOM     13  O   UNL     1      -0.912  -0.810   1.887  0.00  0.00    -0.422 OA
ATOM     14  C   UNL     1      -0.965  -2.131   1.650  0.00  0.00    +0.350 A 
ATOM     15  O   UNL     1      -2.038  -2.704   1.642  0.00  0.00    -0.244 OA
ATOM     16 CL   UNL     1       4.168   2.126   1.964  0.00  0.00    -0.084 Cl
ENDBRANCH   2   5
BRANCH   1  19
ATOM     17  C   UNL     1       2.461  -7.073   0.435  0.00  0.00    +0.260 C 
ATOM     18  O   UNL     1       3.528  -6.491   0.446  0.00  0.00    -0.269 OA
ATOM     19  N   UNL     1       1.320  -6.392   0.663  0.00  0.00    -0.230 N 
ATOM     20  H   UNL     1       0.468  -6.856   0.654  0.00  0.00    +0.173 HD
BRANCH  17  27
ATOM     21  C   UNL     1       4.882  -8.470  -0.308  0.00  0.00    +0.044 C 
ATOM     22  C   UNL     1       3.576  -9.212  -0.186  0.00  0.00    -0.038 A 
ATOM     23  C   UNL     1       3.526 -10.569  -0.429  0.00  0.00    +0.004 A 
ATOM     24  C   UNL     1       2.327 -11.251  -0.318  0.00  0.00    +0.000 A 
ATOM     25  C   UNL     1       1.172 -10.578   0.038  0.00  0.00    +0.001 A 
ATOM     26  C   UNL     1       1.209  -9.222   0.289  0.00  0.00    +0.013 A 
ATOM     27  C   UNL     1       2.414  -8.527   0.173  0.00  0.00    +0.041 A 
ENDBRANCH  17  27
ENDBRANCH   1  19
TORSDOF 3
