REMARK  Name = ZINC04742245
REMARK  6 active torsions:
REMARK  status: ('A' for Active; 'I' for Inactive)
REMARK    1  A    between atoms: C_2  and  C_3
REMARK    2  A    between atoms: C_3  and  O_4
REMARK    3  A    between atoms: O_4  and  C_5
REMARK    4  A    between atoms: C_8  and  C_11
REMARK    5  A    between atoms: C_13  and  C_29
REMARK    6  A    between atoms: C_14  and  N_28
REMARK                            x       y       z     vdW  Elec       q    Type
REMARK                         _______ _______ _______ _____ _____    ______ ____
ROOT
ATOM      1  C   UNL     1      -5.759  -5.135  -1.446  0.00  0.00    +0.102 C 
ATOM      2  C   UNL     1      -5.381  -6.552  -1.117  0.00  0.00    +0.098 C 
ATOM      3  C   UNL     1      -5.193  -7.464  -2.103  0.00  0.00    +0.199 C 
ATOM      4  O   UNL     1      -5.335  -7.130  -3.396  0.00  0.00    -0.437 OA
ATOM      5  C   UNL     1      -6.051  -6.037  -3.742  0.00  0.00    +0.185 C 
ATOM      6  C   UNL     1      -6.285  -5.052  -2.856  0.00  0.00    +0.058 C 
ATOM      7  C   UNL     1      -7.063  -3.868  -3.247  0.00  0.00    +0.194 C 
ATOM      8  O   UNL     1      -7.271  -2.986  -2.437  0.00  0.00    -0.287 OA
ATOM      9  C   UNL     1      -7.595  -3.745  -4.621  0.00  0.00    +0.033 A 
ATOM     10  C   UNL     1      -8.329  -2.631  -5.005  0.00  0.00    +0.012 A 
ATOM     11  C   UNL     1      -8.816  -2.539  -6.300  0.00  0.00    +0.001 A 
ATOM     12  C   UNL     1      -8.576  -3.549  -7.212  0.00  0.00    +0.001 A 
ATOM     13  C   UNL     1      -7.846  -4.668  -6.843  0.00  0.00    +0.012 A 
ATOM     14  C   UNL     1      -7.351  -4.774  -5.549  0.00  0.00    +0.036 A 
ATOM     15  C   UNL     1      -6.575  -5.945  -5.129  0.00  0.00    +0.229 C 
ATOM     16  O   UNL     1      -6.358  -6.840  -5.920  0.00  0.00    -0.283 OA
ENDROOT
BRANCH   1  20
ATOM     17  C   UNL     1      -2.318  -2.629  -1.069  0.00  0.00    +0.121 A 
ATOM     18  C   UNL     1      -3.437  -2.395  -0.283  0.00  0.00    +0.046 A 
ATOM     19  C   UNL     1      -4.548  -3.206  -0.407  0.00  0.00    +0.008 A 
ATOM     20  C   UNL     1      -4.545  -4.251  -1.313  0.00  0.00    -0.034 A 
ATOM     21  C   UNL     1      -3.431  -4.487  -2.096  0.00  0.00    +0.008 A 
ATOM     22  C   UNL     1      -2.319  -3.675  -1.980  0.00  0.00    +0.046 A 
BRANCH  17  23
ATOM     23  O   UNL     1      -1.224  -1.832  -0.949  0.00  0.00    -0.488 OA
BRANCH  23  24
ATOM     24  C   UNL     1      -1.293  -0.775   0.010  0.00  0.00    +0.256 C 
BRANCH  24  26
ATOM     25  C   UNL     1      -0.016   1.306   0.009  0.00  0.00    +0.007 C 
ATOM     26  C   UNL     1       0.002  -0.004   0.002  0.00  0.00    +0.006 C 
ENDBRANCH  24  26
ENDBRANCH  23  24
ENDBRANCH  17  23
ENDBRANCH   1  20
BRANCH   3  27
ATOM     27  N   UNL     1      -4.849  -8.751  -1.773  0.00  0.00    -0.328 N 
ATOM     28  H   UNL     1      -4.743  -9.002  -0.842  0.00  0.00    +0.145 HD
ATOM     29  H   UNL     1      -4.712  -9.411  -2.471  0.00  0.00    +0.145 HD
ENDBRANCH   3  27
BRANCH   2  30
ATOM     30  C   UNL     1      -5.218  -6.944   0.251  0.00  0.00    +0.101 C 
ATOM     31  N   UNL     1      -5.090  -7.254   1.336  0.00  0.00    -0.191 NA
ENDBRANCH   2  30
TORSDOF 6
