REMARK  Name = ZINC39444454
REMARK  6 active torsions:
REMARK  status: ('A' for Active; 'I' for Inactive)
REMARK    1  A    between atoms: C_6  and  C_12
REMARK    2  A    between atoms: N_13  and  N_14
REMARK    3  A    between atoms: C_15  and  C_17
REMARK    4  A    between atoms: C_17  and  N_18
REMARK    5  A    between atoms: N_18  and  S_19
REMARK    6  A    between atoms: S_19  and  C_22
REMARK                            x       y       z     vdW  Elec       q    Type
REMARK                         _______ _______ _______ _____ _____    ______ ____
ROOT
ATOM      1  N   UNL     1       4.896  -4.445   2.205  0.00  0.00    -0.206 N 
ATOM      2  C   UNL     1       5.701  -5.519   2.075  0.00  0.00    +0.248 C 
ATOM      3  O   UNL     1       6.013  -5.913   0.971  0.00  0.00    -0.273 OA
ATOM      4  H   UNL     1       4.646  -4.130   3.087  0.00  0.00    +0.177 HD
ENDROOT
BRANCH   1   6
ATOM      5  C   UNL     1       3.655  -2.766   1.188  0.00  0.00    +0.133 C 
ATOM      6  N   UNL     1       4.420  -3.785   1.065  0.00  0.00    -0.190 NA
BRANCH   5  12
ATOM      7  C   UNL     1      -0.016   1.349   0.009  0.00  0.00    +0.001 A 
ATOM      8  C   UNL     1       1.165   2.101   0.002  0.00  0.00    +0.002 A 
ATOM      9  C   UNL     1       2.391   1.533  -0.013  0.00  0.00    +0.026 A 
ATOM     10  C   UNL     1       2.526   0.118  -0.021  0.00  0.00    +0.044 A 
ATOM     11  N   UNL     1       3.585  -0.657  -0.036  0.00  0.00    -0.372 N 
ATOM     12  C   UNL     1       3.142  -2.056  -0.039  0.00  0.00    +0.165 C 
ATOM     13  C   UNL     1       1.631  -2.012  -0.024  0.00  0.00    +0.055 C 
ATOM     14  C   UNL     1       1.294  -0.698  -0.014  0.00  0.00    +0.015 A 
ATOM     15  C   UNL     1       0.002  -0.004   0.002  0.00  0.00    +0.011 A 
ATOM     16 CL   UNL     1       0.547  -3.368  -0.022  0.00  0.00    -0.085 Cl
ATOM     17  H   UNL     1       4.507  -0.356  -0.043  0.00  0.00    +0.161 HD
ENDBRANCH   5  12
ENDBRANCH   1   6
BRANCH   2  18
ATOM     18  C   UNL     1       6.214  -6.229   3.301  0.00  0.00    +0.203 C 
BRANCH  18  19
ATOM     19  N   UNL     1       7.061  -7.353   2.897  0.00  0.00    -0.181 NA
ATOM     20  H   UNL     1       7.041  -7.670   1.980  0.00  0.00    +0.149 HD
BRANCH  19  21
ATOM     21  S   UNL     1       8.054  -8.082   4.003  0.00  0.00    +0.059 S 
ATOM     22  O   UNL     1       8.716  -9.138   3.321  0.00  0.00    -0.153 OA
ATOM     23  O   UNL     1       8.760  -7.041   4.664  0.00  0.00    -0.153 OA
BRANCH  21  24
ATOM     24  C   UNL     1       7.019  -8.835   5.214  0.00  0.00    +0.105 A 
ATOM     25  C   UNL     1       6.630  -8.120   6.332  0.00  0.00    +0.030 A 
ATOM     26  C   UNL     1       5.818  -8.711   7.282  0.00  0.00    +0.022 A 
ATOM     27  C   UNL     1       5.395 -10.017   7.115  0.00  0.00    +0.041 A 
ATOM     28  C   UNL     1       5.785 -10.732   5.996  0.00  0.00    +0.022 A 
ATOM     29  C   UNL     1       6.592 -10.139   5.044  0.00  0.00    +0.030 A 
ATOM     30 CL   UNL     1       4.376 -10.759   8.308  0.00  0.00    -0.084 Cl
ENDBRANCH  21  24
ENDBRANCH  19  21
ENDBRANCH  18  19
ENDBRANCH   2  18
TORSDOF 6
