REMARK  Name = ZINC64316910
REMARK  7 active torsions:
REMARK  status: ('A' for Active; 'I' for Inactive)
REMARK    1  A    between atoms: C_1  and  C_2
REMARK    2  A    between atoms: C_3  and  C_13
REMARK    3  A    between atoms: C_4  and  C_12
REMARK    4  A    between atoms: C_9  and  O_11
REMARK    5  A    between atoms: C_13  and  C_14
REMARK    6  A    between atoms: C_14  and  C_15
REMARK    7  A    between atoms: C_20  and  C_23
REMARK                            x       y       z     vdW  Elec       q    Type
REMARK                         _______ _______ _______ _____ _____    ______ ____
ROOT
ATOM      1  C   UNL     1      -2.898   0.363   1.456  0.00  0.00    +0.101 C 
ENDROOT
BRANCH   1   2
ATOM      2  C   UNL     1      -4.215   1.096   1.467  0.00  0.00    +0.219 C 
ATOM      3  O   UNL     1      -4.795   1.317   0.425  0.00  0.00    -0.275 OA
ATOM      4  N   UNL     1      -4.748   1.505   2.635  0.00  0.00    -0.265 N 
ATOM      5  C   UNL     1      -5.963   2.180   2.646  0.00  0.00    +0.165 A 
ATOM      6  N   UNL     1      -6.640   2.662   3.671  0.00  0.00    -0.224 NA
ATOM      7  C   UNL     1      -7.801   3.289   3.495  0.00  0.00    +0.087 A 
ATOM      8  C   UNL     1      -8.298   3.434   2.228  0.00  0.00    +0.077 A 
ATOM      9  S   UNL     1      -7.015   2.633   1.274  0.00  0.00    -0.060 S 
ATOM     10  H   UNL     1      -4.285   1.328   3.469  0.00  0.00    +0.157 HD
BRANCH   7  11
ATOM     11  C   UNL     1      -8.546   3.822   4.656  0.00  0.00    +0.038 A 
ATOM     12  C   UNL     1      -8.217   3.782   5.984  0.00  0.00    +0.017 A 
ATOM     13  C   UNL     1      -9.079   4.353   6.898  0.00  0.00    +0.008 A 
ATOM     14  C   UNL     1     -10.222   4.934   6.454  0.00  0.00    +0.046 A 
ATOM     15  S   UNL     1     -10.105   4.691   4.690  0.00  0.00    -0.095 S 
ENDBRANCH   7  11
ENDBRANCH   1   2
BRANCH   1  16
ATOM     16  C   UNL     1      -2.521   0.014   0.015  0.00  0.00    +0.048 C 
BRANCH  16  19
ATOM     17  C   UNL     1      -0.018   1.503   0.010  0.00  0.00    +0.066 C 
ATOM     18  C   UNL     1       0.002  -0.004   0.002  0.00  0.00    +0.045 A 
ATOM     19  C   UNL     1      -1.204  -0.719   0.004  0.00  0.00    -0.005 A 
ATOM     20  C   UNL     1      -1.176  -2.074  -0.004  0.00  0.00    +0.047 A 
ATOM     21  N   UNL     1       0.029  -2.714  -0.014  0.00  0.00    -0.215 N 
ATOM     22  C   UNL     1       1.189  -1.982  -0.015  0.00  0.00    +0.160 A 
ATOM     23  N   UNL     1       1.149  -0.642  -0.012  0.00  0.00    -0.233 NA
ATOM     24  C   UNL     1       2.240  -2.888  -0.026  0.00  0.00    +0.116 A 
ATOM     25  C   UNL     1       1.693  -4.167  -0.030  0.00  0.00    +0.234 A 
ATOM     26  N   UNL     1       0.380  -4.068  -0.023  0.00  0.00    -0.127 NA
ATOM     27  C   UNL     1      -2.459  -2.864  -0.002  0.00  0.00    +0.066 C 
BRANCH  25  28
ATOM     28  O   UNL     1       2.399  -5.329  -0.041  0.00  0.00    -0.491 OA
ATOM     29  H   UNL     1       2.607  -5.670   0.839  0.00  0.00    +0.294 HD
ENDBRANCH  25  28
ENDBRANCH  16  19
ENDBRANCH   1  16
TORSDOF 5
