REMARK  Name = ZINC33228719
REMARK  4 active torsions:
REMARK  status: ('A' for Active; 'I' for Inactive)
REMARK    1  A    between atoms: C_3  and  N_26
REMARK    2  A    between atoms: C_4  and  N_23
REMARK    3  A    between atoms: C_6  and  C_7
REMARK    4  A    between atoms: N_9  and  C_10
REMARK                            x       y       z     vdW  Elec       q    Type
REMARK                         _______ _______ _______ _____ _____    ______ ____
ROOT
ATOM      1  C   UNL     1       6.497   4.204   4.682  0.00  0.00    +0.248 C 
ATOM      2  O   UNL     1       7.113   4.375   3.648  0.00  0.00    -0.270 OA
ATOM      3  N   UNL     1       5.359   3.482   4.677  0.00  0.00    -0.281 N 
ATOM      4  H   UNL     1       4.763   3.387   5.596  0.00  0.00    +0.155 HD
ENDROOT
BRANCH   3   5
ATOM      5  C   UNL     1       4.936   2.851   3.500  0.00  0.00    +0.037 A 
ATOM      6  C   UNL     1       3.579   2.715   3.236  0.00  0.00    +0.027 A 
ATOM      7  C   UNL     1       3.159   2.091   2.077  0.00  0.00    +0.051 A 
ATOM      8  C   UNL     1       4.088   1.602   1.176  0.00  0.00    +0.167 A 
ATOM      9  C   UNL     1       5.452   1.739   1.438  0.00  0.00    +0.169 A 
ATOM     10  C   UNL     1       5.872   2.362   2.599  0.00  0.00    +0.073 A 
ATOM     11  O   UNL     1       6.149   1.177   0.399  0.00  0.00    -0.447 OA
ATOM     12  C   UNL     1       5.200   0.297  -0.208  0.00  0.00    +0.254 C 
ATOM     13  O   UNL     1       3.943   0.952  -0.024  0.00  0.00    -0.448 OA
ATOM     14  C   UNL     1       5.222  -1.099   0.429  0.00  0.00    +0.093 C 
ATOM     15  C   UNL     1       6.350  -1.838  -0.325  0.00  0.00    +0.008 C 
ATOM     16  C   UNL     1       6.532  -1.110  -1.670  0.00  0.00    +0.008 C 
ATOM     17  C   UNL     1       5.511   0.049  -1.690  0.00  0.00    +0.093 C 
ENDBRANCH   3   5
BRANCH   1  23
ATOM     18  C   UNL     1       6.290   4.591   7.133  0.00  0.00    +0.015 A 
ATOM     19  C   UNL     1       6.758   5.137   8.307  0.00  0.00    +0.029 A 
ATOM     20  C   UNL     1       7.931   5.882   8.311  0.00  0.00    +0.078 A 
ATOM     21  C   UNL     1       8.637   6.079   7.129  0.00  0.00    +0.151 A 
ATOM     22  C   UNL     1       8.178   5.531   5.951  0.00  0.00    +0.048 A 
ATOM     23  C   UNL     1       6.996   4.787   5.943  0.00  0.00    +0.039 A 
BRANCH  20  24
ATOM     24  N   UNL     1       8.403   6.435   9.505  0.00  0.00    -0.304 N 
ATOM     25  C   UNL     1       7.701   7.242  10.364  0.00  0.00    +0.112 A 
ATOM     26  C   UNL     1       8.529   7.543  11.381  0.00  0.00    +0.130 A 
ATOM     27  N   UNL     1       9.708   6.945  11.153  0.00  0.00    -0.244 NA
ATOM     28  C   UNL     1       9.646   6.279  10.033  0.00  0.00    +0.204 A 
ENDBRANCH  20  24
BRANCH  21  29
ATOM     29  N   UNL     1       9.886   6.872   7.137  0.00  0.00    +0.058 N 
ATOM     30  O   UNL     1       9.980   7.854   7.853  0.00  0.00    -0.126 OA
ATOM     31  O   UNL     1      10.821   6.545   6.429  0.00  0.00    -0.126 OA
ENDBRANCH  21  29
ENDBRANCH   1  23
TORSDOF 4
