REMARK  Name = ZINC67349352
REMARK  7 active torsions:
REMARK  status: ('A' for Active; 'I' for Inactive)
REMARK    1  A    between atoms: C_1  and  S_2
REMARK    2  A    between atoms: S_2  and  C_3
REMARK    3  A    between atoms: C_3  and  C_4
REMARK    4  A    between atoms: C_7  and  N_10
REMARK    5  A    between atoms: N_13  and  C_14
REMARK    6  A    between atoms: C_14  and  C_15
REMARK    7  A    between atoms: N_17  and  C_18
REMARK                            x       y       z     vdW  Elec       q    Type
REMARK                         _______ _______ _______ _____ _____    ______ ____
ROOT
ATOM      1  N   UNL     1       1.512  -6.089  -2.581  0.00  0.00    -0.269 N 
ATOM      2  C   UNL     1       0.410  -6.770  -2.953  0.00  0.00    +0.304 C 
ATOM      3  O   UNL     1      -0.593  -6.168  -3.287  0.00  0.00    -0.252 OA
ATOM      4  N   UNL     1       0.418  -8.118  -2.955  0.00  0.00    -0.291 N 
ATOM      5  H   UNL     1       2.334  -6.566  -2.388  0.00  0.00    +0.156 HD
ATOM      6  H   UNL     1       1.218  -8.598  -2.688  0.00  0.00    +0.151 HD
ENDROOT
BRANCH   1  10
ATOM      7  C   UNL     1       1.386  -1.938  -2.258  0.00  0.00    -0.037 A 
ATOM      8  C   UNL     1       0.262  -2.687  -1.963  0.00  0.00    +0.006 A 
ATOM      9  C   UNL     1       0.300  -4.063  -2.069  0.00  0.00    +0.023 A 
ATOM     10  C   UNL     1       1.470  -4.695  -2.473  0.00  0.00    +0.035 A 
ATOM     11  C   UNL     1       2.597  -3.939  -2.768  0.00  0.00    +0.023 A 
ATOM     12  C   UNL     1       2.550  -2.563  -2.665  0.00  0.00    +0.006 A 
BRANCH   7  13
ATOM     13  C   UNL     1       1.341  -0.436  -2.141  0.00  0.00    +0.104 C 
BRANCH  13  15
ATOM     14  C   UNL     1       0.810   2.067  -3.417  0.00  0.00    +0.084 C 
ATOM     15  S   UNL     1       0.812   0.279  -3.722  0.00  0.00    -0.159 S 
ENDBRANCH  13  15
ENDBRANCH   7  13
ENDBRANCH   1  10
BRANCH   4  16
ATOM     16  C   UNL     1      -0.780  -8.858  -3.359  0.00  0.00    +0.202 C 
BRANCH  16  17
ATOM     17  C   UNL     1      -0.509 -10.338  -3.273  0.00  0.00    +0.234 C 
ATOM     18  O   UNL     1       0.578 -10.735  -2.910  0.00  0.00    -0.274 OA
ATOM     19  N   UNL     1      -1.474 -11.219  -3.600  0.00  0.00    -0.284 N 
ATOM     20  H   UNL     1      -2.317 -10.904  -3.961  0.00  0.00    +0.155 HD
BRANCH  19  21
ATOM     21  C   UNL     1      -1.260 -12.591  -3.420  0.00  0.00    +0.034 A 
ATOM     22  C   UNL     1      -1.815 -13.504  -4.306  0.00  0.00    +0.025 A 
ATOM     23  C   UNL     1      -1.602 -14.857  -4.126  0.00  0.00    +0.022 A 
ATOM     24  C   UNL     1      -0.836 -15.302  -3.062  0.00  0.00    +0.041 A 
ATOM     25  C   UNL     1      -0.282 -14.394  -2.177  0.00  0.00    +0.022 A 
ATOM     26  C   UNL     1      -0.488 -13.040  -2.357  0.00  0.00    +0.025 A 
ATOM     27 CL   UNL     1      -0.571 -17.003  -2.837  0.00  0.00    -0.084 Cl
ENDBRANCH  19  21
ENDBRANCH  16  17
ENDBRANCH   4  16
TORSDOF 6
