REMARK  Name = ZINC13405734
REMARK  10 active torsions:
REMARK  status: ('A' for Active; 'I' for Inactive)
REMARK    1  A    between atoms: C_1  and  C_2
REMARK    2  A    between atoms: C_2  and  C_3
REMARK    3  A    between atoms: C_2  and  C_4
REMARK    4  A    between atoms: C_4  and  C_6
REMARK    5  A    between atoms: C_4  and  N_8
REMARK    6  A    between atoms: C_9  and  C_26
REMARK    7  A    between atoms: C_12  and  S_13
REMARK    8  A    between atoms: S_13  and  C_14
REMARK    9  A    between atoms: C_14  and  C_16
REMARK   10  A    between atoms: C_14  and  C_23
REMARK                            x       y       z     vdW  Elec       q    Type
REMARK                         _______ _______ _______ _____ _____    ______ ____
ROOT
ATOM      1  N   UNL     1      -1.432   1.617  -0.880  0.00  0.00    -0.287 N 
ATOM      2  C   UNL     1      -1.624   0.822  -1.988  0.00  0.00    +0.172 A 
ATOM      3  N   UNL     1      -1.667   1.620  -3.032  0.00  0.00    -0.128 NA
ATOM      4  N   UNL     1      -1.508   2.839  -2.658  0.00  0.00    -0.122 NA
ATOM      5  C   UNL     1      -1.360   2.898  -1.355  0.00  0.00    +0.194 A 
ENDROOT
BRANCH   2   6
ATOM      6  C   UNL     1      -1.760  -0.644  -2.000  0.00  0.00    +0.056 A 
ATOM      7  C   UNL     1      -2.221  -1.461  -3.001  0.00  0.00    +0.019 A 
ATOM      8  C   UNL     1      -2.255  -2.820  -2.781  0.00  0.00    +0.008 A 
ATOM      9  C   UNL     1      -1.834  -3.308  -1.586  0.00  0.00    +0.046 A 
ATOM     10  S   UNL     1      -1.359  -1.822  -0.720  0.00  0.00    -0.094 S 
ENDBRANCH   2   6
BRANCH   1  11
ATOM     11  C   UNL     1      -1.322   1.182   0.514  0.00  0.00    +0.206 C 
BRANCH  11  13
ATOM     12  C   UNL     1       0.157   1.142   2.528  0.00  0.00    +0.010 C 
ATOM     13  C   UNL     1       0.042   1.597   1.071  0.00  0.00    +0.017 C 
ATOM     14  C   UNL     1       1.151   0.944   0.244  0.00  0.00    +0.010 C 
ENDBRANCH  11  13
BRANCH  11  15
ATOM     15  C   UNL     1      -2.414   1.825   1.329  0.00  0.00    +0.379 C 
ATOM     16  O   UNL     1      -2.131   2.542   2.260  0.00  0.00    -0.244 OA
ATOM     17  O   UNL     1      -3.701   1.602   1.021  0.00  0.00    -0.244 OA
ENDBRANCH  11  15
ENDBRANCH   1  11
BRANCH   5  18
ATOM     18  S   UNL     1      -1.113   4.355  -0.395  0.00  0.00    -0.068 S 
BRANCH  18  19
ATOM     19  C   UNL     1      -1.137   5.602  -1.707  0.00  0.00    +0.169 C 
BRANCH  19  20
ATOM     20  C   UNL     1      -1.061   6.977  -1.094  0.00  0.00    -0.025 A 
ATOM     21  C   UNL     1      -0.084   7.263  -0.159  0.00  0.00    +0.008 A 
ATOM     22  C   UNL     1      -0.011   8.525   0.401  0.00  0.00    +0.038 A 
ATOM     23  C   UNL     1      -0.923   9.499   0.031  0.00  0.00    +0.123 A 
ATOM     24  C   UNL     1      -1.904   9.210  -0.902  0.00  0.00    +0.038 A 
ATOM     25  C   UNL     1      -1.972   7.949  -1.464  0.00  0.00    +0.008 A 
ATOM     26  F   UNL     1      -0.855  10.732   0.581  0.00  0.00    -0.205 F 
ENDBRANCH  19  20
BRANCH  19  27
ATOM     27  C   UNL     1       0.044   5.394  -2.620  0.00  0.00    +0.228 C 
ATOM     28  O   UNL     1      -0.133   5.114  -3.786  0.00  0.00    -0.274 OA
ATOM     29  N   UNL     1       1.297   5.518  -2.139  0.00  0.00    -0.328 N 
ATOM     30  H   UNL     1       1.441   5.668  -1.192  0.00  0.00    +0.145 HD
ATOM     31  H   UNL     1       2.056   5.457  -2.741  0.00  0.00    +0.145 HD
ENDBRANCH  19  27
ENDBRANCH  18  19
ENDBRANCH   5  18
TORSDOF 8
