REMARK  Name = ZINC41195214
REMARK  7 active torsions:
REMARK  status: ('A' for Active; 'I' for Inactive)
REMARK    1  A    between atoms: C_1  and  C_2
REMARK    2  A    between atoms: C_2  and  C_3
REMARK    3  A    between atoms: C_2  and  O_4
REMARK    4  A    between atoms: O_4  and  C_5
REMARK    5  A    between atoms: C_5  and  C_7
REMARK    6  A    between atoms: C_8  and  N_30
REMARK    7  A    between atoms: C_21  and  C_23
REMARK                            x       y       z     vdW  Elec       q    Type
REMARK                         _______ _______ _______ _____ _____    ______ ____
ROOT
ATOM      1  C   UNL     1       2.728  -1.077  -2.212  0.00  0.00    +0.105 C 
ATOM      2  C   UNL     1       4.079  -1.195  -2.134  0.00  0.00    +0.195 C 
ATOM      3  O   UNL     1       4.806  -1.648  -3.169  0.00  0.00    -0.441 OA
ATOM      4  C   UNL     1       4.212  -2.345  -4.156  0.00  0.00    +0.152 A 
ATOM      5  C   UNL     1       5.016  -3.185  -5.056  0.00  0.00    +0.060 A 
ATOM      6  C   UNL     1       6.402  -3.276  -4.912  0.00  0.00    +0.015 A 
ATOM      7  C   UNL     1       7.126  -4.071  -5.773  0.00  0.00    +0.001 A 
ATOM      8  C   UNL     1       6.484  -4.779  -6.778  0.00  0.00    +0.004 A 
ATOM      9  C   UNL     1       5.116  -4.699  -6.932  0.00  0.00    +0.047 A 
ATOM     10  C   UNL     1       4.368  -3.902  -6.074  0.00  0.00    +0.143 A 
ATOM     11  O   UNL     1       3.027  -3.811  -6.210  0.00  0.00    -0.422 OA
ATOM     12  C   UNL     1       2.287  -3.042  -5.396  0.00  0.00    +0.345 A 
ATOM     13  O   UNL     1       1.081  -2.991  -5.564  0.00  0.00    -0.245 OA
ATOM     14  C   UNL     1       2.864  -2.296  -4.353  0.00  0.00    +0.092 A 
ATOM     15  C   UNL     1       1.989  -1.456  -3.466  0.00  0.00    +0.101 C 
ENDROOT
BRANCH  15  16
ATOM     16  C   UNL     1       1.589  -0.206  -4.206  0.00  0.00    -0.035 A 
ATOM     17  C   UNL     1       2.558   0.676  -4.647  0.00  0.00    +0.006 A 
ATOM     18  C   UNL     1       2.191   1.823  -5.327  0.00  0.00    +0.020 A 
ATOM     19  C   UNL     1       0.855   2.088  -5.566  0.00  0.00    +0.041 A 
ATOM     20  C   UNL     1      -0.115   1.205  -5.124  0.00  0.00    +0.020 A 
ATOM     21  C   UNL     1       0.253   0.056  -4.450  0.00  0.00    +0.006 A 
ATOM     22 CL   UNL     1       0.394   3.528  -6.418  0.00  0.00    -0.084 Cl
ENDBRANCH  15  16
BRANCH   2  23
ATOM     23  N   UNL     1       4.714  -0.844  -0.973  0.00  0.00    -0.329 N 
ATOM     24  H   UNL     1       4.194  -0.604  -0.189  0.00  0.00    +0.145 HD
ATOM     25  H   UNL     1       5.683  -0.836  -0.933  0.00  0.00    +0.145 HD
ENDBRANCH   2  23
BRANCH   1  26
ATOM     26  C   UNL     1       2.011  -0.599  -1.105  0.00  0.00    +0.341 C 
ATOM     27  O   UNL     1       1.412  -1.378  -0.385  0.00  0.00    -0.245 OA
BRANCH  26  28
ATOM     28  O   UNL     1       1.985   0.725  -0.837  0.00  0.00    -0.459 OA
BRANCH  28  30
ATOM     29  C   UNL     1       2.143   1.145   1.537  0.00  0.00    +0.052 C 
ATOM     30  C   UNL     1       1.235   1.141   0.306  0.00  0.00    +0.171 C 
ATOM     31  C   UNL     1       0.686   2.549   0.071  0.00  0.00    +0.052 C 
ENDBRANCH  28  30
ENDBRANCH  26  28
ENDBRANCH   1  26
TORSDOF 5
