REMARK  Name = ZINC67029508
REMARK  7 active torsions:
REMARK  status: ('A' for Active; 'I' for Inactive)
REMARK    1  A    between atoms: C_1  and  C_2
REMARK    2  A    between atoms: C_5  and  N_9
REMARK    3  A    between atoms: C_6  and  C_8
REMARK    4  A    between atoms: C_10  and  C_12
REMARK    5  A    between atoms: C_13  and  C_28
REMARK    6  A    between atoms: N_14  and  C_25
REMARK    7  A    between atoms: C_18  and  C_20
REMARK                            x       y       z     vdW  Elec       q    Type
REMARK                         _______ _______ _______ _____ _____    ______ ____
ROOT
ATOM      1  C   UNL     1       0.064  -6.405  -1.441  0.00  0.00    +0.058 C 
ATOM      2  C   UNL     1       0.044  -7.096  -2.600  0.00  0.00    +0.020 C 
ATOM      3  N   UNL     1       0.039  -8.461  -2.607  0.00  0.00    -0.283 N 
ATOM      4  C   UNL     1       0.053  -9.210  -1.497  0.00  0.00    +0.138 C 
ATOM      5  S   UNL     1       0.044 -10.915  -1.648  0.00  0.00    -0.018 S 
ATOM      6  N   UNL     1       0.074  -8.664  -0.265  0.00  0.00    -0.314 N 
ATOM      7  C   UNL     1       0.087  -7.196  -0.149  0.00  0.00    +0.160 C 
ATOM      8  C   UNL     1       0.027  -6.348  -3.909  0.00  0.00    +0.061 C 
ATOM      9  H   UNL     1       0.083  -9.225   0.526  0.00  0.00    +0.149 HD
ENDROOT
BRANCH   7  10
ATOM     10  C   UNL     1      -1.113  -6.789   0.667  0.00  0.00    +0.097 A 
ATOM     11  C   UNL     1      -2.061  -7.676   1.062  0.00  0.00    +0.094 A 
ATOM     12  S   UNL     1      -3.125  -6.694   1.913  0.00  0.00    +0.028 S 
ATOM     13  N   UNL     1      -2.367  -5.274   1.745  0.00  0.00    -0.110 NA
ATOM     14  N   UNL     1      -1.315  -5.547   1.054  0.00  0.00    -0.144 NA
ENDBRANCH   7  10
BRANCH   1  16
ATOM     15  N   UNL     1      -1.062  -4.309  -1.705  0.00  0.00    -0.281 N 
ATOM     16  C   UNL     1       0.069  -4.989  -1.432  0.00  0.00    +0.248 C 
ATOM     17  O   UNL     1       1.096  -4.385  -1.179  0.00  0.00    -0.270 OA
ATOM     18  H   UNL     1      -1.884  -4.790  -1.890  0.00  0.00    +0.155 HD
BRANCH  15  23
ATOM     19  C   UNL     1      -1.017   1.363  -1.774  0.00  0.00    +0.044 C 
ATOM     20  C   UNL     1      -1.029  -0.144  -1.755  0.00  0.00    -0.050 A 
ATOM     21  C   UNL     1      -0.128  -0.832  -0.963  0.00  0.00    +0.005 A 
ATOM     22  C   UNL     1      -0.136  -2.213  -0.944  0.00  0.00    +0.024 A 
ATOM     23  C   UNL     1      -1.051  -2.911  -1.722  0.00  0.00    +0.037 A 
ATOM     24  C   UNL     1      -1.955  -2.217  -2.516  0.00  0.00    -0.029 A 
ATOM     25  C   UNL     1      -1.945  -0.836  -2.526  0.00  0.00    +0.008 A 
ATOM     26  C   UNL     1      -2.950  -2.971  -3.361  0.00  0.00    +0.045 C 
ENDBRANCH  15  23
ENDBRANCH   1  16
BRANCH   3  27
ATOM     27  C   UNL     1       0.017  -9.146  -3.902  0.00  0.00    +0.080 C 
ATOM     28  C   UNL     1       1.040 -10.260  -4.130  0.00  0.00    +0.025 C 
ATOM     29  C   UNL     1       1.201  -8.916  -4.844  0.00  0.00    +0.025 C 
ENDBRANCH   3  27
TORSDOF 4
