REMARK  Name = ZINC16509202
REMARK  8 active torsions:
REMARK  status: ('A' for Active; 'I' for Inactive)
REMARK    1  A    between atoms: C_1  and  C_2
REMARK    2  A    between atoms: C_5  and  C_8
REMARK    3  A    between atoms: C_18  and  C_20
REMARK    4  A    between atoms: C_20  and  N_21
REMARK    5  A    between atoms: N_21  and  C_22
REMARK    6  A    between atoms: N_21  and  S_25
REMARK    7  A    between atoms: C_22  and  C_23
REMARK    8  A    between atoms: S_25  and  C_28
REMARK                            x       y       z     vdW  Elec       q    Type
REMARK                         _______ _______ _______ _____ _____    ______ ____
ROOT
ATOM      1  C   UNL     1      -2.557   3.851   0.060  0.00  0.00    +0.137 C 
ATOM      2  C   UNL     1      -3.204   3.755   1.440  0.00  0.00    -0.012 A 
ATOM      3  C   UNL     1      -2.512   3.986   2.627  0.00  0.00    +0.013 A 
ATOM      4  C   UNL     1      -3.153   3.888   3.815  0.00  0.00    +0.046 A 
ATOM      5  S   UNL     1      -4.808   3.449   3.305  0.00  0.00    -0.101 S 
ATOM      6  C   UNL     1      -4.521   3.428   1.554  0.00  0.00    -0.003 A 
ATOM      7  C   UNL     1      -5.491   3.125   0.459  0.00  0.00    +0.062 C 
ATOM      8  C   UNL     1      -4.902   3.622  -0.871  0.00  0.00    +0.114 C 
ATOM      9  N   UNL     1      -3.480   3.251  -0.913  0.00  0.00    -0.289 N 
ATOM     10  C   UNL     1      -3.029   2.373  -1.831  0.00  0.00    +0.232 C 
ATOM     11  O   UNL     1      -1.869   2.019  -1.813  0.00  0.00    -0.274 OA
ENDROOT
BRANCH   1  16
ATOM     12  C   UNL     1       2.452   0.969   0.044  0.00  0.00    +0.044 C 
ATOM     13  C   UNL     1       1.145   1.720   0.048  0.00  0.00    -0.050 A 
ATOM     14  C   UNL     1       1.097   3.025  -0.406  0.00  0.00    +0.004 A 
ATOM     15  C   UNL     1      -0.100   3.716  -0.397  0.00  0.00    +0.006 A 
ATOM     16  C   UNL     1      -1.251   3.099   0.056  0.00  0.00    -0.023 A 
ATOM     17  C   UNL     1      -1.203   1.794   0.509  0.00  0.00    +0.006 A 
ATOM     18  C   UNL     1      -0.005   1.105   0.505  0.00  0.00    +0.004 A 
ENDBRANCH   1  16
BRANCH  10  19
ATOM     19  C   UNL     1      -3.966   1.832  -2.880  0.00  0.00    +0.205 C 
BRANCH  19  20
ATOM     20  N   UNL     1      -3.240   0.904  -3.751  0.00  0.00    -0.164 NA
BRANCH  20  21
ATOM     21  S   UNL     1      -2.590   1.443  -5.176  0.00  0.00    +0.062 S 
ATOM     22  O   UNL     1      -2.470   0.308  -6.022  0.00  0.00    -0.153 OA
ATOM     23  O   UNL     1      -3.330   2.597  -5.549  0.00  0.00    -0.153 OA
BRANCH  21  24
ATOM     24  C   UNL     1      -0.951   1.987  -4.827  0.00  0.00    +0.106 A 
ATOM     25  C   UNL     1      -0.720   3.302  -4.468  0.00  0.00    +0.030 A 
ATOM     26  C   UNL     1       0.565   3.728  -4.190  0.00  0.00    +0.022 A 
ATOM     27  C   UNL     1       1.622   2.840  -4.280  0.00  0.00    +0.041 A 
ATOM     28  C   UNL     1       1.392   1.525  -4.645  0.00  0.00    +0.022 A 
ATOM     29  C   UNL     1       0.105   1.099  -4.918  0.00  0.00    +0.030 A 
ATOM     30 CL   UNL     1       3.237   3.376  -3.938  0.00  0.00    -0.084 Cl
ENDBRANCH  21  24
ENDBRANCH  20  21
BRANCH  20  31
ATOM     31  C   UNL     1      -3.090  -0.500  -3.362  0.00  0.00    +0.136 C 
BRANCH  31  32
ATOM     32  C   UNL     1      -4.309  -1.274  -3.794  0.00  0.00    -0.018 C 
ATOM     33  C   UNL     1      -4.176  -2.337  -4.549  0.00  0.00    +0.005 C 
ENDBRANCH  31  32
ENDBRANCH  20  31
ENDBRANCH  19  20
ENDBRANCH  10  19
TORSDOF 7
