REMARK  Name = ZINC16896707
REMARK  7 active torsions:
REMARK  status: ('A' for Active; 'I' for Inactive)
REMARK    1  A    between atoms: C_1  and  C_2
REMARK    2  A    between atoms: C_2  and  C_3
REMARK    3  A    between atoms: C_3  and  C_5
REMARK    4  A    between atoms: C_3  and  N_15
REMARK    5  A    between atoms: N_7  and  C_8
REMARK    6  A    between atoms: C_11  and  O_14
REMARK    7  A    between atoms: C_26  and  C_30
REMARK                            x       y       z     vdW  Elec       q    Type
REMARK                         _______ _______ _______ _____ _____    ______ ____
ROOT
ATOM      1  C   UNL     1      -1.333  -0.607  -0.054  0.00  0.00    +0.177 C 
ENDROOT
BRANCH   1   2
ATOM      2  N   UNL     1      -0.167   0.274  -0.151  0.00  0.00    -0.287 N 
ATOM      3  C   UNL     1      -0.353   1.616  -0.239  0.00  0.00    +0.204 A 
ATOM      4  N   UNL     1       0.660   2.435  -0.326  0.00  0.00    -0.230 NA
ATOM      5  C   UNL     1       1.910   1.978  -0.330  0.00  0.00    +0.116 A 
ATOM      6  C   UNL     1       2.202   0.608  -0.243  0.00  0.00    +0.076 A 
ATOM      7  C   UNL     1       1.067  -0.263  -0.149  0.00  0.00    +0.263 A 
ATOM      8  O   UNL     1       1.218  -1.470  -0.069  0.00  0.00    -0.267 OA
ATOM      9  C   UNL     1       3.620   0.253  -0.260  0.00  0.00    -0.023 A 
ATOM     10  C   UNL     1       4.504   1.269  -0.356  0.00  0.00    -0.004 A 
ATOM     11  S   UNL     1       3.512   2.736  -0.430  0.00  0.00    -0.073 S 
ATOM     12  C   UNL     1       5.998   1.171  -0.393  0.00  0.00    +0.046 C 
ATOM     13  C   UNL     1       6.403  -0.237   0.068  0.00  0.00    -0.009 C 
ATOM     14  C   UNL     1       5.543  -1.263  -0.677  0.00  0.00    +0.008 C 
ATOM     15  C   UNL     1       4.100  -1.193  -0.175  0.00  0.00    +0.037 C 
ATOM     16  C   UNL     1       7.880  -0.480  -0.249  0.00  0.00    +0.008 C 
ENDBRANCH   1   2
BRANCH   1  17
ATOM     17  C   UNL     1      -2.126  -0.258   1.179  0.00  0.00    +0.240 C 
ATOM     18  O   UNL     1      -1.754   0.639   1.905  0.00  0.00    -0.273 OA
ATOM     19  N   UNL     1      -3.249  -0.942   1.474  0.00  0.00    -0.284 N 
ATOM     20  H   UNL     1      -3.589  -1.607   0.855  0.00  0.00    +0.155 HD
BRANCH  19  21
ATOM     21  C   UNL     1      -3.926  -0.693   2.675  0.00  0.00    +0.034 A 
ATOM     22  C   UNL     1      -3.213  -0.344   3.815  0.00  0.00    +0.027 A 
ATOM     23  C   UNL     1      -3.881  -0.094   4.997  0.00  0.00    +0.047 A 
ATOM     24  C   UNL     1      -5.263  -0.202   5.050  0.00  0.00    +0.117 A 
ATOM     25  C   UNL     1      -5.976  -0.555   3.913  0.00  0.00    +0.047 A 
ATOM     26  C   UNL     1      -5.309  -0.800   2.728  0.00  0.00    +0.027 A 
BRANCH  24  27
ATOM     27  O   UNL     1      -5.920   0.040   6.215  0.00  0.00    -0.507 OA
ATOM     28  H   UNL     1      -6.035  -0.743   6.771  0.00  0.00    +0.292 HD
ENDBRANCH  24  27
ENDBRANCH  19  21
ENDBRANCH   1  17
BRANCH   1  30
ATOM     29  C   UNL     1      -1.449  -0.900  -2.533  0.00  0.00    +0.006 C 
ATOM     30  C   UNL     1      -2.212  -0.428  -1.294  0.00  0.00    +0.031 C 
ENDBRANCH   1  30
TORSDOF 5
