REMARK  Name = ZINC09713545
REMARK  7 active torsions:
REMARK  status: ('A' for Active; 'I' for Inactive)
REMARK    1  A    between atoms: C_1  and  C_2
REMARK    2  A    between atoms: C_2  and  N_3
REMARK    3  A    between atoms: N_3  and  C_4
REMARK    4  A    between atoms: N_3  and  S_10
REMARK    5  A    between atoms: S_10  and  C_13
REMARK    6  A    between atoms: C_23  and  C_24
REMARK    7  A    between atoms: C_23  and  N_63
REMARK                            x       y       z     vdW  Elec       q    Type
REMARK                         _______ _______ _______ _____ _____    ______ ____
ROOT
ATOM      1  C   UNL     1      10.788  -4.050  -2.433  0.00  0.00    +0.125 A 
ATOM      2  C   UNL     1       9.885  -5.051  -2.099  0.00  0.00    +0.033 A 
ATOM      3  C   UNL     1       9.075  -4.866  -0.993  0.00  0.00    +0.043 A 
ATOM      4  C   UNL     1       9.184  -3.686  -0.264  0.00  0.00    +0.099 A 
ATOM      5  C   UNL     1      10.848  -2.907  -1.661  0.00  0.00    +0.113 A 
ATOM      6  N   UNL     1       8.372  -3.485   0.846  0.00  0.00    -0.320 N 
ATOM      7  C   UNL     1       8.649  -2.186   1.473  0.00  0.00    +0.088 C 
ATOM      8  C   UNL     1       7.794  -2.037   2.734  0.00  0.00    -0.059 C 
ATOM      9  C   UNL     1       6.096  -3.452   1.748  0.00  0.00    -0.059 C 
ATOM     10  C   UNL     1       6.951  -3.601   0.487  0.00  0.00    +0.088 C 
ATOM     11  N   UNL     1      10.063  -2.690  -0.572  0.00  0.00    -0.348 N 
ATOM     12  H   UNL     1      10.128  -1.829  -0.016  0.00  0.00    +0.167 HD
ATOM     13  N   UNL     1       6.368  -2.133   2.356  0.00  0.00    +0.384 N 
ATOM     14  H   UNL     1       6.154  -1.399   1.670  0.00  0.00    -0.081 HD
ENDROOT
BRANCH   1  15
ATOM     15  S   UNL     1      11.848  -4.238  -3.828  0.00  0.00    +0.076 S 
ATOM     16  O   UNL     1      11.212  -5.162  -4.700  0.00  0.00    -0.150 OA
ATOM     17  O   UNL     1      12.212  -2.927  -4.240  0.00  0.00    -0.150 OA
BRANCH  15  18
ATOM     18  N   UNL     1      13.235  -4.968  -3.295  0.00  0.00    -0.203 N 
BRANCH  18  19
ATOM     19  C   UNL     1      14.347  -4.193  -2.956  0.00  0.00    +0.051 A 
ATOM     20  C   UNL     1      14.859  -4.236  -1.665  0.00  0.00    +0.025 A 
ATOM     21  C   UNL     1      15.961  -3.473  -1.335  0.00  0.00    +0.002 A 
ATOM     22  C   UNL     1      16.549  -2.658  -2.285  0.00  0.00    +0.000 A 
ATOM     23  C   UNL     1      16.039  -2.608  -3.570  0.00  0.00    +0.002 A 
ATOM     24  C   UNL     1      14.940  -3.373  -3.908  0.00  0.00    +0.025 A 
ENDBRANCH  18  19
BRANCH  18  26
ATOM     25  C   UNL     1      13.910  -7.016  -4.450  0.00  0.00    +0.026 C 
ATOM     26  C   UNL     1      13.296  -6.427  -3.178  0.00  0.00    +0.128 C 
ENDBRANCH  18  26
ENDBRANCH  15  18
ENDBRANCH   1  15
BRANCH  13  27
ATOM     27  C   UNL     1       5.515  -1.940   3.548  0.00  0.00    -0.043 C 
BRANCH  27  28
ATOM     28  C   UNL     1       4.080  -1.821   3.105  0.00  0.00    -0.060 A 
ATOM     29  C   UNL     1       3.289  -2.951   3.019  0.00  0.00    +0.005 A 
ATOM     30  C   UNL     1       1.971  -2.848   2.613  0.00  0.00    +0.050 A 
ATOM     31  C   UNL     1       1.440  -1.609   2.291  0.00  0.00    +0.166 A 
ATOM     32  C   UNL     1       2.237  -0.470   2.378  0.00  0.00    +0.166 A 
ATOM     33  C   UNL     1       3.557  -0.582   2.786  0.00  0.00    +0.051 A 
ATOM     34  O   UNL     1       1.492   0.613   2.013  0.00  0.00    -0.453 OA
ATOM     35  C   UNL     1       0.120   0.181   2.095  0.00  0.00    +0.466 C 
ATOM     36  O   UNL     1       0.196  -1.239   1.871  0.00  0.00    -0.453 OA
ENDBRANCH  27  28
ENDBRANCH  13  27
TORSDOF 6
