REMARK  Name = ZINC06159240
REMARK  8 active torsions:
REMARK  status: ('A' for Active; 'I' for Inactive)
REMARK    1  A    between atoms: C_1  and  C_2
REMARK    2  A    between atoms: C_2  and  C_3
REMARK    3  A    between atoms: C_2  and  C_4
REMARK    4  A    between atoms: C_2  and  N_5
REMARK    5  A    between atoms: C_9  and  C_11
REMARK    6  A    between atoms: C_11  and  S_12
REMARK    7  A    between atoms: S_12  and  C_13
REMARK    8  A    between atoms: C_16  and  C_18
REMARK                            x       y       z     vdW  Elec       q    Type
REMARK                         _______ _______ _______ _____ _____    ______ ____
ROOT
ATOM      1  C   UNL     1       3.998   2.640  -0.022  0.00  0.00    +0.175 C 
ENDROOT
BRANCH   1   6
ATOM      2  N   UNL     1       7.577   5.849  -0.039  0.00  0.00    -0.294 N 
ATOM      3  C   UNL     1       7.179   4.562  -0.042  0.00  0.00    +0.306 C 
ATOM      4  O   UNL     1       8.005   3.670  -0.055  0.00  0.00    -0.252 OA
ATOM      5  N   UNL     1       5.865   4.263  -0.031  0.00  0.00    -0.239 N 
ATOM      6  C   UNL     1       5.467   2.975  -0.034  0.00  0.00    +0.231 C 
ATOM      7  O   UNL     1       6.291   2.086  -0.047  0.00  0.00    -0.274 OA
ATOM      8  H   UNL     1       6.918   6.561  -0.029  0.00  0.00    +0.151 HD
ATOM      9  H   UNL     1       5.206   4.974  -0.021  0.00  0.00    +0.159 HD
BRANCH   2  11
ATOM     10  C   UNL     1       9.651   5.591  -1.309  0.00  0.00    +0.031 C 
ATOM     11  C   UNL     1       9.006   6.175  -0.051  0.00  0.00    +0.028 C 
ATOM     12  C   UNL     1       9.183   7.694  -0.044  0.00  0.00    +0.031 C 
ATOM     13  C   UNL     1       9.675   5.578   1.189  0.00  0.00    +0.031 C 
ENDBRANCH   2  11
ENDBRANCH   1   6
BRANCH   1  14
ATOM     14  S   UNL     1       3.788   0.843  -0.030  0.00  0.00    -0.056 S 
BRANCH  14  15
ATOM     15  C   UNL     1       2.029   0.740  -0.013  0.00  0.00    +0.278 A 
ATOM     16  N   UNL     1       1.192   1.751   0.000  0.00  0.00    -0.101 NA
ATOM     17  N   UNL     1      -0.016   1.306   0.009  0.00  0.00    -0.106 NA
ATOM     18  C   UNL     1       0.002  -0.004   0.002  0.00  0.00    +0.250 A 
ATOM     19  O   UNL     1       1.297  -0.391  -0.012  0.00  0.00    -0.411 OA
BRANCH  18  20
ATOM     20  C   UNL     1      -1.177  -0.895   0.009  0.00  0.00    +0.052 A 
ATOM     21  C   UNL     1      -1.008  -2.281  -0.005  0.00  0.00    +0.014 A 
ATOM     22  C   UNL     1      -2.113  -3.107   0.006  0.00  0.00    +0.001 A 
ATOM     23  C   UNL     1      -3.386  -2.565   0.022  0.00  0.00    +0.001 A 
ATOM     24  C   UNL     1      -3.561  -1.193   0.031  0.00  0.00    +0.016 A 
ATOM     25  C   UNL     1      -2.464  -0.354   0.025  0.00  0.00    +0.030 A 
ATOM     26 BR   UNL     1      -2.705   1.521   0.036  0.00  0.00    -0.050 Br
ENDBRANCH  18  20
ENDBRANCH  14  15
ENDBRANCH   1  14
TORSDOF 5
