REMARK  Name = ZINC16924081
REMARK  7 active torsions:
REMARK  status: ('A' for Active; 'I' for Inactive)
REMARK    1  A    between atoms: C_1  and  C_2
REMARK    2  A    between atoms: C_5  and  C_27
REMARK    3  A    between atoms: C_6  and  N_8
REMARK    4  A    between atoms: C_11  and  C_16
REMARK    5  A    between atoms: C_16  and  C_17
REMARK    6  A    between atoms: N_19  and  C_20
REMARK    7  A    between atoms: C_25  and  O_26
REMARK                            x       y       z     vdW  Elec       q    Type
REMARK                         _______ _______ _______ _____ _____    ______ ____
ROOT
ATOM      1  N   UNL     1       0.015  -0.042   0.024  0.00  0.00    -0.200 N 
ATOM      2  C   UNL     1       1.134  -0.746   0.006  0.00  0.00    +0.241 C 
ATOM      3  O   UNL     1       1.138  -1.958   0.001  0.00  0.00    -0.274 OA
ATOM      4  C   UNL     1       2.418   0.072  -0.008  0.00  0.00    +0.151 C 
ATOM      5  S   UNL     1       1.712   1.768   0.009  0.00  0.00    -0.054 S 
ATOM      6  C   UNL     1      -0.013   1.304   0.031  0.00  0.00    +0.286 C 
ATOM      7  O   UNL     1      -0.986   2.033   0.043  0.00  0.00    -0.262 OA
ENDROOT
BRANCH   1  13
ATOM      8  C   UNL     1      -3.703  -2.120  -2.435  0.00  0.00    +0.044 C 
ATOM      9  C   UNL     1      -3.028  -1.752  -1.139  0.00  0.00    -0.049 A 
ATOM     10  C   UNL     1      -3.611  -2.098   0.066  0.00  0.00    +0.004 A 
ATOM     11  C   UNL     1      -2.995  -1.763   1.257  0.00  0.00    +0.005 A 
ATOM     12  C   UNL     1      -1.790  -1.086   1.246  0.00  0.00    -0.029 A 
ATOM     13  C   UNL     1      -1.205  -0.733   0.038  0.00  0.00    +0.048 A 
ATOM     14  C   UNL     1      -1.827  -1.071  -1.156  0.00  0.00    +0.027 A 
ATOM     15  C   UNL     1      -1.116  -0.726   2.545  0.00  0.00    +0.045 C 
ENDBRANCH   1  13
BRANCH   4  16
ATOM     16  C   UNL     1       3.226  -0.182  -1.283  0.00  0.00    +0.120 C 
BRANCH  16  17
ATOM     17  C   UNL     1       4.540   0.550  -1.198  0.00  0.00    +0.219 C 
ATOM     18  O   UNL     1       4.806   1.209  -0.215  0.00  0.00    -0.275 OA
ATOM     19  N   UNL     1       5.422   0.471  -2.215  0.00  0.00    -0.283 N 
ATOM     20  H   UNL     1       5.239  -0.107  -2.972  0.00  0.00    +0.155 HD
BRANCH  19  21
ATOM     21  C   UNL     1       6.603   1.225  -2.178  0.00  0.00    +0.075 A 
ATOM     22  C   UNL     1       7.242   1.458  -0.970  0.00  0.00    +0.027 A 
ATOM     23  C   UNL     1       8.406   2.201  -0.936  0.00  0.00    +0.002 A 
ATOM     24  C   UNL     1       8.937   2.715  -2.105  0.00  0.00    +0.004 A 
ATOM     25  C   UNL     1       8.305   2.487  -3.314  0.00  0.00    +0.047 A 
ATOM     26  C   UNL     1       7.141   1.738  -3.357  0.00  0.00    +0.138 A 
BRANCH  26  27
ATOM     27  O   UNL     1       6.522   1.507  -4.545  0.00  0.00    -0.505 OA
ATOM     28  H   UNL     1       5.868   2.179  -4.785  0.00  0.00    +0.292 HD
ENDBRANCH  26  27
ENDBRANCH  19  21
ENDBRANCH  16  17
ENDBRANCH   4  16
TORSDOF 5
