REMARK  Name = ZINC41586392
REMARK  9 active torsions:
REMARK  status: ('A' for Active; 'I' for Inactive)
REMARK    1  A    between atoms: C_1  and  C_2
REMARK    2  A    between atoms: C_2  and  O_3
REMARK    3  A    between atoms: O_3  and  C_4
REMARK    4  A    between atoms: C_4  and  C_6
REMARK    5  A    between atoms: N_11  and  C_13
REMARK    6  A    between atoms: C_13  and  C_14
REMARK    7  A    between atoms: C_15  and  O_32
REMARK    8  A    between atoms: C_17  and  C_31
REMARK    9  A    between atoms: C_22  and  C_23
REMARK                            x       y       z     vdW  Elec       q    Type
REMARK                         _______ _______ _______ _____ _____    ______ ____
ROOT
ATOM      1  C   UNL     1       2.637  -6.383  -4.952  0.00  0.00    +0.020 A 
ATOM      2  C   UNL     1       1.824  -6.568  -6.059  0.00  0.00    +0.122 A 
ATOM      3  C   UNL     1       2.343  -7.091  -7.239  0.00  0.00    +0.050 A 
ATOM      4  C   UNL     1       3.665  -7.429  -7.317  0.00  0.00    -0.033 A 
ATOM      5  C   UNL     1       4.495  -7.248  -6.210  0.00  0.00    +0.071 A 
ATOM      6  C   UNL     1       3.984  -6.715  -5.016  0.00  0.00    +0.145 A 
ATOM      7  O   UNL     1       4.970  -6.627  -4.096  0.00  0.00    -0.451 OA
ATOM      8  C   UNL     1       6.154  -7.066  -4.582  0.00  0.00    +0.176 C 
ATOM      9  C   UNL     1       7.329  -7.108  -3.911  0.00  0.00    +0.058 C 
ATOM     10  C   UNL     1       5.927  -7.504  -5.972  0.00  0.00    +0.232 C 
ATOM     11  O   UNL     1       6.743  -7.962  -6.753  0.00  0.00    -0.283 OA
ATOM     12  C   UNL     1       4.225  -7.996  -8.596  0.00  0.00    +0.045 C 
ENDROOT
BRANCH   9  13
ATOM     13  C   UNL     1       7.423  -6.544  -2.555  0.00  0.00    -0.019 A 
ATOM     14  C   UNL     1       8.656  -6.458  -1.893  0.00  0.00    +0.028 A 
ATOM     15  C   UNL     1       8.695  -5.922  -0.622  0.00  0.00    +0.111 A 
ATOM     16  N   UNL     1       7.596  -5.495  -0.031  0.00  0.00    -0.263 NA
ATOM     17  C   UNL     1       6.415  -5.557  -0.617  0.00  0.00    +0.111 A 
ATOM     18  C   UNL     1       6.281  -6.072  -1.890  0.00  0.00    +0.028 A 
ENDBRANCH   9  13
BRANCH   2  19
ATOM     19  O   UNL     1       0.510  -6.236  -5.991  0.00  0.00    -0.506 OA
ATOM     20  H   UNL     1       0.321  -5.323  -6.249  0.00  0.00    +0.292 HD
ENDBRANCH   2  19
BRANCH   1  21
ATOM     21  C   UNL     1       2.061  -5.815  -3.680  0.00  0.00    -0.036 C 
BRANCH  21  26
ATOM     22  C   UNL     1       1.533  -2.263  -2.590  0.00  0.00    +0.081 C 
ATOM     23  C   UNL     1       2.991  -1.796  -2.614  0.00  0.00    +0.011 C 
ATOM     24  C   UNL     1       3.705  -2.444  -3.803  0.00  0.00    -0.018 C 
ATOM     25  C   UNL     1       3.586  -3.966  -3.696  0.00  0.00    -0.078 C 
ATOM     26  N   UNL     1       2.169  -4.350  -3.705  0.00  0.00    +0.383 N 
ATOM     27  C   UNL     1       1.493  -3.791  -2.528  0.00  0.00    -0.064 C 
ATOM     28  H   UNL     1       1.731  -3.997  -4.542  0.00  0.00    -0.081 HD
BRANCH  22  29
ATOM     29  C   UNL     1       0.841  -1.692  -1.379  0.00  0.00    +0.308 C 
ATOM     30  O   UNL     1       0.363  -2.431  -0.552  0.00  0.00    -0.251 OA
BRANCH  29  31
ATOM     31  O   UNL     1       0.756  -0.362  -1.220  0.00  0.00    -0.465 OA
BRANCH  31  33
ATOM     32  C   UNL     1       0.090   1.640  -0.041  0.00  0.00    +0.048 C 
ATOM     33  C   UNL     1       0.087   0.110  -0.049  0.00  0.00    +0.229 C 
ENDBRANCH  31  33
ENDBRANCH  29  31
ENDBRANCH  22  29
ENDBRANCH  21  26
ENDBRANCH   1  21
TORSDOF 7
