REMARK  Name = ZINC00538286
REMARK  7 active torsions:
REMARK  status: ('A' for Active; 'I' for Inactive)
REMARK    1  A    between atoms: C_4  and  C_7
REMARK    2  A    between atoms: N_11  and  C_19
REMARK    3  A    between atoms: N_12  and  C_13
REMARK    4  A    between atoms: C_19  and  C_20
REMARK    5  A    between atoms: C_20  and  C_21
REMARK    6  A    between atoms: C_21  and  N_61
REMARK    7  A    between atoms: N_24  and  C_27
REMARK                            x       y       z     vdW  Elec       q    Type
REMARK                         _______ _______ _______ _____ _____    ______ ____
ROOT
ATOM      1  C   UNL     1      -8.031  -2.170   2.837  0.00  0.00    +0.077 A 
ATOM      2  C   UNL     1      -7.884  -1.299   3.875  0.00  0.00    +0.100 A 
ATOM      3  C   UNL     1      -8.286  -1.956   5.056  0.00  0.00    +0.268 A 
ATOM      4  O   UNL     1      -8.292  -1.477   6.176  0.00  0.00    -0.266 OA
ATOM      5  N   UNL     1      -8.660  -3.209   4.728  0.00  0.00    -0.245 N 
ATOM      6  N   UNL     1      -8.510  -3.357   3.343  0.00  0.00    -0.249 N 
ENDROOT
BRANCH   1  10
ATOM      7  C   UNL     1      -7.163  -1.363  -1.241  0.00  0.00    +0.000 A 
ATOM      8  C   UNL     1      -6.258  -1.000  -0.259  0.00  0.00    +0.001 A 
ATOM      9  C   UNL     1      -6.534  -1.259   1.067  0.00  0.00    +0.010 A 
ATOM     10  C   UNL     1      -7.729  -1.889   1.419  0.00  0.00    +0.001 A 
ATOM     11  C   UNL     1      -8.636  -2.257   0.423  0.00  0.00    +0.010 A 
ATOM     12  C   UNL     1      -8.350  -1.988  -0.900  0.00  0.00    +0.001 A 
ENDBRANCH   1  10
BRANCH   6  13
ATOM     13  C   UNL     1      -8.795  -4.509   2.604  0.00  0.00    +0.064 A 
ATOM     14  C   UNL     1      -9.928  -5.260   2.895  0.00  0.00    +0.028 A 
ATOM     15  C   UNL     1     -10.210  -6.394   2.160  0.00  0.00    +0.002 A 
ATOM     16  C   UNL     1      -9.360  -6.790   1.143  0.00  0.00    +0.000 A 
ATOM     17  C   UNL     1      -8.229  -6.048   0.854  0.00  0.00    +0.002 A 
ATOM     18  C   UNL     1      -7.944  -4.909   1.582  0.00  0.00    +0.028 A 
ENDBRANCH   6  13
BRANCH   5  19
ATOM     19  C   UNL     1      -9.145  -4.234   5.656  0.00  0.00    +0.144 C 
BRANCH  19  20
ATOM     20  C   UNL     1      -7.959  -5.036   6.195  0.00  0.00    +0.005 C 
BRANCH  20  21
ATOM     21  C   UNL     1      -8.465  -6.106   7.164  0.00  0.00    -0.077 C 
BRANCH  21  27
ATOM     22  C   UNL     1      -7.783  -8.057   8.426  0.00  0.00    -0.060 C 
ATOM     23  C   UNL     1      -6.573  -8.787   9.014  0.00  0.00    +0.088 C 
ATOM     24  N   UNL     1      -5.662  -9.173   7.928  0.00  0.00    -0.320 N 
ATOM     25  C   UNL     1      -5.204  -7.991   7.184  0.00  0.00    +0.088 C 
ATOM     26  C   UNL     1      -6.414  -7.262   6.596  0.00  0.00    -0.060 C 
ATOM     27  N   UNL     1      -7.311  -6.860   7.700  0.00  0.00    +0.382 N 
ATOM     28  H   UNL     1      -6.792  -6.258   8.350  0.00  0.00    -0.082 HD
BRANCH  24  29
ATOM     29  C   UNL     1      -4.584  -9.901   8.418  0.00  0.00    +0.099 A 
ATOM     30  C   UNL     1      -3.606 -10.359   7.541  0.00  0.00    +0.042 A 
ATOM     31  C   UNL     1      -2.539 -11.083   8.042  0.00  0.00    +0.005 A 
ATOM     32  C   UNL     1      -2.485 -11.324   9.408  0.00  0.00    +0.018 A 
ATOM     33  C   UNL     1      -3.490 -10.840  10.220  0.00  0.00    +0.084 A 
ATOM     34  N   UNL     1      -4.553 -10.126   9.763  0.00  0.00    -0.350 N 
ATOM     35  H   UNL     1      -5.287  -9.778  10.391  0.00  0.00    +0.166 HD
ENDBRANCH  24  29
ENDBRANCH  21  27
ENDBRANCH  20  21
ENDBRANCH  19  20
ENDBRANCH   5  19
TORSDOF 7
