REMARK  Name = ZINC28309798
REMARK  8 active torsions:
REMARK  status: ('A' for Active; 'I' for Inactive)
REMARK    1  A    between atoms: C_1  and  C_2
REMARK    2  A    between atoms: C_5  and  C_7
REMARK    3  A    between atoms: C_8  and  C_9
REMARK    4  A    between atoms: C_8  and  N_18
REMARK    5  A    between atoms: N_11  and  C_12
REMARK    6  A    between atoms: C_19  and  C_21
REMARK    7  A    between atoms: C_26  and  O_27
REMARK    8  A    between atoms: O_27  and  C_28
REMARK                            x       y       z     vdW  Elec       q    Type
REMARK                         _______ _______ _______ _____ _____    ______ ____
ROOT
ATOM      1  C   UNL     1      -2.399   1.075   4.329  0.00  0.00    +0.074 C 
ATOM      2  C   UNL     1      -2.702  -0.239   4.507  0.00  0.00    +0.100 C 
ENDROOT
BRANCH   1   7
ATOM      3  C   UNL     1       0.604   0.820   0.388  0.00  0.00    +0.086 C 
ATOM      4  C   UNL     1      -0.175   1.367   1.556  0.00  0.00    +0.103 A 
ATOM      5  C   UNL     1      -0.179   2.655   1.962  0.00  0.00    +0.045 A 
ATOM      6  C   UNL     1      -1.032   2.738   3.074  0.00  0.00    +0.049 A 
ATOM      7  C   UNL     1      -1.507   1.463   3.300  0.00  0.00    +0.130 A 
ATOM      8  O   UNL     1      -0.972   0.652   2.364  0.00  0.00    -0.461 OA
ENDBRANCH   1   7
BRANCH   2   9
ATOM      9  C   UNL     1      -2.020  -1.262   3.710  0.00  0.00    +0.259 C 
ATOM     10  O   UNL     1      -2.509  -1.642   2.662  0.00  0.00    -0.269 OA
ATOM     11  N   UNL     1      -0.853  -1.782   4.137  0.00  0.00    -0.307 N 
ATOM     12  H   UNL     1      -0.453  -1.500   5.122  0.00  0.00    +0.149 HD
BRANCH  11  13
ATOM     13  C   UNL     1      -0.116  -2.723   3.289  0.00  0.00    +0.073 C 
ATOM     14  C   UNL     1      -0.707  -4.125   3.451  0.00  0.00    +0.022 C 
ATOM     15  C   UNL     1       0.062  -5.108   2.565  0.00  0.00    +0.002 C 
ATOM     16  C   UNL     1       1.535  -5.124   2.981  0.00  0.00    +0.000 C 
ATOM     17  C   UNL     1       2.125  -3.721   2.819  0.00  0.00    +0.002 C 
ATOM     18  C   UNL     1       1.356  -2.739   3.704  0.00  0.00    +0.022 C 
ENDBRANCH  11  13
ENDBRANCH   2   9
BRANCH   2  19
ATOM     19  N   UNL     1      -3.664  -0.614   5.452  0.00  0.00    -0.277 N 
ATOM     20  C   UNL     1      -4.046  -1.902   5.550  0.00  0.00    +0.252 C 
ATOM     21  O   UNL     1      -3.494  -2.753   4.879  0.00  0.00    -0.270 OA
ATOM     22  H   UNL     1      -4.107   0.144   6.116  0.00  0.00    +0.155 HD
BRANCH  20  23
ATOM     23  C   UNL     1      -5.136  -2.280   6.470  0.00  0.00    +0.079 A 
ATOM     24  C   UNL     1      -5.769  -1.307   7.247  0.00  0.00    +0.017 A 
ATOM     25  C   UNL     1      -6.789  -1.667   8.101  0.00  0.00    +0.001 A 
ATOM     26  C   UNL     1      -7.183  -2.991   8.201  0.00  0.00    +0.004 A 
ATOM     27  C   UNL     1      -6.562  -3.964   7.443  0.00  0.00    +0.046 A 
ATOM     28  C   UNL     1      -5.537  -3.619   6.574  0.00  0.00    +0.132 A 
BRANCH  28  29
ATOM     29  O   UNL     1      -4.925  -4.574   5.830  0.00  0.00    -0.494 OA
ATOM     30  C   UNL     1      -5.388  -5.917   5.989  0.00  0.00    +0.277 C 
ENDBRANCH  28  29
ENDBRANCH  20  23
ENDBRANCH   2  19
TORSDOF 6
