REMARK  Name = ZINC54425991
REMARK  6 active torsions:
REMARK  status: ('A' for Active; 'I' for Inactive)
REMARK    1  A    between atoms: C_1  and  C_2
REMARK    2  A    between atoms: C_4  and  C_17
REMARK    3  A    between atoms: C_6  and  C_16
REMARK    4  A    between atoms: C_7  and  O_8
REMARK    5  A    between atoms: O_8  and  C_9
REMARK    6  A    between atoms: C_9  and  C_10
REMARK                            x       y       z     vdW  Elec       q    Type
REMARK                         _______ _______ _______ _____ _____    ______ ____
ROOT
ATOM      1  C   UNL     1       0.028  -2.816  -2.516  0.00  0.00    +0.209 C 
ATOM      2  N   UNL     1       0.921  -3.985  -2.424  0.00  0.00    -0.294 N 
ATOM      3  C   UNL     1       0.430  -5.130  -1.813  0.00  0.00    +0.159 C 
ATOM      4  N   UNL     1      -0.794  -5.606  -2.281  0.00  0.00    -0.259 N 
ATOM      5  C   UNL     1      -1.695  -4.625  -2.688  0.00  0.00    +0.205 A 
ATOM      6  N   UNL     1      -1.324  -3.304  -2.814  0.00  0.00    -0.288 N 
ATOM      7  C   UNL     1      -2.422  -2.614  -3.240  0.00  0.00    +0.072 A 
ATOM      8  C   UNL     1      -2.639  -1.274  -3.539  0.00  0.00    +0.028 A 
ATOM      9  C   UNL     1      -3.912  -0.917  -3.951  0.00  0.00    +0.002 A 
ATOM     10  C   UNL     1      -4.934  -1.845  -4.065  0.00  0.00    +0.002 A 
ATOM     11  C   UNL     1      -4.744  -3.183  -3.774  0.00  0.00    +0.030 A 
ATOM     12  C   UNL     1      -3.464  -3.567  -3.356  0.00  0.00    +0.091 A 
ATOM     13  N   UNL     1      -2.953  -4.768  -3.003  0.00  0.00    -0.214 NA
ATOM     14  N   UNL     1       1.078  -5.727  -0.853  0.00  0.00    -0.375 N 
ATOM     15  H   UNL     1       1.824  -3.955  -2.779  0.00  0.00    +0.151 HD
ATOM     16  H   UNL     1       1.928  -5.373  -0.548  0.00  0.00    +0.158 HD
ATOM     17  H   UNL     1      -1.004  -6.553  -2.321  0.00  0.00    +0.158 HD
ATOM     18  H   UNL     1       0.711  -6.526  -0.444  0.00  0.00    +0.158 HD
ENDROOT
BRANCH   1  22
ATOM     19  C   UNL     1      -0.018   1.503   0.010  0.00  0.00    +0.047 C 
ATOM     20  C   UNL     1       0.002  -0.004   0.002  0.00  0.00    -0.008 A 
ATOM     21  C   UNL     1       0.006  -0.689  -1.198  0.00  0.00    +0.014 A 
ATOM     22  C   UNL     1       0.024  -2.071  -1.206  0.00  0.00    -0.006 A 
ATOM     23  C   UNL     1       0.040  -2.772  -0.014  0.00  0.00    +0.014 A 
ATOM     24  C   UNL     1       0.036  -2.092   1.188  0.00  0.00    -0.008 A 
ATOM     25  C   UNL     1       0.023  -0.705   1.199  0.00  0.00    +0.127 A 
ATOM     26  C   UNL     1       0.052  -2.856   2.487  0.00  0.00    +0.047 C 
BRANCH  25  27
ATOM     27  O   UNL     1       0.025  -0.033   2.381  0.00  0.00    -0.485 OA
BRANCH  27  28
ATOM     28  C   UNL     1      -1.246   0.270   2.957  0.00  0.00    +0.284 C 
BRANCH  28  29
ATOM     29  C   UNL     1      -1.046   1.011   4.254  0.00  0.00    +0.078 A 
ATOM     30  C   UNL     1       0.235   1.290   4.691  0.00  0.00    +0.027 A 
ATOM     31  C   UNL     1       0.409   1.972   5.886  0.00  0.00    +0.003 A 
ATOM     32  C   UNL     1      -0.719   2.349   6.599  0.00  0.00    +0.020 A 
ATOM     33  C   UNL     1      -1.968   2.036   6.100  0.00  0.00    +0.111 A 
ATOM     34  N   UNL     1      -2.095   1.391   4.957  0.00  0.00    -0.256 NA
ENDBRANCH  28  29
ENDBRANCH  27  28
ENDBRANCH  25  27
ENDBRANCH   1  22
TORSDOF 4
