REMARK  Name = ZINC41022964
REMARK  8 active torsions:
REMARK  status: ('A' for Active; 'I' for Inactive)
REMARK    1  A    between atoms: C_1  and  C_2
REMARK    2  A    between atoms: C_2  and  S_3
REMARK    3  A    between atoms: S_3  and  C_4
REMARK    4  A    between atoms: C_9  and  C_25
REMARK    5  A    between atoms: C_11  and  C_15
REMARK    6  A    between atoms: C_12  and  C_14
REMARK    7  A    between atoms: N_17  and  C_18
REMARK    8  A    between atoms: C_22  and  C_24
REMARK                            x       y       z     vdW  Elec       q    Type
REMARK                         _______ _______ _______ _____ _____    ______ ____
ROOT
ATOM      1  C   UNL     1       0.623  -2.354   1.309  0.00  0.00    +0.210 A 
ATOM      2  N   UNL     1       0.106  -3.081   0.308  0.00  0.00    -0.187 NA
ATOM      3  C   UNL     1       0.302  -4.350   0.544  0.00  0.00    +0.219 A 
ATOM      4  N   UNL     1       0.966  -4.461   1.721  0.00  0.00    -0.220 N 
ATOM      5  N   UNL     1       1.163  -3.165   2.193  0.00  0.00    -0.141 NA
ATOM      6  C   UNL     1       1.369  -5.739   2.304  0.00  0.00    +0.177 C 
ATOM      7  C   UNL     1       0.684  -6.862   1.571  0.00  0.00    +0.060 C 
ATOM      8  C   UNL     1       0.037  -6.691   0.409  0.00  0.00    +0.018 C 
ATOM      9  N   UNL     1      -0.060  -5.464  -0.200  0.00  0.00    -0.287 N 
ATOM     10  C   UNL     1      -0.604  -7.885  -0.250  0.00  0.00    +0.061 C 
ATOM     11  H   UNL     1      -0.370  -5.379  -1.115  0.00  0.00    +0.155 HD
ENDROOT
BRANCH   6  12
ATOM     12  C   UNL     1       2.862  -5.897   2.184  0.00  0.00    -0.016 A 
ATOM     13  C   UNL     1       3.460  -5.890   0.938  0.00  0.00    +0.006 A 
ATOM     14  C   UNL     1       4.830  -6.035   0.826  0.00  0.00    +0.003 A 
ATOM     15  C   UNL     1       5.604  -6.188   1.961  0.00  0.00    +0.038 A 
ATOM     16  C   UNL     1       5.007  -6.195   3.210  0.00  0.00    +0.124 A 
ATOM     17  C   UNL     1       3.635  -6.044   3.321  0.00  0.00    +0.044 A 
ATOM     18  F   UNL     1       5.762  -6.345   4.320  0.00  0.00    -0.205 F 
ENDBRANCH   6  12
BRANCH   7  19
ATOM     19  C   UNL     1       0.726  -8.159   2.135  0.00  0.00    +0.248 C 
ATOM     20  O   UNL     1       0.024  -8.430   3.092  0.00  0.00    -0.270 OA
ATOM     21  N   UNL     1       1.543  -9.095   1.612  0.00  0.00    -0.282 N 
ATOM     22  H   UNL     1       2.150  -8.861   0.892  0.00  0.00    +0.155 HD
BRANCH  21  23
ATOM     23  C   UNL     1       1.517 -10.402   2.109  0.00  0.00    +0.034 A 
ATOM     24  C   UNL     1       1.722 -11.476   1.252  0.00  0.00    +0.023 A 
ATOM     25  C   UNL     1       1.695 -12.765   1.746  0.00  0.00    +0.002 A 
ATOM     26  C   UNL     1       1.465 -12.988   3.091  0.00  0.00    +0.003 A 
ATOM     27  C   UNL     1       1.260 -11.921   3.946  0.00  0.00    -0.049 A 
ATOM     28  C   UNL     1       1.291 -10.628   3.460  0.00  0.00    +0.026 A 
ATOM     29  C   UNL     1       1.009 -12.168   5.412  0.00  0.00    +0.044 C 
ENDBRANCH  21  23
ENDBRANCH   7  19
BRANCH   1  30
ATOM     30  S   UNL     1       0.591  -0.595   1.419  0.00  0.00    -0.085 S 
BRANCH  30  32
ATOM     31  C   UNL     1      -0.381   1.449  -0.117  0.00  0.00    +0.016 C 
ATOM     32  C   UNL     1      -0.282  -0.078  -0.085  0.00  0.00    +0.074 C 
ENDBRANCH  30  32
ENDBRANCH   1  30
TORSDOF 5
