REMARK  Name = ZINC63617250
REMARK  8 active torsions:
REMARK  status: ('A' for Active; 'I' for Inactive)
REMARK    1  A    between atoms: C_1  and  C_2
REMARK    2  A    between atoms: C_5  and  C_8
REMARK    3  A    between atoms: C_13  and  N_15
REMARK    4  A    between atoms: C_16  and  C_18
REMARK    5  A    between atoms: C_18  and  S_19
REMARK    6  A    between atoms: S_19  and  C_20
REMARK    7  A    between atoms: C_25  and  C_29
REMARK    8  A    between atoms: C_26  and  C_28
REMARK                            x       y       z     vdW  Elec       q    Type
REMARK                         _______ _______ _______ _____ _____    ______ ____
ROOT
ATOM      1  N   UNL     1      -1.479  -3.875   1.887  0.00  0.00    -0.277 N 
ATOM      2  C   UNL     1      -2.748  -3.865   2.340  0.00  0.00    +0.226 C 
ATOM      3  O   UNL     1      -3.555  -4.658   1.903  0.00  0.00    -0.275 OA
ATOM      4  H   UNL     1      -0.834  -3.241   2.236  0.00  0.00    +0.152 HD
ENDROOT
BRANCH   1   9
ATOM      5  C   UNL     1      -0.119  -4.197  -0.167  0.00  0.00    +0.125 C 
ATOM      6  C   UNL     1       1.251  -4.541   0.387  0.00  0.00    +0.139 C 
ATOM      7  N   UNL     1       1.115  -5.462   1.260  0.00  0.00    -0.094 NA
ATOM      8  O   UNL     1      -0.228  -5.870   1.433  0.00  0.00    -0.370 OA
ATOM      9  C   UNL     1      -1.074  -4.845   0.866  0.00  0.00    +0.305 C 
BRANCH   5  14
ATOM     10  C   UNL     1      -0.877   1.528  -0.358  0.00  0.00    +0.044 C 
ATOM     11  C   UNL     1      -0.679   0.035  -0.308  0.00  0.00    -0.050 A 
ATOM     12  C   UNL     1       0.033  -0.533   0.731  0.00  0.00    +0.003 A 
ATOM     13  C   UNL     1       0.214  -1.903   0.777  0.00  0.00    +0.005 A 
ATOM     14  C   UNL     1      -0.318  -2.704  -0.216  0.00  0.00    -0.034 A 
ATOM     15  C   UNL     1      -1.031  -2.136  -1.255  0.00  0.00    +0.005 A 
ATOM     16  C   UNL     1      -1.216  -0.767  -1.298  0.00  0.00    +0.003 A 
ENDBRANCH   5  14
ENDBRANCH   1   9
BRANCH   2  17
ATOM     17  C   UNL     1      -3.165  -2.867   3.390  0.00  0.00    +0.173 C 
BRANCH  17  18
ATOM     18  S   UNL     1      -4.918  -3.105   3.788  0.00  0.00    -0.078 S 
BRANCH  18  19
ATOM     19  C   UNL     1      -5.248  -1.882   5.013  0.00  0.00    +0.170 A 
ATOM     20  N   UNL     1      -6.498  -1.786   5.544  0.00  0.00    -0.302 N 
ATOM     21  H   UNL     1      -7.199  -2.388   5.250  0.00  0.00    +0.171 HD
ATOM     22  C   UNL     1      -6.757  -0.852   6.484  0.00  0.00    +0.255 A 
ATOM     23  O   UNL     1      -7.871  -0.752   6.971  0.00  0.00    -0.267 OA
ATOM     24  C   UNL     1      -5.718   0.005   6.890  0.00  0.00    +0.035 A 
ATOM     25  C   UNL     1      -4.485  -0.138   6.322  0.00  0.00    +0.049 A 
ATOM     26  N   UNL     1      -4.277  -1.078   5.403  0.00  0.00    -0.228 NA
ATOM     27  C   UNL     1      -3.355   0.768   6.739  0.00  0.00    +0.066 C 
ATOM     28  C   UNL     1      -5.962   1.063   7.935  0.00  0.00    +0.051 C 
ENDBRANCH  18  19
ENDBRANCH  17  18
ENDBRANCH   2  17
TORSDOF 5
