REMARK  Name = ZINC05025332
REMARK  7 active torsions:
REMARK  status: ('A' for Active; 'I' for Inactive)
REMARK    1  A    between atoms: C_1  and  C_2
REMARK    2  A    between atoms: C_2  and  O_3
REMARK    3  A    between atoms: O_3  and  C_4
REMARK    4  A    between atoms: C_7  and  C_10
REMARK    5  A    between atoms: C_16  and  C_19
REMARK    6  A    between atoms: C_22  and  O_26
REMARK    7  A    between atoms: C_23  and  O_25
REMARK                            x       y       z     vdW  Elec       q    Type
REMARK                         _______ _______ _______ _____ _____    ______ ____
ROOT
ATOM      1  C   UNL     1       1.107  -6.015  -1.844  0.00  0.00    +0.186 A 
ATOM      2  N   UNL     1       0.899  -6.935  -0.923  0.00  0.00    -0.126 NA
ATOM      3  N   UNL     1       1.083  -8.113  -1.420  0.00  0.00    -0.120 NA
ATOM      4  C   UNL     1       1.412  -8.012  -2.668  0.00  0.00    +0.213 A 
ATOM      5  N   UNL     1       1.442  -6.670  -2.994  0.00  0.00    -0.186 N 
ATOM      6  N   UNL     1       1.772  -6.206  -4.262  0.00  0.00    -0.166 NA
ATOM      7  C   UNL     1       1.749  -6.928  -5.325  0.00  0.00    +0.080 C 
ATOM      8  C   UNL     1       1.329  -8.365  -5.418  0.00  0.00    +0.135 C 
ATOM      9  S   UNL     1       1.778  -9.242  -3.880  0.00  0.00    -0.078 S 
ENDROOT
BRANCH   1  13
ATOM     10  C   UNL     1       0.777  -1.810  -1.336  0.00  0.00    +0.121 A 
ATOM     11  C   UNL     1       0.241  -2.667  -0.384  0.00  0.00    +0.046 A 
ATOM     12  C   UNL     1       0.346  -4.032  -0.545  0.00  0.00    +0.015 A 
ATOM     13  C   UNL     1       0.992  -4.552  -1.668  0.00  0.00    +0.021 A 
ATOM     14  C   UNL     1       1.529  -3.687  -2.623  0.00  0.00    +0.015 A 
ATOM     15  C   UNL     1       1.415  -2.324  -2.457  0.00  0.00    +0.046 A 
BRANCH  10  16
ATOM     16  O   UNL     1       0.671  -0.465  -1.174  0.00  0.00    -0.492 OA
BRANCH  16  18
ATOM     17  C   UNL     1      -0.019   1.526   0.010  0.00  0.00    +0.048 C 
ATOM     18  C   UNL     1       0.002  -0.004   0.002  0.00  0.00    +0.225 C 
ENDBRANCH  16  18
ENDBRANCH  10  16
ENDBRANCH   1  13
BRANCH   7  19
ATOM     19  C   UNL     1       2.178  -6.279  -6.577  0.00  0.00    +0.002 A 
ATOM     20  C   UNL     1       2.174  -6.998  -7.775  0.00  0.00    +0.013 A 
ATOM     21  C   UNL     1       2.575  -6.390  -8.945  0.00  0.00    +0.050 A 
ATOM     22  C   UNL     1       2.983  -5.064  -8.937  0.00  0.00    +0.158 A 
ATOM     23  C   UNL     1       2.990  -4.340  -7.746  0.00  0.00    +0.159 A 
ATOM     24  C   UNL     1       2.583  -4.942  -6.570  0.00  0.00    +0.059 A 
BRANCH  23  25
ATOM     25  O   UNL     1       3.391  -3.041  -7.742  0.00  0.00    -0.503 OA
ATOM     26  H   UNL     1       2.675  -2.408  -7.893  0.00  0.00    +0.292 HD
ENDBRANCH  23  25
BRANCH  22  27
ATOM     27  O   UNL     1       3.379  -4.469 -10.094  0.00  0.00    -0.503 OA
ATOM     28  H   UNL     1       2.662  -4.040 -10.580  0.00  0.00    +0.292 HD
ENDBRANCH  22  27
ENDBRANCH   7  19
TORSDOF 6
