REMARK  Name = ZINC35369672
REMARK  4 active torsions:
REMARK  status: ('A' for Active; 'I' for Inactive)
REMARK    1  A    between atoms: C_1  and  C_2
REMARK    2  A    between atoms: C_5  and  C_7
REMARK    3  A    between atoms: C_7  and  C_9
REMARK    4  A    between atoms: C_18  and  C_21
REMARK                            x       y       z     vdW  Elec       q    Type
REMARK                         _______ _______ _______ _____ _____    ______ ____
ROOT
ATOM      1  C   UNL     1       2.538  -4.120   0.079  0.00  0.00    +0.025 A 
ATOM      2  C   UNL     1       3.374  -3.005   0.192  0.00  0.00    +0.015 A 
ATOM      3  C   UNL     1       4.738  -3.171   0.290  0.00  0.00    +0.048 A 
ATOM      4  C   UNL     1       5.287  -4.445   0.276  0.00  0.00    +0.143 A 
ATOM      5  C   UNL     1       4.457  -5.564   0.162  0.00  0.00    +0.076 A 
ATOM      6  C   UNL     1       3.088  -5.405   0.069  0.00  0.00    +0.038 A 
ATOM      7  N   UNL     1       5.030  -6.844   0.148  0.00  0.00    -0.280 N 
ATOM      8  C   UNL     1       6.309  -6.992   0.558  0.00  0.00    +0.258 C 
ATOM      9  O   UNL     1       6.836  -8.084   0.527  0.00  0.00    -0.271 OA
ATOM     10  C   UNL     1       7.079  -5.794   1.053  0.00  0.00    +0.256 C 
ATOM     11  O   UNL     1       6.630  -4.619   0.373  0.00  0.00    -0.478 OA
ATOM     12  C   UNL     1       6.852  -5.629   2.557  0.00  0.00    +0.062 C 
ATOM     13  H   UNL     1       4.517  -7.610  -0.150  0.00  0.00    +0.155 HD
ENDROOT
BRANCH   1  14
ATOM     14  C   UNL     1       1.076  -3.941  -0.025  0.00  0.00    +0.200 C 
ATOM     15  O   UNL     1       0.560  -2.908   0.362  0.00  0.00    -0.286 OA
BRANCH  14  20
ATOM     16  C   UNL     1      -1.088  -8.461  -2.414  0.00  0.00    +0.051 C 
ATOM     17  C   UNL     1      -0.766  -7.157  -1.731  0.00  0.00    -0.013 A 
ATOM     18  C   UNL     1      -1.633  -6.225  -1.262  0.00  0.00    +0.011 A 
ATOM     19  C   UNL     1      -1.138  -5.093  -0.664  0.00  0.00    +0.019 A 
ATOM     20  C   UNL     1       0.246  -5.005  -0.593  0.00  0.00    +0.060 A 
ATOM     21  S   UNL     1       0.750  -6.529  -1.369  0.00  0.00    -0.090 S 
ENDBRANCH  14  20
ENDBRANCH   1  14
TORSDOF 2
