REMARK  Name = ZINC04226991
REMARK  1 active torsions:
REMARK  status: ('A' for Active; 'I' for Inactive)
REMARK    1  A    between atoms: C_1  and  N_2
REMARK                            x       y       z     vdW  Elec       q    Type
REMARK                         _______ _______ _______ _____ _____    ______ ____
ROOT
ATOM      1  C   UNL     1       2.383   1.015  -0.159  0.00  0.00    +0.134 C 
ATOM      2  N   UNL     1       1.174   1.827   0.001  0.00  0.00    -0.281 N 
ATOM      3  C   UNL     1       1.316   3.259   0.143  0.00  0.00    +0.126 C 
ATOM      4  C   UNL     1       2.676   3.820  -0.318  0.00  0.00    +0.190 C 
ATOM      5  S   UNL     1       2.256   5.618  -0.406  0.00  0.00    -0.027 S 
ATOM      6  O   UNL     1       2.567   6.227   0.839  0.00  0.00    -0.174 OA
ATOM      7  O   UNL     1       2.793   6.160  -1.605  0.00  0.00    -0.174 OA
ATOM      8  C   UNL     1       0.423   5.492  -0.572  0.00  0.00    +0.195 C 
ATOM      9  C   UNL     1       0.228   3.971  -0.687  0.00  0.00    +0.194 C 
ATOM     10  S   UNL     1      -1.371   3.453  -0.003  0.00  0.00    +0.053 S 
ATOM     11  O   UNL     1      -1.480   3.840   1.359  0.00  0.00    -0.155 OA
ATOM     12  O   UNL     1      -2.418   3.718  -0.927  0.00  0.00    -0.155 OA
ATOM     13  N   UNL     1      -1.220   1.795   0.018  0.00  0.00    -0.173 N 
ATOM     14  C   UNL     1      -0.014   1.212   0.009  0.00  0.00    +0.321 C 
ATOM     15  O   UNL     1       0.002  -0.004   0.002  0.00  0.00    -0.251 OA
ATOM     16  H   UNL     1      -2.018   1.243   0.041  0.00  0.00    +0.178 HD
ENDROOT
TORSDOF 0
