REMARK  Name = ZINC35880237
REMARK  5 active torsions:
REMARK  status: ('A' for Active; 'I' for Inactive)
REMARK    1  A    between atoms: C_1  and  N_2
REMARK    2  A    between atoms: N_2  and  C_3
REMARK    3  A    between atoms: C_12  and  N_15
REMARK    4  A    between atoms: C_21  and  C_26
REMARK    5  A    between atoms: C_29  and  C_32
REMARK                            x       y       z     vdW  Elec       q    Type
REMARK                         _______ _______ _______ _____ _____    ______ ____
ROOT
ATOM      1  N   UNL     1      -3.739  -7.798  -1.755  0.00  0.00    -0.195 N 
ATOM      2  C   UNL     1      -3.008  -8.739  -1.121  0.00  0.00    +0.280 A 
ATOM      3  O   UNL     1      -2.102  -8.420  -0.372  0.00  0.00    -0.265 OA
ATOM      4  C   UNL     1      -3.326 -10.153  -1.349  0.00  0.00    +0.050 A 
ATOM      5  C   UNL     1      -2.611 -11.177  -0.726  0.00  0.00    +0.014 A 
ATOM      6  C   UNL     1      -2.942 -12.479  -0.968  0.00  0.00    +0.009 A 
ATOM      7  C   UNL     1      -3.992 -12.802  -1.836  0.00  0.00    -0.017 A 
ATOM      8  C   UNL     1      -4.717 -11.800  -2.467  0.00  0.00    +0.018 A 
ATOM      9  C   UNL     1      -4.389 -10.465  -2.229  0.00  0.00    +0.008 A 
ATOM     10  C   UNL     1      -5.117  -9.367  -2.865  0.00  0.00    +0.142 A 
ATOM     11  N   UNL     1      -4.786  -8.135  -2.612  0.00  0.00    -0.171 NA
ENDROOT
BRANCH   1  20
ATOM     12  C   UNL     1      -2.980  -0.107  -0.322  0.00  0.00    -0.053 C 
ATOM     13  C   UNL     1      -1.496  -0.522  -0.139  0.00  0.00    +0.005 C 
ATOM     14  C   UNL     1      -1.407  -1.768  -1.055  0.00  0.00    +0.105 C 
ATOM     15  N   UNL     1      -2.704  -2.450  -0.893  0.00  0.00    -0.317 N 
ATOM     16  C   UNL     1      -3.707  -1.461  -0.462  0.00  0.00    +0.091 C 
ATOM     17  C   UNL     1      -2.942  -3.802  -1.114  0.00  0.00    +0.121 A 
ATOM     18  C   UNL     1      -1.879  -4.647  -1.418  0.00  0.00    +0.046 A 
ATOM     19  C   UNL     1      -2.127  -5.989  -1.635  0.00  0.00    +0.033 A 
ATOM     20  C   UNL     1      -3.441  -6.446  -1.542  0.00  0.00    +0.087 A 
ATOM     21  C   UNL     1      -4.450  -5.545  -1.235  0.00  0.00    +0.140 A 
ATOM     22  N   UNL     1      -4.177  -4.271  -1.028  0.00  0.00    -0.238 NA
BRANCH  12  24
ATOM     23  C   UNL     1      -2.799   1.932   0.929  0.00  0.00    -0.100 C 
ATOM     24  N   UNL     1      -3.464   0.624   0.857  0.00  0.00    +0.380 N 
ATOM     25  H   UNL     1      -3.256   0.094   1.690  0.00  0.00    -0.086 HD
ATOM     26  H   UNL     1      -4.462   0.757   0.784  0.00  0.00    -0.086 HD
ENDBRANCH  12  24
ENDBRANCH   1  20
BRANCH   7  27
ATOM     27  C   UNL     1      -4.332 -14.224  -2.083  0.00  0.00    -0.018 A 
ATOM     28  C   UNL     1      -5.373 -14.554  -2.950  0.00  0.00    +0.009 A 
ATOM     29  C   UNL     1      -5.685 -15.879  -3.177  0.00  0.00    +0.013 A 
ATOM     30  C   UNL     1      -4.968 -16.879  -2.545  0.00  0.00    +0.055 A 
ATOM     31  C   UNL     1      -3.934 -16.557  -1.683  0.00  0.00    +0.013 A 
ATOM     32  C   UNL     1      -3.610 -15.236  -1.454  0.00  0.00    +0.009 A 
BRANCH  30  33
ATOM     33  C   UNL     1      -5.314 -18.324  -2.796  0.00  0.00    +0.417 C 
ATOM     34  F   UNL     1      -4.572 -18.799  -3.882  0.00  0.00    -0.166 F 
ATOM     35  F   UNL     1      -5.012 -19.080  -1.658  0.00  0.00    -0.166 F 
ATOM     36  F   UNL     1      -6.679 -18.434  -3.080  0.00  0.00    -0.166 F 
ENDBRANCH  30  33
ENDBRANCH   7  27
TORSDOF 4
