REMARK  Name = ZINC63714120
REMARK  5 active torsions:
REMARK  status: ('A' for Active; 'I' for Inactive)
REMARK    1  A    between atoms: C_1  and  C_2
REMARK    2  A    between atoms: C_5  and  N_12
REMARK    3  A    between atoms: C_13  and  C_15
REMARK    4  A    between atoms: C_16  and  C_17
REMARK    5  A    between atoms: C_20  and  N_23
REMARK                            x       y       z     vdW  Elec       q    Type
REMARK                         _______ _______ _______ _____ _____    ______ ____
ROOT
ATOM      1  N   UNL     1       0.058  -4.190  -0.064  0.00  0.00    -0.280 N 
ATOM      2  C   UNL     1      -0.041  -4.837  -1.242  0.00  0.00    +0.241 C 
ATOM      3  O   UNL     1      -0.054  -4.207  -2.284  0.00  0.00    -0.270 OA
ATOM      4  H   UNL     1       0.150  -4.694   0.760  0.00  0.00    +0.155 HD
ENDROOT
BRANCH   1   9
ATOM      5  C   UNL     1      -0.094   1.501   0.024  0.00  0.00    +0.044 C 
ATOM      6  C   UNL     1      -0.048  -0.005   0.010  0.00  0.00    -0.040 A 
ATOM      7  C   UNL     1      -0.624  -0.696  -1.015  0.00  0.00    +0.006 A 
ATOM      8  C   UNL     1      -0.591  -2.084  -1.043  0.00  0.00    +0.026 A 
ATOM      9  C   UNL     1       0.029  -2.792  -0.030  0.00  0.00    +0.059 A 
ATOM     10  C   UNL     1       0.625  -2.102   1.030  0.00  0.00    +0.087 A 
ATOM     11  C   UNL     1       0.592  -0.696   1.049  0.00  0.00    +0.024 A 
ATOM     12  C   UNL     1       1.271  -0.285   2.221  0.00  0.00    +0.143 A 
ATOM     13  N   UNL     1       1.686  -1.343   2.856  0.00  0.00    -0.181 NA
ATOM     14  N   UNL     1       1.300  -2.494   2.158  0.00  0.00    -0.275 N 
ATOM     15  H   UNL     1       1.487  -3.409   2.421  0.00  0.00    +0.189 HD
ENDBRANCH   1   9
BRANCH   2  16
ATOM     16  C   UNL     1      -0.132  -6.296  -1.270  0.00  0.00    +0.068 C 
ATOM     17  C   UNL     1      -0.231  -6.944  -2.450  0.00  0.00    +0.013 C 
BRANCH  17  18
ATOM     18  C   UNL     1      -0.322  -8.411  -2.477  0.00  0.00    -0.025 A 
ATOM     19  C   UNL     1      -0.313  -9.137  -1.280  0.00  0.00    +0.010 A 
ATOM     20  C   UNL     1      -0.398 -10.505  -1.310  0.00  0.00    +0.025 A 
ATOM     21  C   UNL     1      -0.494 -11.172  -2.529  0.00  0.00    +0.051 A 
ATOM     22  C   UNL     1      -0.504 -10.454  -3.721  0.00  0.00    +0.025 A 
ATOM     23  C   UNL     1      -0.425  -9.085  -3.700  0.00  0.00    +0.010 A 
BRANCH  21  24
ATOM     24  N   UNL     1      -0.581 -12.560  -2.554  0.00  0.00    -0.207 N 
ATOM     25  C   UNL     1      -0.099 -13.499  -1.526  0.00  0.00    +0.133 C 
ATOM     26  C   UNL     1      -0.952 -14.782  -1.513  0.00  0.00    +0.045 C 
ATOM     27  C   UNL     1      -1.105 -15.181  -3.011  0.00  0.00    +0.190 C 
ATOM     28  S   UNL     1      -1.261 -13.508  -3.759  0.00  0.00    +0.046 S 
ATOM     29  O   UNL     1      -2.624 -13.111  -3.829  0.00  0.00    -0.155 OA
ATOM     30  O   UNL     1      -0.396 -13.376  -4.879  0.00  0.00    -0.155 OA
ENDBRANCH  21  24
ENDBRANCH  17  18
ENDBRANCH   2  16
TORSDOF 4
