REMARK  Name = ZINC48090993
REMARK  7 active torsions:
REMARK  status: ('A' for Active; 'I' for Inactive)
REMARK    1  A    between atoms: C_1  and  O_2
REMARK    2  A    between atoms: O_2  and  C_3
REMARK    3  A    between atoms: C_3  and  C_5
REMARK    4  A    between atoms: C_5  and  C_6
REMARK    5  A    between atoms: C_6  and  C_8
REMARK    6  A    between atoms: C_6  and  N_13
REMARK    7  A    between atoms: N_16  and  C_17
REMARK                            x       y       z     vdW  Elec       q    Type
REMARK                         _______ _______ _______ _____ _____    ______ ____
ROOT
ATOM      1  N   UNL     1      -3.356  -2.163  -1.227  0.00  0.00    -0.291 N 
ATOM      2  C   UNL     1      -4.692  -1.990  -1.263  0.00  0.00    +0.304 C 
ATOM      3  O   UNL     1      -5.357  -2.181  -0.263  0.00  0.00    -0.252 OA
ATOM      4  N   UNL     1      -5.291  -1.605  -2.407  0.00  0.00    -0.268 N 
ATOM      5  H   UNL     1      -2.825  -2.010  -2.025  0.00  0.00    +0.151 HD
ATOM      6  H   UNL     1      -4.755  -1.387  -3.186  0.00  0.00    +0.156 HD
ENDROOT
BRANCH   4   7
ATOM      7  C   UNL     1      -6.689  -1.520  -2.472  0.00  0.00    +0.051 A 
ATOM      8  C   UNL     1      -7.423  -1.106  -1.362  0.00  0.00    +0.028 A 
ATOM      9  C   UNL     1      -8.800  -1.036  -1.471  0.00  0.00    +0.043 A 
ATOM     10  C   UNL     1      -9.403  -1.380  -2.677  0.00  0.00    +0.099 A 
ATOM     11  N   UNL     1      -8.674  -1.770  -3.711  0.00  0.00    -0.348 N 
ATOM     12  C   UNL     1      -7.358  -1.842  -3.643  0.00  0.00    +0.107 A 
ATOM     13  N   UNL     1     -10.788  -1.314  -2.797  0.00  0.00    -0.317 N 
ATOM     14  C   UNL     1     -11.721  -0.895  -1.741  0.00  0.00    +0.106 C 
ATOM     15  C   UNL     1     -13.148  -1.004  -2.320  0.00  0.00    +0.020 C 
ATOM     16  C   UNL     1     -12.974  -2.016  -3.482  0.00  0.00    +0.020 C 
ATOM     17  C   UNL     1     -11.562  -1.646  -4.007  0.00  0.00    +0.106 C 
ATOM     18  H   UNL     1      -9.118  -2.005  -4.540  0.00  0.00    +0.167 HD
ENDBRANCH   4   7
BRANCH   1  19
ATOM     19  C   UNL     1      -2.704  -2.581   0.017  0.00  0.00    +0.122 C 
BRANCH  19  20
ATOM     20  C   UNL     1      -2.756  -4.082   0.131  0.00  0.00    +0.011 A 
ATOM     21  C   UNL     1      -2.993  -4.848   1.224  0.00  0.00    +0.013 A 
ATOM     22  C   UNL     1      -2.993  -6.224   1.092  0.00  0.00    +0.008 A 
ATOM     23  C   UNL     1      -2.757  -6.767  -0.128  0.00  0.00    +0.045 A 
ATOM     24  S   UNL     1      -2.530  -5.315  -1.141  0.00  0.00    -0.100 S 
ENDBRANCH  19  20
BRANCH  19  25
ATOM     25  C   UNL     1      -1.245  -2.120   0.008  0.00  0.00    +0.148 C 
BRANCH  25  26
ATOM     26  C   UNL     1      -1.194  -0.614   0.018  0.00  0.00    +0.309 C 
ATOM     27  O   UNL     1      -2.219   0.025   0.030  0.00  0.00    -0.251 OA
BRANCH  26  29
ATOM     28  C   UNL     1      -0.036   1.446   0.023  0.00  0.00    +0.280 C 
ATOM     29  O   UNL     1      -0.009   0.018   0.013  0.00  0.00    -0.468 OA
ENDBRANCH  26  29
ENDBRANCH  25  26
ENDBRANCH  19  25
ENDBRANCH   1  19
TORSDOF 6
