REMARK  Name = ZINC04981190
REMARK  8 active torsions:
REMARK  status: ('A' for Active; 'I' for Inactive)
REMARK    1  A    between atoms: C_1  and  C_2
REMARK    2  A    between atoms: C_2  and  C_4
REMARK    3  A    between atoms: C_7  and  N_10
REMARK    4  A    between atoms: N_13  and  C_16
REMARK    5  A    between atoms: C_19  and  C_22
REMARK    6  A    between atoms: C_22  and  C_23
REMARK    7  A    between atoms: C_22  and  C_24
REMARK    8  A    between atoms: C_22  and  C_25
REMARK                            x       y       z     vdW  Elec       q    Type
REMARK                         _______ _______ _______ _____ _____    ______ ____
ROOT
ATOM      1  N   UNL     1      -4.825  -2.880   0.032  0.00  0.00    -0.333 N 
ATOM      2  C   UNL     1      -6.118  -2.186   0.146  0.00  0.00    +0.086 C 
ATOM      3  C   UNL     1      -7.040  -2.690  -0.970  0.00  0.00    -0.059 C 
ATOM      4  N   UNL     1      -7.129  -4.154  -0.905  0.00  0.00    +0.384 N 
ATOM      5  C   UNL     1      -5.815  -4.749  -1.180  0.00  0.00    -0.059 C 
ATOM      6  C   UNL     1      -4.833  -4.346  -0.081  0.00  0.00    +0.086 C 
ATOM      7  H   UNL     1      -7.436  -4.431   0.015  0.00  0.00    -0.081 HD
ENDROOT
BRANCH   1  11
ATOM      8  C   UNL     1      -1.259  -0.755   0.008  0.00  0.00    +0.017 A 
ATOM      9  C   UNL     1      -1.242  -2.156   0.021  0.00  0.00    +0.013 A 
ATOM     10  C   UNL     1      -2.417  -2.851   0.029  0.00  0.00    +0.024 A 
ATOM     11  C   UNL     1      -3.632  -2.169   0.024  0.00  0.00    +0.030 A 
ATOM     12  C   UNL     1      -3.653  -0.776   0.011  0.00  0.00    +0.024 A 
ATOM     13  C   UNL     1      -2.483  -0.073   0.008  0.00  0.00    +0.013 A 
BRANCH   8  15
ATOM     14  C   UNL     1       1.317  -0.740   0.000  0.00  0.00    +0.091 C 
ATOM     15  C   UNL     1       0.002  -0.004   0.000  0.00  0.00    +0.160 C 
ATOM     16  O   UNL     1      -0.014   1.209  -0.006  0.00  0.00    -0.292 OA
ENDBRANCH   8  15
ENDBRANCH   1  11
BRANCH   4  17
ATOM     17  C   UNL     1      -8.097  -4.628  -1.903  0.00  0.00    -0.068 C 
ATOM     18  C   UNL     1      -9.470  -4.019  -1.612  0.00  0.00    -0.015 C 
ATOM     19  C   UNL     1     -10.478  -4.513  -2.651  0.00  0.00    +0.002 C 
ATOM     20  C   UNL     1     -10.573  -6.038  -2.585  0.00  0.00    -0.006 C 
ATOM     21  C   UNL     1      -9.200  -6.648  -2.877  0.00  0.00    +0.002 C 
ATOM     22  C   UNL     1      -8.192  -6.154  -1.837  0.00  0.00    -0.015 C 
BRANCH  20  23
ATOM     23  C   UNL     1     -11.581  -6.532  -3.625  0.00  0.00    -0.035 C 
ATOM     24  C   UNL     1     -11.122  -6.109  -5.022  0.00  0.00    +0.011 C 
ATOM     25  C   UNL     1     -11.676  -8.058  -3.559  0.00  0.00    +0.011 C 
ATOM     26  C   UNL     1     -12.954  -5.923  -3.333  0.00  0.00    +0.011 C 
ENDBRANCH  20  23
ENDBRANCH   4  17
TORSDOF 4
