REMARK  Name = ZINC12746235
REMARK  8 active torsions:
REMARK  status: ('A' for Active; 'I' for Inactive)
REMARK    1  A    between atoms: C_1  and  N_2
REMARK    2  A    between atoms: C_4  and  C_7
REMARK    3  A    between atoms: C_7  and  N_8
REMARK    4  A    between atoms: C_9  and  C_11
REMARK    5  A    between atoms: C_11  and  C_12
REMARK    6  A    between atoms: C_19  and  C_20
REMARK    7  A    between atoms: C_19  and  N_58
REMARK    8  A    between atoms: C_23  and  C_26
REMARK                            x       y       z     vdW  Elec       q    Type
REMARK                         _______ _______ _______ _____ _____    ______ ____
ROOT
ATOM      1  C   UNL     1      -3.023  -6.431   3.826  0.00  0.00    +0.028 C 
ATOM      2  C   UNL     1      -4.462  -6.739   4.134  0.00  0.00    +0.200 C 
ATOM      3  O   UNL     1      -5.221  -5.816   4.340  0.00  0.00    -0.278 OA
ATOM      4  N   UNL     1      -4.940  -7.984   4.193  0.00  0.00    -0.318 N 
ATOM      5  C   UNL     1      -4.120  -9.162   3.925  0.00  0.00    +0.085 C 
ATOM      6  C   UNL     1      -2.636  -8.803   4.030  0.00  0.00    -0.058 C 
ATOM      7  H   UNL     1      -5.873  -8.113   4.423  0.00  0.00    +0.149 HD
ATOM      8  N   UNL     1      -2.395  -7.608   3.197  0.00  0.00    +0.391 N 
ATOM      9  H   UNL     1      -2.811  -7.756   2.270  0.00  0.00    -0.080 HD
ENDROOT
BRANCH   1  10
ATOM     10  C   UNL     1      -2.953  -5.251   2.855  0.00  0.00    +0.089 C 
BRANCH  10  12
ATOM     11  N   UNL     1      -3.791  -4.699   0.594  0.00  0.00    -0.311 N 
ATOM     12  C   UNL     1      -3.630  -5.624   1.561  0.00  0.00    +0.212 C 
ATOM     13  O   UNL     1      -4.030  -6.756   1.390  0.00  0.00    -0.276 OA
ATOM     14  H   UNL     1      -3.471  -3.794   0.730  0.00  0.00    +0.149 HD
BRANCH  11  15
ATOM     15  C   UNL     1      -4.449  -5.062  -0.664  0.00  0.00    +0.142 C 
BRANCH  15  19
ATOM     16  C   UNL     1      -3.267  -1.634  -4.124  0.00  0.00    +0.172 C 
ATOM     17  N   UNL     1      -3.982  -2.368  -3.077  0.00  0.00    -0.274 N 
ATOM     18  C   UNL     1      -3.562  -3.499  -2.473  0.00  0.00    +0.113 A 
ATOM     19  C   UNL     1      -4.502  -3.858  -1.568  0.00  0.00    +0.007 A 
ATOM     20  C   UNL     1      -5.532  -2.913  -1.621  0.00  0.00    +0.139 A 
ATOM     21  N   UNL     1      -5.219  -2.017  -2.521  0.00  0.00    -0.180 NA
ENDBRANCH  15  19
ENDBRANCH  11  15
ENDBRANCH  10  12
ENDBRANCH   1  10
BRANCH   8  22
ATOM     22  C   UNL     1      -0.940  -7.383   3.041  0.00  0.00    -0.042 C 
BRANCH  22  23
ATOM     23  C   UNL     1      -0.301  -8.638   2.505  0.00  0.00    -0.064 A 
ATOM     24  C   UNL     1       0.191  -9.589   3.380  0.00  0.00    +0.002 A 
ATOM     25  C   UNL     1       0.773 -10.742   2.895  0.00  0.00    +0.009 A 
ATOM     26  C   UNL     1       0.874 -10.943   1.520  0.00  0.00    -0.018 A 
ATOM     27  C   UNL     1       0.382  -9.979   0.642  0.00  0.00    +0.009 A 
ATOM     28  C   UNL     1      -0.203  -8.832   1.139  0.00  0.00    +0.002 A 
BRANCH  26  29
ATOM     29  C   UNL     1       1.504 -12.178   0.992  0.00  0.00    -0.018 A 
ATOM     30  C   UNL     1       1.601 -12.381  -0.384  0.00  0.00    +0.008 A 
ATOM     31  C   UNL     1       2.192 -13.530  -0.869  0.00  0.00    +0.001 A 
ATOM     32  C   UNL     1       2.679 -14.483   0.006  0.00  0.00    +0.000 A 
ATOM     33  C   UNL     1       2.581 -14.290   1.373  0.00  0.00    +0.001 A 
ATOM     34  C   UNL     1       1.996 -13.142   1.869  0.00  0.00    +0.008 A 
ENDBRANCH  26  29
ENDBRANCH  22  23
ENDBRANCH   8  22
TORSDOF 7
