REMARK  Name = ZINC66851335
REMARK  7 active torsions:
REMARK  status: ('A' for Active; 'I' for Inactive)
REMARK    1  A    between atoms: C_1  and  C_2
REMARK    2  A    between atoms: C_6  and  C_23
REMARK    3  A    between atoms: N_9  and  C_10
REMARK    4  A    between atoms: C_10  and  C_11
REMARK    5  A    between atoms: C_11  and  C_12
REMARK    6  A    between atoms: C_12  and  N_13
REMARK    7  A    between atoms: C_21  and  N_22
REMARK                            x       y       z     vdW  Elec       q    Type
REMARK                         _______ _______ _______ _____ _____    ______ ____
ROOT
ATOM      1  C   UNL     1       0.088   0.008   2.423  0.00  0.00    +0.086 C 
ENDROOT
BRANCH   1   8
ATOM      2  C   UNL     1      -0.019   1.526   0.010  0.00  0.00    +0.026 C 
ATOM      3  C   UNL     1       0.002  -0.004   0.002  0.00  0.00    +0.079 C 
ATOM      4  C   UNL     1       0.720  -0.499  -1.256  0.00  0.00    +0.179 C 
ATOM      5  O   UNL     1       0.803  -1.926  -1.222  0.00  0.00    -0.369 OA
ATOM      6  C   UNL     1       1.492  -2.436  -0.077  0.00  0.00    +0.162 C 
ATOM      7  C   UNL     1       0.782  -1.960   1.193  0.00  0.00    +0.121 C 
ATOM      8  N   UNL     1       0.715  -0.492   1.192  0.00  0.00    -0.295 NA
BRANCH   6   9
ATOM      9  C   UNL     1       1.495  -3.942  -0.120  0.00  0.00    -0.018 A 
ATOM     10  C   UNL     1       0.407  -4.620  -0.637  0.00  0.00    +0.006 A 
ATOM     11  C   UNL     1       0.409  -6.002  -0.677  0.00  0.00    +0.000 A 
ATOM     12  C   UNL     1       1.499  -6.705  -0.200  0.00  0.00    +0.000 A 
ATOM     13  C   UNL     1       2.587  -6.027   0.316  0.00  0.00    +0.000 A 
ATOM     14  C   UNL     1       2.587  -4.645   0.352  0.00  0.00    +0.006 A 
ENDBRANCH   6   9
ENDBRANCH   1   8
BRANCH   1  15
ATOM     15  C   UNL     1       0.990  -0.307   3.618  0.00  0.00    +0.037 C 
BRANCH  15  16
ATOM     16  C   UNL     1       0.337   0.214   4.900  0.00  0.00    +0.126 C 
BRANCH  16  17
ATOM     17  N   UNL     1       1.200  -0.088   6.045  0.00  0.00    -0.315 N 
ATOM     18  C   UNL     1       1.106  -1.176   6.861  0.00  0.00    +0.201 A 
ATOM     19  N   UNL     1       2.031  -1.127   7.775  0.00  0.00    -0.231 NA
ATOM     20  C   UNL     1       2.776  -0.008   7.604  0.00  0.00    +0.147 A 
ATOM     21  C   UNL     1       2.255   0.669   6.488  0.00  0.00    +0.165 A 
ATOM     22  N   UNL     1       2.820   1.809   6.103  0.00  0.00    -0.216 NA
ATOM     23  C   UNL     1       3.854   2.298   6.753  0.00  0.00    +0.225 A 
ATOM     24  N   UNL     1       4.380   1.696   7.804  0.00  0.00    -0.219 NA
ATOM     25  C   UNL     1       3.878   0.557   8.268  0.00  0.00    +0.147 A 
BRANCH  25  26
ATOM     26  N   UNL     1       4.437  -0.068   9.369  0.00  0.00    -0.341 N 
ATOM     27  H   UNL     1       4.068  -0.905   9.691  0.00  0.00    +0.144 HD
ATOM     28  H   UNL     1       5.198   0.332   9.819  0.00  0.00    +0.144 HD
ENDBRANCH  25  26
ENDBRANCH  16  17
ENDBRANCH  15  16
ENDBRANCH   1  15
TORSDOF 6
