REMARK  Name = ZINC67620798
REMARK  8 active torsions:
REMARK  status: ('A' for Active; 'I' for Inactive)
REMARK    1  A    between atoms: C_1  and  C_2
REMARK    2  A    between atoms: C_2  and  O_3
REMARK    3  A    between atoms: O_3  and  C_4
REMARK    4  A    between atoms: C_4  and  C_6
REMARK    5  A    between atoms: C_7  and  N_28
REMARK    6  A    between atoms: C_13  and  C_26
REMARK    7  A    between atoms: C_16  and  C_18
REMARK    8  A    between atoms: C_26  and  O_27
REMARK                            x       y       z     vdW  Elec       q    Type
REMARK                         _______ _______ _______ _____ _____    ______ ____
ROOT
ATOM      1  C   UNL     1      -2.786  -2.393   0.011  0.00  0.00    +0.108 C 
ATOM      2  C   UNL     1      -2.937  -3.740  -0.087  0.00  0.00    +0.196 C 
ATOM      3  O   UNL     1      -4.155  -4.306  -0.077  0.00  0.00    -0.435 OA
ATOM      4  C   UNL     1      -5.249  -3.560  -0.368  0.00  0.00    +0.215 A 
ATOM      5  C   UNL     1      -6.449  -4.216  -0.768  0.00  0.00    +0.228 A 
ATOM      6  O   UNL     1      -6.504  -5.433  -0.850  0.00  0.00    -0.284 OA
ATOM      7  C   UNL     1      -7.578  -3.412  -1.066  0.00  0.00    +0.098 A 
ATOM      8  C   UNL     1      -7.465  -2.074  -0.961  0.00  0.00    +0.134 A 
ATOM      9  O   UNL     1      -6.325  -1.493  -0.585  0.00  0.00    -0.457 OA
ATOM     10  C   UNL     1      -5.232  -2.214  -0.290  0.00  0.00    +0.163 A 
ATOM     11  C   UNL     1      -3.979  -1.490   0.141  0.00  0.00    +0.136 C 
ENDROOT
BRANCH  11  12
ATOM     12  C   UNL     1      -4.119  -1.052   1.576  0.00  0.00    +0.038 A 
ATOM     13  C   UNL     1      -4.295  -1.994   2.574  0.00  0.00    +0.130 A 
ATOM     14  C   UNL     1      -4.423  -1.591   3.893  0.00  0.00    +0.039 A 
ATOM     15  C   UNL     1      -4.376  -0.247   4.212  0.00  0.00    +0.006 A 
ATOM     16  C   UNL     1      -4.201   0.696   3.216  0.00  0.00    +0.039 A 
ATOM     17  C   UNL     1      -4.066   0.294   1.898  0.00  0.00    +0.130 A 
ATOM     18  F   UNL     1      -3.889   1.215   0.925  0.00  0.00    -0.205 F 
ATOM     19  F   UNL     1      -4.341  -3.308   2.262  0.00  0.00    -0.205 F 
ENDBRANCH  11  12
BRANCH   2  20
ATOM     20  N   UNL     1      -1.828  -4.535  -0.199  0.00  0.00    -0.329 N 
ATOM     21  H   UNL     1      -0.942  -4.145  -0.131  0.00  0.00    +0.145 HD
ATOM     22  H   UNL     1      -1.927  -5.489  -0.346  0.00  0.00    +0.145 HD
ENDBRANCH   2  20
BRANCH   1  23
ATOM     23  C   UNL     1      -1.498  -1.839  -0.003  0.00  0.00    +0.341 C 
ATOM     24  O   UNL     1      -1.065  -1.329  -1.022  0.00  0.00    -0.245 OA
BRANCH  23  25
ATOM     25  O   UNL     1      -0.736  -1.871   1.112  0.00  0.00    -0.462 OA
BRANCH  25  27
ATOM     26  C   UNL     1       1.273  -1.419   2.376  0.00  0.00    +0.048 C 
ATOM     27  C   UNL     1       0.566  -1.289   1.026  0.00  0.00    +0.229 C 
ENDBRANCH  25  27
ENDBRANCH  23  25
ENDBRANCH   1  23
BRANCH   8  28
ATOM     28  C   UNL     1      -8.658  -1.210  -1.276  0.00  0.00    +0.230 C 
BRANCH  28  29
ATOM     29  O   UNL     1      -9.759  -2.039  -1.654  0.00  0.00    -0.387 OA
ATOM     30  H   UNL     1     -10.564  -1.549  -1.871  0.00  0.00    +0.210 HD
ENDBRANCH  28  29
ENDBRANCH   8  28
TORSDOF 7
