REMARK  Name = ZINC09423851
REMARK  7 active torsions:
REMARK  status: ('A' for Active; 'I' for Inactive)
REMARK    1  A    between atoms: C_1  and  C_2
REMARK    2  A    between atoms: C_2  and  N_3
REMARK    3  A    between atoms: C_5  and  C_12
REMARK    4  A    between atoms: C_19  and  O_30
REMARK    5  A    between atoms: C_20  and  C_23
REMARK    6  A    between atoms: C_23  and  N_59
REMARK    7  A    between atoms: C_26  and  C_29
REMARK                            x       y       z     vdW  Elec       q    Type
REMARK                         _______ _______ _______ _____ _____    ______ ____
ROOT
ATOM      1  C   UNL     1       2.128   6.362  -5.930  0.00  0.00    +0.060 C 
ATOM      2  C   UNL     1       1.389   5.226  -5.786  0.00  0.00    +0.176 C 
ATOM      3  C   UNL     1       0.172   4.938  -6.459  0.00  0.00    +0.231 C 
ATOM      4  O   UNL     1      -0.414   5.641  -7.266  0.00  0.00    -0.283 OA
ATOM      5  C   UNL     1      -0.232   3.607  -5.973  0.00  0.00    +0.068 A 
ATOM      6  C   UNL     1      -1.317   2.774  -6.244  0.00  0.00    +0.019 A 
ATOM      7  C   UNL     1      -1.418   1.563  -5.618  0.00  0.00    +0.046 A 
ATOM      8  C   UNL     1      -0.438   1.156  -4.716  0.00  0.00    +0.122 A 
ATOM      9  C   UNL     1       0.643   1.975  -4.434  0.00  0.00    +0.020 A 
ATOM     10  C   UNL     1       0.760   3.208  -5.061  0.00  0.00    +0.144 A 
ATOM     11  O   UNL     1       1.691   4.183  -4.978  0.00  0.00    -0.451 OA
ENDROOT
BRANCH   1  14
ATOM     12  N   UNL     1       1.119   8.235  -8.895  0.00  0.00    -0.346 N 
ATOM     13  C   UNL     1       1.347   7.070  -8.241  0.00  0.00    +0.094 A 
ATOM     14  C   UNL     1       1.775   7.338  -6.959  0.00  0.00    +0.004 A 
ATOM     15  C   UNL     1       1.801   8.808  -6.831  0.00  0.00    +0.007 A 
ATOM     16  C   UNL     1       1.387   9.312  -8.074  0.00  0.00    +0.050 A 
ATOM     17  C   UNL     1       1.314  10.688  -8.261  0.00  0.00    +0.026 A 
ATOM     18  C   UNL     1       1.653  11.542  -7.234  0.00  0.00    +0.002 A 
ATOM     19  C   UNL     1       2.068  11.042  -6.008  0.00  0.00    +0.001 A 
ATOM     20  C   UNL     1       2.147   9.681  -5.803  0.00  0.00    +0.010 A 
BRANCH  12  22
ATOM     21  C   UNL     1       1.856   8.508 -11.211  0.00  0.00    +0.027 C 
ATOM     22  C   UNL     1       0.653   8.338 -10.280  0.00  0.00    +0.118 C 
ENDBRANCH  12  22
ENDBRANCH   1  14
BRANCH   8  23
ATOM     23  O   UNL     1      -0.545  -0.051  -4.105  0.00  0.00    -0.506 OA
ATOM     24  H   UNL     1      -1.032  -0.028  -3.270  0.00  0.00    +0.292 HD
ENDBRANCH   8  23
BRANCH   9  25
ATOM     25  C   UNL     1       1.694   1.526  -3.451  0.00  0.00    -0.036 C 
BRANCH  25  32
ATOM     26  C   UNL     1       2.191   1.357  -1.088  0.00  0.00    -0.078 C 
ATOM     27  C   UNL     1       1.875   1.952   0.285  0.00  0.00    -0.016 C 
ATOM     28  C   UNL     1       0.404   1.694   0.622  0.00  0.00    -0.018 C 
ATOM     29  C   UNL     1      -0.476   2.303  -0.474  0.00  0.00    -0.016 C 
ATOM     30  C   UNL     1      -0.092   1.698  -1.826  0.00  0.00    -0.078 C 
ATOM     31  C   UNL     1       0.066   2.339   1.967  0.00  0.00    +0.007 C 
ATOM     32  N   UNL     1       1.329   2.002  -2.101  0.00  0.00    +0.383 N 
ATOM     33  H   UNL     1       1.466   3.018  -2.057  0.00  0.00    -0.081 HD
ENDBRANCH  25  32
ENDBRANCH   9  25
TORSDOF 5
