REMARK  Name = ZINC35987096
REMARK  8 active torsions:
REMARK  status: ('A' for Active; 'I' for Inactive)
REMARK    1  A    between atoms: C_1  and  C_2
REMARK    2  A    between atoms: C_6  and  C_8
REMARK    3  A    between atoms: C_11  and  C_31
REMARK    4  A    between atoms: C_21  and  C_23
REMARK    5  A    between atoms: C_27  and  O_29
REMARK    6  A    between atoms: O_29  and  C_30
REMARK    7  A    between atoms: N_33  and  C_34
REMARK    8  A    between atoms: C_34  and  C_35
REMARK                            x       y       z     vdW  Elec       q    Type
REMARK                         _______ _______ _______ _____ _____    ______ ____
ROOT
ATOM      1  C   UNL     1      -0.341  -3.300   2.333  0.00  0.00    +0.249 C 
ATOM      2  O   UNL     1      -0.486  -2.351   3.078  0.00  0.00    -0.270 OA
ATOM      3  N   UNL     1      -0.362  -4.554   2.826  0.00  0.00    -0.255 N 
ATOM      4  C   UNL     1      -0.113  -5.808   2.080  0.00  0.00    +0.190 C 
ATOM      5  C   UNL     1       0.271  -6.803   3.204  0.00  0.00    +0.194 C 
ATOM      6  O   UNL     1      -0.585  -6.387   4.293  0.00  0.00    -0.353 OA
ATOM      7  C   UNL     1      -0.631  -4.953   4.216  0.00  0.00    +0.142 C 
ATOM      8  C   UNL     1      -2.019  -4.466   4.632  0.00  0.00    +0.074 C 
ATOM      9  C   UNL     1      -2.077  -2.939   4.517  0.00  0.00    +0.112 C 
ATOM     10  N   UNL     1      -0.972  -2.364   5.295  0.00  0.00    -0.297 N 
ATOM     11  C   UNL     1       0.397  -2.826   5.027  0.00  0.00    +0.112 C 
ATOM     12  C   UNL     1       0.432  -4.354   5.138  0.00  0.00    +0.074 C 
ATOM     13  C   UNL     1      -1.209  -1.430   6.238  0.00  0.00    +0.247 C 
ATOM     14  O   UNL     1      -2.337  -1.013   6.410  0.00  0.00    -0.270 OA
ENDROOT
BRANCH   1  20
ATOM     15  C   UNL     1       0.659  -0.223  -1.467  0.00  0.00    +0.044 C 
ATOM     16  C   UNL     1       0.340  -1.601  -0.947  0.00  0.00    -0.050 A 
ATOM     17  C   UNL     1       0.233  -2.663  -1.828  0.00  0.00    +0.003 A 
ATOM     18  C   UNL     1      -0.059  -3.932  -1.359  0.00  0.00    +0.001 A 
ATOM     19  C   UNL     1      -0.247  -4.145  -0.009  0.00  0.00    +0.013 A 
ATOM     20  C   UNL     1      -0.141  -3.078   0.885  0.00  0.00    +0.037 A 
ATOM     21  C   UNL     1       0.160  -1.802   0.406  0.00  0.00    +0.016 A 
ENDBRANCH   1  20
BRANCH  13  22
ATOM     22  C   UNL     1      -0.096  -0.913   7.062  0.00  0.00    +0.040 A 
ATOM     23  C   UNL     1      -0.231  -0.831   8.450  0.00  0.00    +0.013 A 
ATOM     24  C   UNL     1       0.810  -0.348   9.216  0.00  0.00    +0.004 A 
ATOM     25  C   UNL     1       1.988   0.056   8.614  0.00  0.00    +0.045 A 
ATOM     26  C   UNL     1       2.131  -0.021   7.236  0.00  0.00    +0.121 A 
ATOM     27  C   UNL     1       1.095  -0.510   6.458  0.00  0.00    +0.058 A 
BRANCH  26  28
ATOM     28  O   UNL     1       3.291   0.378   6.650  0.00  0.00    -0.495 OA
ATOM     29  C   UNL     1       4.319   0.867   7.514  0.00  0.00    +0.277 C 
ENDBRANCH  26  28
ENDBRANCH  13  22
BRANCH   4  30
ATOM     30  C   UNL     1       1.022  -5.633   1.105  0.00  0.00    +0.236 C 
ATOM     31  O   UNL     1       1.840  -4.754   1.278  0.00  0.00    -0.274 OA
ATOM     32  N   UNL     1       1.129  -6.453   0.041  0.00  0.00    -0.307 N 
ATOM     33  H   UNL     1       0.475  -7.156  -0.098  0.00  0.00    +0.149 HD
BRANCH  32  34
ATOM     34  C   UNL     1       2.233  -6.283  -0.907  0.00  0.00    +0.178 C 
BRANCH  34  35
ATOM     35  C   UNL     1       2.123  -7.318  -1.997  0.00  0.00    +0.122 A 
ATOM     36  C   UNL     1       1.458  -7.171  -3.157  0.00  0.00    +0.046 A 
ATOM     37  C   UNL     1       1.616  -8.379  -3.876  0.00  0.00    +0.041 A 
ATOM     38  C   UNL     1       2.368  -9.191  -3.111  0.00  0.00    +0.195 A 
ATOM     39  O   UNL     1       2.677  -8.541  -1.977  0.00  0.00    -0.466 OA
ENDBRANCH  34  35
ENDBRANCH  32  34
ENDBRANCH   4  30
TORSDOF 6
