REMARK  Name = ZINC42415153
REMARK  3 active torsions:
REMARK  status: ('A' for Active; 'I' for Inactive)
REMARK    1  A    between atoms: C_1  and  C_2
REMARK    2  A    between atoms: C_2  and  C_3
REMARK    3  A    between atoms: C_2  and  C_4
REMARK                            x       y       z     vdW  Elec       q    Type
REMARK                         _______ _______ _______ _____ _____    ______ ____
ROOT
ATOM      1  C   UNL     1       0.707  -0.490  -1.238  0.00  0.00    +0.079 A 
ATOM      2  C   UNL     1       1.857  -1.287  -1.268  0.00  0.00    +0.058 A 
ATOM      3  C   UNL     1       2.178  -1.506  -2.565  0.00  0.00    +0.120 A 
ATOM      4  N   UNL     1       1.262  -0.870  -3.328  0.00  0.00    -0.283 N 
ATOM      5  H   UNL     1       1.240  -0.853  -4.298  0.00  0.00    +0.188 HD
ATOM      6  N   UNL     1       0.347  -0.245  -2.471  0.00  0.00    -0.178 NA
ATOM      7 BR   UNL     1       2.798  -1.941   0.236  0.00  0.00    -0.047 Br
ENDROOT
BRANCH   1   9
ATOM      8  C   UNL     1      -0.019   1.526   0.010  0.00  0.00    +0.014 C 
ATOM      9  C   UNL     1       0.002  -0.004   0.002  0.00  0.00    +0.034 C 
ATOM     10  C   UNL     1      -1.433  -0.534   0.013  0.00  0.00    +0.014 C 
ENDBRANCH   1   9
TORSDOF 1
