REMARK  Name = ZINC39487339
REMARK  10 active torsions:
REMARK  status: ('A' for Active; 'I' for Inactive)
REMARK    1  A    between atoms: C_1  and  C_2
REMARK    2  A    between atoms: C_2  and  C_3
REMARK    3  A    between atoms: C_3  and  C_4
REMARK    4  A    between atoms: C_4  and  C_31
REMARK    5  A    between atoms: N_6  and  O_30
REMARK    6  A    between atoms: N_9  and  C_10
REMARK    7  A    between atoms: C_10  and  C_11
REMARK    8  A    between atoms: C_11  and  C_24
REMARK    9  A    between atoms: N_14  and  C_17
REMARK   10  A    between atoms: C_17  and  C_18
REMARK                            x       y       z     vdW  Elec       q    Type
REMARK                         _______ _______ _______ _____ _____    ______ ____
ROOT
ATOM      1  C   UNL     1       1.833  -1.240  -4.629  0.00  0.00    -0.014 C 
ATOM      2  C   UNL     1       3.330  -1.544  -4.731  0.00  0.00    -0.010 C 
ATOM      3  C   UNL     1       3.907  -1.716  -3.324  0.00  0.00    -0.078 C 
ATOM      4  N   UNL     1       3.708  -0.481  -2.556  0.00  0.00    +0.382 N 
ATOM      5  C   UNL     1       2.273  -0.222  -2.393  0.00  0.00    -0.078 C 
ATOM      6  C   UNL     1       1.633   0.007  -3.763  0.00  0.00    -0.010 C 
ATOM      7  H   UNL     1       4.135   0.291  -3.046  0.00  0.00    -0.081 HD
ENDROOT
BRANCH   1   8
ATOM      8  C   UNL     1       1.263  -0.990  -6.027  0.00  0.00    -0.003 C 
ATOM      9  C   UNL     1       1.679  -2.130  -6.959  0.00  0.00    +0.004 C 
ATOM     10  C   UNL     1       1.110  -1.879  -8.357  0.00  0.00    +0.000 C 
ATOM     11  C   UNL     1       1.651  -0.554  -8.898  0.00  0.00    +0.000 C 
ATOM     12  C   UNL     1       1.235   0.586  -7.966  0.00  0.00    +0.000 C 
ATOM     13  C   UNL     1       1.804   0.335  -6.568  0.00  0.00    +0.004 C 
ENDBRANCH   1   8
BRANCH   1  14
ATOM     14  C   UNL     1       1.112  -2.428  -3.988  0.00  0.00    +0.117 C 
BRANCH  14  20
ATOM     15  C   UNL     1      -1.417  -2.619  -4.599  0.00  0.00    +0.054 C 
ATOM     16  C   UNL     1      -2.662  -1.955  -3.978  0.00  0.00    +0.167 C 
ATOM     17  N   UNL     1      -2.116  -1.129  -2.892  0.00  0.00    -0.165 N 
ATOM     18  C   UNL     1      -0.784  -1.267  -2.860  0.00  0.00    +0.328 C 
ATOM     19  O   UNL     1      -0.076  -0.692  -2.056  0.00  0.00    -0.250 OA
ATOM     20  N   UNL     1      -0.302  -2.096  -3.796  0.00  0.00    -0.276 N 
ATOM     21  C   UNL     1      -1.499  -4.142  -4.476  0.00  0.00    +0.033 C 
BRANCH  17  22
ATOM     22  O   UNL     1      -2.877  -0.316  -2.017  0.00  0.00    -0.291 OA
ATOM     23  H   UNL     1      -2.348   0.159  -1.361  0.00  0.00    +0.242 HD
ENDBRANCH  17  22
BRANCH  15  24
ATOM     24  C   UNL     1      -1.263  -2.207  -6.064  0.00  0.00    +0.027 C 
BRANCH  24  26
ATOM     25  C   UNL     1      -2.413  -2.131  -8.281  0.00  0.00    +0.004 C 
ATOM     26  C   UNL     1      -2.472  -2.701  -6.862  0.00  0.00    -0.001 C 
ENDBRANCH  24  26
ENDBRANCH  15  24
ENDBRANCH  14  20
ENDBRANCH   1  14
BRANCH   4  27
ATOM     27  C   UNL     1       4.332  -0.623  -1.234  0.00  0.00    -0.043 C 
BRANCH  27  28
ATOM     28  C   UNL     1       4.281   0.697  -0.510  0.00  0.00    -0.064 A 
ATOM     29  C   UNL     1       5.253   1.653  -0.745  0.00  0.00    +0.002 A 
ATOM     30  C   UNL     1       5.206   2.864  -0.081  0.00  0.00    +0.000 A 
ATOM     31  C   UNL     1       4.188   3.120   0.818  0.00  0.00    +0.000 A 
ATOM     32  C   UNL     1       3.216   2.166   1.053  0.00  0.00    +0.000 A 
ATOM     33  C   UNL     1       3.260   0.956   0.386  0.00  0.00    +0.002 A 
ENDBRANCH  27  28
ENDBRANCH   4  27
TORSDOF 8
