REMARK  Name = ZINC14664722
REMARK  12 active torsions:
REMARK  status: ('A' for Active; 'I' for Inactive)
REMARK    1  A    between atoms: C_1  and  C_2
REMARK    2  A    between atoms: C_7  and  C_8
REMARK    3  A    between atoms: N_10  and  C_11
REMARK    4  A    between atoms: C_14  and  C_17
REMARK    5  A    between atoms: N_19  and  N_20
REMARK    6  A    between atoms: N_20  and  C_21
REMARK    7  A    between atoms: C_21  and  N_23
REMARK    8  A    between atoms: C_24  and  C_26
REMARK    9  A    between atoms: C_31  and  O_32
REMARK   10  A    between atoms: O_32  and  C_33
REMARK   11  A    between atoms: C_33  and  C_34
REMARK   12  A    between atoms: C_33  and  C_35
REMARK                            x       y       z     vdW  Elec       q    Type
REMARK                         _______ _______ _______ _____ _____    ______ ____
ROOT
ATOM      1  C   UNL     1      -8.659  -2.131  -1.011  0.00  0.00    +0.260 C 
ATOM      2  O   UNL     1      -9.603  -1.367  -1.065  0.00  0.00    -0.269 OA
ATOM      3  N   UNL     1      -7.419  -1.656  -0.784  0.00  0.00    -0.231 N 
ATOM      4  H   UNL     1      -6.666  -2.266  -0.741  0.00  0.00    +0.173 HD
ENDROOT
BRANCH   1   8
ATOM      5  C   UNL     1      -9.273  -6.301  -1.534  0.00  0.00    +0.034 A 
ATOM      6  C   UNL     1     -10.354  -5.427  -1.597  0.00  0.00    +0.024 A 
ATOM      7  C   UNL     1     -10.159  -4.075  -1.427  0.00  0.00    +0.015 A 
ATOM      8  C   UNL     1      -8.873  -3.580  -1.193  0.00  0.00    +0.038 A 
ATOM      9  C   UNL     1      -7.788  -4.460  -1.136  0.00  0.00    +0.015 A 
ATOM     10  C   UNL     1      -7.992  -5.812  -1.300  0.00  0.00    +0.024 A 
BRANCH   5  13
ATOM     11  C   UNL     1     -10.589  -8.252  -1.223  0.00  0.00    +0.249 C 
ATOM     12  O   UNL     1     -11.368  -7.608  -0.547  0.00  0.00    -0.270 OA
ATOM     13  N   UNL     1      -9.475  -7.669  -1.706  0.00  0.00    -0.281 N 
ATOM     14  H   UNL     1      -8.812  -8.202  -2.174  0.00  0.00    +0.155 HD
BRANCH  11  21
ATOM     15  C   UNL     1     -12.853  -9.555   0.023  0.00  0.00    +0.044 C 
ATOM     16  C   UNL     1     -11.955 -10.314  -0.920  0.00  0.00    -0.038 A 
ATOM     17  C   UNL     1     -12.207 -11.641  -1.197  0.00  0.00    +0.004 A 
ATOM     18  C   UNL     1     -11.384 -12.339  -2.063  0.00  0.00    +0.000 A 
ATOM     19  C   UNL     1     -10.303 -11.711  -2.657  0.00  0.00    +0.001 A 
ATOM     20  C   UNL     1     -10.042 -10.383  -2.392  0.00  0.00    +0.013 A 
ATOM     21  C   UNL     1     -10.866  -9.675  -1.515  0.00  0.00    +0.040 A 
ENDBRANCH  11  21
ENDBRANCH   5  13
ENDBRANCH   1   8
BRANCH   3  22
ATOM     22  N   UNL     1      -7.216  -0.281  -0.612  0.00  0.00    -0.245 N 
ATOM     23  H   UNL     1      -7.969   0.330  -0.655  0.00  0.00    +0.172 HD
BRANCH  22  24
ATOM     24  C   UNL     1      -5.976   0.195  -0.385  0.00  0.00    +0.153 C 
ATOM     25  S   UNL     1      -5.728   1.876  -0.174  0.00  0.00    -0.017 S 
BRANCH  24  26
ATOM     26  N   UNL     1      -4.930  -0.653  -0.325  0.00  0.00    -0.263 N 
ATOM     27  C   UNL     1      -3.689  -0.178  -0.098  0.00  0.00    +0.253 C 
ATOM     28  O   UNL     1      -3.514   1.016   0.051  0.00  0.00    -0.270 OA
ATOM     29  H   UNL     1      -5.070  -1.605  -0.444  0.00  0.00    +0.157 HD
BRANCH  27  30
ATOM     30  C   UNL     1      -2.545  -1.105  -0.032  0.00  0.00    +0.079 A 
ATOM     31  C   UNL     1      -2.742  -2.478  -0.204  0.00  0.00    +0.017 A 
ATOM     32  C   UNL     1      -1.669  -3.339  -0.142  0.00  0.00    +0.001 A 
ATOM     33  C   UNL     1      -0.393  -2.851   0.090  0.00  0.00    +0.004 A 
ATOM     34  C   UNL     1      -0.183  -1.497   0.258  0.00  0.00    +0.046 A 
ATOM     35  C   UNL     1      -1.253  -0.615   0.203  0.00  0.00    +0.133 A 
BRANCH  35  36
ATOM     36  O   UNL     1      -1.049   0.715   0.371  0.00  0.00    -0.489 OA
BRANCH  36  37
ATOM     37  C   UNL     1       0.272   1.129   0.725  0.00  0.00    +0.167 C 
ATOM     38  C   UNL     1       1.124   1.255  -0.540  0.00  0.00    +0.051 C 
ATOM     39  C   UNL     1       0.209   2.484   1.434  0.00  0.00    +0.051 C 
ENDBRANCH  36  37
ENDBRANCH  35  36
ENDBRANCH  27  30
ENDBRANCH  24  26
ENDBRANCH  22  24
ENDBRANCH   3  22
TORSDOF 9
