REMARK  Name = ZINC35926371
REMARK  7 active torsions:
REMARK  status: ('A' for Active; 'I' for Inactive)
REMARK    1  A    between atoms: C_1  and  C_2
REMARK    2  A    between atoms: C_2  and  C_3
REMARK    3  A    between atoms: C_2  and  C_4
REMARK    4  A    between atoms: C_19  and  C_21
REMARK    5  A    between atoms: C_21  and  N_22
REMARK    6  A    between atoms: N_25  and  C_28
REMARK    7  A    between atoms: C_28  and  C_29
REMARK                            x       y       z     vdW  Elec       q    Type
REMARK                         _______ _______ _______ _____ _____    ______ ____
ROOT
ATOM      1  C   UNL     1      -1.412  -0.526   0.014  0.00  0.00    +0.218 C 
ATOM      2  O   UNL     1      -2.344   0.247  -0.059  0.00  0.00    -0.275 OA
ATOM      3  N   UNL     1      -1.640  -1.850   0.113  0.00  0.00    -0.300 N 
ATOM      4  C   UNL     1      -3.023  -2.313   0.002  0.00  0.00    +0.109 C 
ATOM      5  C   UNL     1      -3.251  -2.773  -1.424  0.00  0.00    +0.038 C 
ATOM      6  C   UNL     1      -2.836  -4.238  -1.584  0.00  0.00    +0.109 C 
ATOM      7  N   UNL     1      -1.588  -4.552  -0.871  0.00  0.00    -0.300 N 
ATOM      8  C   UNL     1      -0.424  -3.684  -0.883  0.00  0.00    +0.127 C 
ATOM      9  C   UNL     1      -0.519  -2.702   0.311  0.00  0.00    +0.126 C 
ATOM     10  C   UNL     1      -1.521  -5.721  -0.162  0.00  0.00    +0.198 A 
ATOM     11  N   UNL     1      -0.379  -6.031   0.510  0.00  0.00    -0.295 N 
ATOM     12  H   UNL     1       0.380  -5.427   0.485  0.00  0.00    +0.172 HD
ATOM     13  C   UNL     1      -0.305  -7.181   1.212  0.00  0.00    +0.253 A 
ATOM     14  O   UNL     1       0.711  -7.474   1.821  0.00  0.00    -0.268 OA
ATOM     15  C   UNL     1      -1.422  -8.036   1.229  0.00  0.00    +0.091 A 
ATOM     16  C   UNL     1      -2.540  -7.673   0.537  0.00  0.00    +0.034 A 
ATOM     17  N   UNL     1      -2.565  -6.525  -0.137  0.00  0.00    -0.223 NA
ENDROOT
BRANCH   1  19
ATOM     18  C   UNL     1       0.037   1.349  -0.718  0.00  0.00    +0.017 C 
ATOM     19  C   UNL     1       0.002  -0.004  -0.005  0.00  0.00    +0.069 C 
ATOM     20  C   UNL     1       0.504   0.163   1.431  0.00  0.00    +0.017 C 
ENDBRANCH   1  19
BRANCH  16  21
ATOM     21  C   UNL     1      -3.751  -8.570   0.539  0.00  0.00    -0.022 C 
BRANCH  21  22
ATOM     22  N   UNL     1      -4.864  -7.889   1.212  0.00  0.00    +0.385 N 
ATOM     23  C   UNL     1      -5.257  -6.706   0.435  0.00  0.00    -0.063 C 
ATOM     24  C   UNL     1      -6.404  -5.986   1.146  0.00  0.00    +0.066 C 
ATOM     25  N   UNL     1      -7.544  -6.903   1.284  0.00  0.00    -0.302 NA
ATOM     26  C   UNL     1      -7.160  -8.104   2.039  0.00  0.00    +0.066 C 
ATOM     27  C   UNL     1      -6.006  -8.807   1.321  0.00  0.00    -0.063 C 
ATOM     28  H   UNL     1      -4.574  -7.603   2.136  0.00  0.00    -0.081 HD
BRANCH  25  29
ATOM     29  C   UNL     1      -8.689  -6.229   1.913  0.00  0.00    +0.119 C 
BRANCH  29  30
ATOM     30  C   UNL     1      -9.906  -7.112   1.816  0.00  0.00    -0.030 A 
ATOM     31  C   UNL     1     -10.742  -7.018   0.719  0.00  0.00    +0.009 A 
ATOM     32  C   UNL     1     -11.859  -7.826   0.625  0.00  0.00    +0.050 A 
ATOM     33  C   UNL     1     -12.145  -8.733   1.633  0.00  0.00    +0.166 A 
ATOM     34  C   UNL     1     -11.303  -8.828   2.738  0.00  0.00    +0.167 A 
ATOM     35  C   UNL     1     -10.182  -8.019   2.822  0.00  0.00    +0.054 A 
ATOM     36  O   UNL     1     -11.796  -9.784   3.580  0.00  0.00    -0.453 OA
ATOM     37  C   UNL     1     -13.164  -9.983   3.177  0.00  0.00    +0.466 C 
ATOM     38  O   UNL     1     -13.164  -9.628   1.782  0.00  0.00    -0.453 OA
ENDBRANCH  29  30
ENDBRANCH  25  29
ENDBRANCH  21  22
ENDBRANCH  16  21
TORSDOF 5
