REMARK  Name = ZINC12869588
REMARK  10 active torsions:
REMARK  status: ('A' for Active; 'I' for Inactive)
REMARK    1  A    between atoms: C_1  and  C_2
REMARK    2  A    between atoms: C_2  and  C_3
REMARK    3  A    between atoms: C_2  and  C_4
REMARK    4  A    between atoms: C_4  and  N_5
REMARK    5  A    between atoms: N_5  and  C_6
REMARK    6  A    between atoms: C_7  and  N_22
REMARK    7  A    between atoms: N_8  and  C_15
REMARK    8  A    between atoms: C_15  and  C_16
REMARK    9  A    between atoms: C_23  and  C_25
REMARK   10  A    between atoms: C_29  and  C_35
REMARK                            x       y       z     vdW  Elec       q    Type
REMARK                         _______ _______ _______ _____ _____    ______ ____
ROOT
ATOM      1  C   UNL     1      -1.147  -0.928   3.025  0.00  0.00    +0.140 A 
ATOM      2  C   UNL     1      -0.945  -2.255   2.704  0.00  0.00    +0.128 A 
ATOM      3  N   UNL     1      -1.684  -3.221   3.346  0.00  0.00    -0.276 N 
ATOM      4  C   UNL     1      -2.594  -2.877   4.275  0.00  0.00    +0.331 A 
ATOM      5  O   UNL     1      -3.238  -3.746   4.831  0.00  0.00    -0.246 OA
ATOM      6  N   UNL     1      -2.804  -1.589   4.601  0.00  0.00    -0.273 N 
ATOM      7  H   UNL     1      -3.466  -1.367   5.275  0.00  0.00    +0.173 HD
ATOM      8  C   UNL     1      -2.102  -0.604   4.006  0.00  0.00    +0.277 A 
ATOM      9  O   UNL     1      -2.297   0.560   4.313  0.00  0.00    -0.266 OA
ENDROOT
BRANCH   1  10
ATOM     10  N   UNL     1      -0.404   0.086   2.384  0.00  0.00    -0.262 N 
ATOM     11  C   UNL     1       0.457   0.843   3.095  0.00  0.00    +0.241 C 
ATOM     12  O   UNL     1       0.624   0.624   4.277  0.00  0.00    -0.273 OA
BRANCH  11  13
ATOM     13  C   UNL     1       1.213   1.960   2.421  0.00  0.00    +0.173 C 
ATOM     14  C   UNL     1       2.589   1.433   1.902  0.00  0.00    +0.103 C 
ATOM     15  S   UNL     1       3.458   3.050   1.698  0.00  0.00    -0.133 S 
ATOM     16  C   UNL     1       2.368   4.068   2.772  0.00  0.00    +0.082 C 
ATOM     17  N   UNL     1       1.492   3.037   3.395  0.00  0.00    -0.275 N 
ATOM     18  C   UNL     1       1.250   3.380   4.677  0.00  0.00    +0.217 C 
ATOM     19  O   UNL     1       0.425   2.848   5.390  0.00  0.00    -0.276 OA
ATOM     20  C   UNL     1       2.149   4.519   5.100  0.00  0.00    +0.099 C 
ATOM     21  C   UNL     1       3.178   4.647   3.944  0.00  0.00    +0.046 C 
ATOM     22  C   UNL     1       1.598   5.138   1.996  0.00  0.00    +0.044 C 
ENDBRANCH  11  13
BRANCH  10  23
ATOM     23  C   UNL     1      -0.569   0.318   0.947  0.00  0.00    +0.117 C 
BRANCH  23  25
ATOM     24  C   UNL     1      -1.578   2.567   1.355  0.00  0.00    +0.009 C 
ATOM     25  C   UNL     1      -1.798   1.197   0.710  0.00  0.00    +0.001 C 
ATOM     26  C   UNL     1      -2.018   1.371  -0.794  0.00  0.00    +0.009 C 
ENDBRANCH  23  25
ENDBRANCH  10  23
ENDBRANCH   1  10
BRANCH   2  27
ATOM     27  N   UNL     1      -0.016  -2.607   1.754  0.00  0.00    -0.343 N 
ATOM     28  H   UNL     1       0.571  -1.933   1.377  0.00  0.00    +0.144 HD
ATOM     29  H   UNL     1       0.052  -3.529   1.461  0.00  0.00    +0.144 HD
ENDBRANCH   2  27
BRANCH   3  30
ATOM     30  C   UNL     1      -1.480  -4.633   3.015  0.00  0.00    +0.163 C 
BRANCH  30  31
ATOM     31  C   UNL     1      -0.414  -5.210   3.910  0.00  0.00    -0.028 A 
ATOM     32  C   UNL     1       0.913  -5.162   3.525  0.00  0.00    +0.005 A 
ATOM     33  C   UNL     1       1.891  -5.691   4.346  0.00  0.00    +0.000 A 
ATOM     34  C   UNL     1       1.542  -6.268   5.553  0.00  0.00    +0.000 A 
ATOM     35  C   UNL     1       0.216  -6.315   5.939  0.00  0.00    +0.000 A 
ATOM     36  C   UNL     1      -0.762  -5.783   5.120  0.00  0.00    +0.005 A 
ENDBRANCH  30  31
ENDBRANCH   3  30
TORSDOF 7
