REMARK  Name = ZINC05643166
REMARK  9 active torsions:
REMARK  status: ('A' for Active; 'I' for Inactive)
REMARK    1  A    between atoms: C_1  and  C_2
REMARK    2  A    between atoms: C_2  and  C_3
REMARK    3  A    between atoms: C_3  and  C_4
REMARK    4  A    between atoms: C_4  and  C_6
REMARK    5  A    between atoms: C_4  and  N_7
REMARK    6  A    between atoms: C_10  and  O_12
REMARK    7  A    between atoms: C_13  and  C_20
REMARK    8  A    between atoms: C_17  and  O_19
REMARK    9  A    between atoms: C_23  and  C_26
REMARK                            x       y       z     vdW  Elec       q    Type
REMARK                         _______ _______ _______ _____ _____    ______ ____
ROOT
ATOM      1  N   UNL     1       1.572  -2.524   2.354  0.00  0.00    -0.240 N 
ATOM      2  C   UNL     1       2.709  -3.300   2.255  0.00  0.00    +0.163 A 
ATOM      3  C   UNL     1       3.150  -3.515   3.532  0.00  0.00    +0.076 A 
ATOM      4  C   UNL     1       2.258  -2.863   4.409  0.00  0.00    +0.238 A 
ATOM      5  N   UNL     1       1.330  -2.274   3.705  0.00  0.00    -0.131 NA
ATOM      6  C   UNL     1       4.348  -4.274   4.020  0.00  0.00    +0.115 C 
ATOM      7  S   UNL     1       4.742  -5.689   2.986  0.00  0.00    -0.138 S 
ATOM      8  C   UNL     1       5.253  -5.012   1.401  0.00  0.00    +0.165 C 
ATOM      9  C   UNL     1       4.144  -4.388   0.650  0.00  0.00    +0.199 C 
ATOM     10  N   UNL     1       3.178  -3.706   1.063  0.00  0.00    -0.197 NA
ENDROOT
BRANCH   6  11
ATOM     11  C   UNL     1       4.079  -4.758   5.421  0.00  0.00    -0.030 A 
ATOM     12  C   UNL     1       3.016  -5.607   5.667  0.00  0.00    +0.005 A 
ATOM     13  C   UNL     1       2.769  -6.051   6.953  0.00  0.00    +0.003 A 
ATOM     14  C   UNL     1       3.586  -5.647   7.992  0.00  0.00    -0.050 A 
ATOM     15  C   UNL     1       4.649  -4.799   7.746  0.00  0.00    +0.003 A 
ATOM     16  C   UNL     1       4.898  -4.358   6.460  0.00  0.00    +0.005 A 
ATOM     17  C   UNL     1       3.316  -6.130   9.394  0.00  0.00    +0.044 C 
ENDBRANCH   6  11
BRANCH   1  18
ATOM     18  C   UNL     1       0.763  -2.041   1.233  0.00  0.00    +0.106 C 
ATOM     19  C   UNL     1      -0.666  -2.571   1.370  0.00  0.00    +0.032 C 
BRANCH  18  20
ATOM     20  C   UNL     1       0.742  -0.511   1.242  0.00  0.00    +0.026 C 
BRANCH  20  22
ATOM     21  C   UNL     1      -0.019   1.526   0.010  0.00  0.00    +0.004 C 
ATOM     22  C   UNL     1       0.002  -0.004   0.002  0.00  0.00    -0.001 C 
ENDBRANCH  20  22
ENDBRANCH  18  20
ENDBRANCH   1  18
BRANCH   4  23
ATOM     23  O   UNL     1       2.353  -2.846   5.766  0.00  0.00    -0.491 OA
ATOM     24  H   UNL     1       2.872  -2.109   6.115  0.00  0.00    +0.294 HD
ENDBRANCH   4  23
BRANCH   9  25
ATOM     25  O   UNL     1       4.176  -4.584  -0.684  0.00  0.00    -0.495 OA
ATOM     26  H   UNL     1       3.443  -4.170  -1.160  0.00  0.00    +0.293 HD
ENDBRANCH   9  25
TORSDOF 6
