REMARK  Name = ZINC11035173
REMARK  9 active torsions:
REMARK  status: ('A' for Active; 'I' for Inactive)
REMARK    1  A    between atoms: C_1  and  C_2
REMARK    2  A    between atoms: N_10  and  N_14
REMARK    3  A    between atoms: C_15  and  C_17
REMARK    4  A    between atoms: C_17  and  N_58
REMARK    5  A    between atoms: C_18  and  C_19
REMARK    6  A    between atoms: C_18  and  N_58
REMARK    7  A    between atoms: C_25  and  C_26
REMARK    8  A    between atoms: C_25  and  C_27
REMARK    9  A    between atoms: C_25  and  N_58
REMARK                            x       y       z     vdW  Elec       q    Type
REMARK                         _______ _______ _______ _____ _____    ______ ____
ROOT
ATOM      1  N   UNL     1       2.106  -3.509   2.590  0.00  0.00    -0.225 N 
ATOM      2  C   UNL     1       1.485  -2.314   2.525  0.00  0.00    +0.213 C 
ATOM      3  O   UNL     1       1.434  -1.604   3.507  0.00  0.00    -0.276 OA
ATOM      4  H   UNL     1       2.147  -4.077   1.804  0.00  0.00    +0.173 HD
ENDROOT
BRANCH   1  14
ATOM      5  C   UNL     1       4.983  -6.258   9.456  0.00  0.00    +0.007 C 
ATOM      6  C   UNL     1       3.991  -6.153   8.296  0.00  0.00    -0.014 C 
ATOM      7  C   UNL     1       3.445  -4.726   8.221  0.00  0.00    +0.006 C 
ATOM      8  C   UNL     1       2.443  -4.624   7.068  0.00  0.00    +0.035 C 
ATOM      9  C   UNL     1       3.133  -4.991   5.759  0.00  0.00    +0.114 C 
ATOM     10  C   UNL     1       3.705  -6.403   5.827  0.00  0.00    +0.035 C 
ATOM     11  C   UNL     1       4.701  -6.497   6.985  0.00  0.00    +0.006 C 
ATOM     12  C   UNL     1       2.167  -4.870   4.603  0.00  0.00    +0.263 C 
ATOM     13  O   UNL     1       1.136  -5.487   4.440  0.00  0.00    -0.271 OA
ATOM     14  N   UNL     1       2.693  -3.930   3.790  0.00  0.00    -0.137 N 
ATOM     15  C   UNL     1       3.848  -3.454   4.271  0.00  0.00    +0.326 C 
ATOM     16  O   UNL     1       4.512  -2.602   3.713  0.00  0.00    -0.251 OA
ATOM     17  N   UNL     1       4.190  -4.021   5.443  0.00  0.00    -0.284 N 
ATOM     18  H   UNL     1       4.980  -3.831   5.972  0.00  0.00    +0.151 HD
ENDBRANCH   1  14
BRANCH   2  19
ATOM     19  C   UNL     1       0.854  -1.862   1.234  0.00  0.00    +0.021 C 
BRANCH  19  20
ATOM     20  N   UNL     1       0.112  -0.608   1.485  0.00  0.00    +0.390 N 
ATOM     21  H   UNL     1       0.633  -0.043   2.166  0.00  0.00    -0.080 HD
BRANCH  20  22
ATOM     22  C   UNL     1      -1.224  -0.914   2.037  0.00  0.00    -0.074 C 
ATOM     23  C   UNL     1      -1.976  -1.879   1.118  0.00  0.00    -0.013 C 
ATOM     24  C   UNL     1      -1.055  -1.552   3.417  0.00  0.00    -0.013 C 
ENDBRANCH  20  22
BRANCH  20  25
ATOM     25  C   UNL     1      -0.023   0.159   0.229  0.00  0.00    -0.042 C 
BRANCH  25  26
ATOM     26  C   UNL     1      -0.431   1.570   0.566  0.00  0.00    -0.064 A 
ATOM     27  C   UNL     1      -1.764   1.936   0.512  0.00  0.00    +0.002 A 
ATOM     28  C   UNL     1      -2.139   3.229   0.826  0.00  0.00    +0.000 A 
ATOM     29  C   UNL     1      -1.180   4.159   1.182  0.00  0.00    +0.000 A 
ATOM     30  C   UNL     1       0.152   3.795   1.230  0.00  0.00    +0.000 A 
ATOM     31  C   UNL     1       0.527   2.501   0.922  0.00  0.00    +0.002 A 
ENDBRANCH  25  26
ENDBRANCH  20  25
ENDBRANCH  19  20
ENDBRANCH   2  19
TORSDOF 6
