REMARK  Name = ZINC21240304
REMARK  9 active torsions:
REMARK  status: ('A' for Active; 'I' for Inactive)
REMARK    1  A    between atoms: C_1  and  C_2
REMARK    2  A    between atoms: C_2  and  C_3
REMARK    3  A    between atoms: C_3  and  O_4
REMARK    4  A    between atoms: O_4  and  C_5
REMARK    5  A    between atoms: C_8  and  C_11
REMARK    6  A    between atoms: C_16  and  C_22
REMARK    7  A    between atoms: C_24  and  N_31
REMARK    8  A    between atoms: C_26  and  O_28
REMARK    9  A    between atoms: O_28  and  C_29
REMARK                            x       y       z     vdW  Elec       q    Type
REMARK                         _______ _______ _______ _____ _____    ______ ____
ROOT
ATOM      1  C   UNL     1       8.330   1.269  -1.984  0.00  0.00    +0.032 C 
ATOM      2  C   UNL     1       7.115   1.583  -2.860  0.00  0.00    +0.059 C 
ATOM      3  C   UNL     1       6.168   2.485  -2.108  0.00  0.00    +0.018 C 
ATOM      4  C   UNL     1       6.072   2.421  -0.763  0.00  0.00    +0.020 C 
ATOM      5  C   UNL     1       5.107   3.325  -0.034  0.00  0.00    +0.063 C 
ATOM      6  C   UNL     1       5.038   4.676  -0.748  0.00  0.00    +0.109 C 
ATOM      7  C   UNL     1       4.847   4.445  -2.224  0.00  0.00    +0.218 C 
ATOM      8  O   UNL     1       4.191   5.227  -2.879  0.00  0.00    -0.275 OA
ATOM      9  N   UNL     1       5.401   3.374  -2.818  0.00  0.00    -0.289 N 
ATOM     10  C   UNL     1       6.855   1.525  -0.016  0.00  0.00    +0.162 C 
ATOM     11  O   UNL     1       6.734   1.489   1.192  0.00  0.00    -0.292 OA
ATOM     12  C   UNL     1       7.842   0.610  -0.689  0.00  0.00    +0.088 C 
ATOM     13  H   UNL     1       5.230   3.216  -3.893  0.00  0.00    +0.155 HD
ENDROOT
BRANCH   5  14
ATOM     14  C   UNL     1       3.738   2.693  -0.020  0.00  0.00    -0.034 A 
ATOM     15  C   UNL     1       3.098   2.410  -1.212  0.00  0.00    +0.041 A 
ATOM     16  C   UNL     1       1.843   1.830  -1.205  0.00  0.00    +0.177 A 
ATOM     17  C   UNL     1       1.224   1.533  -0.001  0.00  0.00    +0.250 A 
ATOM     18  C   UNL     1       1.866   1.824   1.198  0.00  0.00    +0.169 A 
ATOM     19  C   UNL     1       3.126   2.399   1.184  0.00  0.00    +0.054 A 
ATOM     20  O   UNL     1      -0.011   0.963   0.007  0.00  0.00    -0.282 OA
BRANCH  16  21
ATOM     21  N   UNL     1       1.160   1.528  -2.483  0.00  0.00    +0.060 N 
ATOM     22  O   UNL     1       1.704   1.790  -3.541  0.00  0.00    -0.126 OA
ATOM     23  O   UNL     1       0.054   1.018  -2.477  0.00  0.00    -0.126 OA
ENDBRANCH  16  21
BRANCH  18  24
ATOM     24  O   UNL     1       1.260   1.539   2.382  0.00  0.00    -0.491 OA
ATOM     25  C   UNL     1       1.978   1.865   3.574  0.00  0.00    +0.277 C 
ENDBRANCH  18  24
ENDBRANCH   5  14
BRANCH   1  29
ATOM     26  C   UNL     1      10.942  -1.403  -4.057  0.00  0.00    +0.121 A 
ATOM     27  C   UNL     1      11.398  -0.154  -3.661  0.00  0.00    +0.046 A 
ATOM     28  C   UNL     1      10.551   0.708  -2.991  0.00  0.00    +0.007 A 
ATOM     29  C   UNL     1       9.251   0.327  -2.715  0.00  0.00    -0.043 A 
ATOM     30  C   UNL     1       8.796  -0.919  -3.104  0.00  0.00    +0.007 A 
ATOM     31  C   UNL     1       9.637  -1.783  -3.780  0.00  0.00    +0.046 A 
BRANCH  26  32
ATOM     32  O   UNL     1      11.773  -2.252  -4.716  0.00  0.00    -0.492 OA
BRANCH  32  33
ATOM     33  C   UNL     1      11.236  -3.522  -5.094  0.00  0.00    +0.229 C 
BRANCH  33  35
ATOM     34  C   UNL     1      11.736  -5.693  -6.224  0.00  0.00    +0.007 C 
ATOM     35  C   UNL     1      12.311  -4.334  -5.820  0.00  0.00    +0.038 C 
ENDBRANCH  33  35
ENDBRANCH  32  33
ENDBRANCH  26  32
ENDBRANCH   1  29
TORSDOF 7
