REMARK  Name = ZINC38754807
REMARK  5 active torsions:
REMARK  status: ('A' for Active; 'I' for Inactive)
REMARK    1  A    between atoms: C_6  and  C_7
REMARK    2  A    between atoms: C_9  and  C_12
REMARK    3  A    between atoms: C_12  and  N_13
REMARK    4  A    between atoms: C_14  and  C_16
REMARK    5  A    between atoms: C_16  and  C_17
REMARK                            x       y       z     vdW  Elec       q    Type
REMARK                         _______ _______ _______ _____ _____    ______ ____
ROOT
ATOM      1  N   UNL     1      -5.448  -1.209  -1.336  0.00  0.00    -0.310 N 
ATOM      2  C   UNL     1      -6.770  -1.101  -1.575  0.00  0.00    +0.215 C 
ATOM      3  O   UNL     1      -7.540  -0.919  -0.656  0.00  0.00    -0.276 OA
ATOM      4  H   UNL     1      -4.832  -1.355  -2.071  0.00  0.00    +0.149 HD
ENDROOT
BRANCH   1   5
ATOM      5  C   UNL     1      -4.941  -1.107   0.035  0.00  0.00    +0.163 C 
BRANCH   5   8
ATOM      6  C   UNL     1      -1.263  -0.762   0.003  0.00  0.00    +0.168 A 
ATOM      7  C   UNL     1      -2.509  -0.215  -0.002  0.00  0.00    +0.077 A 
ATOM      8  C   UNL     1      -3.442  -1.261   0.028  0.00  0.00    +0.101 A 
ATOM      9  N   UNL     1      -2.790  -2.390   0.051  0.00  0.00    -0.081 NA
ATOM     10  O   UNL     1      -1.404  -2.101   0.030  0.00  0.00    -0.354 OA
BRANCH   6  16
ATOM     11  C   UNL     1       0.014   1.375  -0.051  0.00  0.00    +0.015 A 
ATOM     12  C   UNL     1       1.208   2.065  -0.075  0.00  0.00    +0.050 A 
ATOM     13  C   UNL     1       2.412   1.377  -0.073  0.00  0.00    +0.166 A 
ATOM     14  C   UNL     1       2.420  -0.018  -0.045  0.00  0.00    +0.167 A 
ATOM     15  C   UNL     1       1.227  -0.714  -0.021  0.00  0.00    +0.061 A 
ATOM     16  C   UNL     1       0.015  -0.021  -0.023  0.00  0.00    +0.024 A 
ATOM     17  O   UNL     1       3.716  -0.446  -0.049  0.00  0.00    -0.453 OA
ATOM     18  C   UNL     1       4.493   0.683  -0.491  0.00  0.00    +0.466 C 
ATOM     19  O   UNL     1       3.703   1.819  -0.093  0.00  0.00    -0.453 OA
ENDBRANCH   6  16
ENDBRANCH   5   8
ENDBRANCH   1   5
BRANCH   2  20
ATOM     20  C   UNL     1      -7.292  -1.206  -2.985  0.00  0.00    +0.119 C 
BRANCH  20  21
ATOM     21  C   UNL     1      -8.821  -1.195  -2.965  0.00  0.00    +0.102 C 
ATOM     22  C   UNL     1      -9.325  -2.388  -2.115  0.00  0.00    +0.100 C 
ATOM     23  S   UNL     1     -10.884  -2.773  -3.020  0.00  0.00    -0.088 S 
ATOM     24  C   UNL     1     -10.535  -1.910  -4.528  0.00  0.00    +0.159 C 
ATOM     25  N   UNL     1     -11.240  -1.861  -5.613  0.00  0.00    -0.259 NA
ATOM     26  C   UNL     1     -10.753  -1.032  -6.718  0.00  0.00    +0.120 C 
ATOM     27  C   UNL     1     -11.361  -1.476  -8.041  0.00  0.00    +0.027 C 
ATOM     28  C   UNL     1     -10.850  -2.869  -8.415  0.00  0.00    +0.002 C 
ATOM     29  C   UNL     1      -9.324  -2.826  -8.532  0.00  0.00    +0.001 C 
ATOM     30  C   UNL     1      -8.729  -2.432  -7.180  0.00  0.00    +0.015 C 
ATOM     31  C   UNL     1      -9.230  -1.057  -6.784  0.00  0.00    +0.100 C 
ATOM     32  C   UNL     1      -8.656  -0.751  -5.417  0.00  0.00    +0.227 C 
ATOM     33  O   UNL     1      -7.655  -0.079  -5.287  0.00  0.00    -0.275 OA
ATOM     34  N   UNL     1      -9.316  -1.268  -4.334  0.00  0.00    -0.246 N 
ENDBRANCH  20  21
ENDBRANCH   2  20
TORSDOF 5
