REMARK  Name = ZINC03267136
REMARK  10 active torsions:
REMARK  status: ('A' for Active; 'I' for Inactive)
REMARK    1  A    between atoms: C_1  and  C_2
REMARK    2  A    between atoms: C_2  and  O_3
REMARK    3  A    between atoms: O_3  and  C_4
REMARK    4  A    between atoms: C_4  and  C_6
REMARK    5  A    between atoms: C_10  and  N_11
REMARK    6  A    between atoms: C_12  and  C_14
REMARK    7  A    between atoms: C_14  and  C_22
REMARK    8  A    between atoms: C_15  and  C_16
REMARK    9  A    between atoms: C_27  and  C_28
REMARK   10  A    between atoms: C_27  and  N_59
REMARK                            x       y       z     vdW  Elec       q    Type
REMARK                         _______ _______ _______ _____ _____    ______ ____
ROOT
ATOM      1  C   UNL     1       3.846   5.103  -5.464  0.00  0.00    +0.091 A 
ATOM      2  C   UNL     1       3.653   4.438  -4.189  0.00  0.00    -0.025 A 
ATOM      3  C   UNL     1       2.384   4.056  -3.922  0.00  0.00    -0.021 A 
ATOM      4  S   UNL     1       1.452   4.567  -5.336  0.00  0.00    -0.079 S 
ATOM      5  C   UNL     1       2.727   5.278  -6.270  0.00  0.00    +0.086 A 
ATOM      6  C   UNL     1       1.907   3.353  -2.690  0.00  0.00    -0.035 C 
ATOM      7  C   UNL     1       4.112   3.865  -1.825  0.00  0.00    -0.073 C 
ATOM      8  C   UNL     1       4.762   4.162  -3.180  0.00  0.00    +0.018 C 
ATOM      9  N   UNL     1       3.096   2.805  -1.992  0.00  0.00    +0.386 N 
ATOM     10  H   UNL     1       3.494   2.046  -2.557  0.00  0.00    -0.081 HD
ENDROOT
BRANCH   5  11
ATOM     11  N   UNL     1       2.650   5.876  -7.516  0.00  0.00    -0.275 N 
ATOM     12  C   UNL     1       1.465   5.955  -8.153  0.00  0.00    +0.259 C 
ATOM     13  O   UNL     1       0.463   5.502  -7.633  0.00  0.00    -0.269 OA
ATOM     14  H   UNL     1       3.449   6.238  -7.931  0.00  0.00    +0.156 HD
BRANCH  12  15
ATOM     15  C   UNL     1       1.383   6.591  -9.479  0.00  0.00    +0.114 C 
ATOM     16  C   UNL     1       0.173   6.672 -10.129  0.00  0.00    +0.032 C 
BRANCH  16  17
ATOM     17  C   UNL     1       0.116   7.151 -11.514  0.00  0.00    -0.024 A 
ATOM     18  C   UNL     1      -0.984   7.898 -11.956  0.00  0.00    +0.008 A 
ATOM     19  C   UNL     1      -1.027   8.349 -13.258  0.00  0.00    +0.001 A 
ATOM     20  C   UNL     1       0.007   8.056 -14.131  0.00  0.00    +0.000 A 
ATOM     21  C   UNL     1       1.095   7.314 -13.704  0.00  0.00    +0.001 A 
ATOM     22  C   UNL     1       1.157   6.860 -12.404  0.00  0.00    +0.008 A 
ENDBRANCH  16  17
BRANCH  15  23
ATOM     23  C   UNL     1       2.562   7.125 -10.091  0.00  0.00    +0.104 C 
ATOM     24  N   UNL     1       3.498   7.548 -10.576  0.00  0.00    -0.191 NA
ENDBRANCH  15  23
ENDBRANCH  12  15
ENDBRANCH   5  11
BRANCH   1  25
ATOM     25  C   UNL     1       5.168   5.570  -5.886  0.00  0.00    +0.342 C 
ATOM     26  O   UNL     1       5.901   4.833  -6.518  0.00  0.00    -0.245 OA
BRANCH  25  27
ATOM     27  O   UNL     1       5.573   6.818  -5.572  0.00  0.00    -0.461 OA
BRANCH  27  29
ATOM     28  C   UNL     1       7.177   8.650  -5.577  0.00  0.00    +0.048 C 
ATOM     29  C   UNL     1       6.896   7.214  -6.023  0.00  0.00    +0.229 C 
ENDBRANCH  27  29
ENDBRANCH  25  27
ENDBRANCH   1  25
BRANCH   9  30
ATOM     30  C   UNL     1       2.704   2.268  -0.671  0.00  0.00    -0.043 C 
BRANCH  30  31
ATOM     31  C   UNL     1       1.489   1.391  -0.834  0.00  0.00    -0.064 A 
ATOM     32  C   UNL     1       1.641   0.044  -1.105  0.00  0.00    +0.002 A 
ATOM     33  C   UNL     1       0.526  -0.760  -1.255  0.00  0.00    +0.000 A 
ATOM     34  C   UNL     1      -0.739  -0.216  -1.139  0.00  0.00    +0.000 A 
ATOM     35  C   UNL     1      -0.890   1.130  -0.862  0.00  0.00    +0.000 A 
ATOM     36  C   UNL     1       0.224   1.934  -0.712  0.00  0.00    +0.002 A 
ENDBRANCH  30  31
ENDBRANCH   9  30
TORSDOF 9
