REMARK  Name = ZINC16268387
REMARK  7 active torsions:
REMARK  status: ('A' for Active; 'I' for Inactive)
REMARK    1  A    between atoms: C_1  and  C_2
REMARK    2  A    between atoms: C_4  and  C_15
REMARK    3  A    between atoms: C_5  and  C_14
REMARK    4  A    between atoms: N_6  and  C_7
REMARK    5  A    between atoms: N_16  and  N_17
REMARK    6  A    between atoms: C_18  and  C_20
REMARK    7  A    between atoms: C_21  and  C_30
REMARK                            x       y       z     vdW  Elec       q    Type
REMARK                         _______ _______ _______ _____ _____    ______ ____
ROOT
ATOM      1  C   UNL     1      -1.637  -3.348  -0.303  0.00  0.00    +0.140 C 
ATOM      2  N   UNL     1      -2.499  -2.384  -0.192  0.00  0.00    -0.187 NA
ENDROOT
BRANCH   1   6
ATOM      3  C   UNL     1      -1.694  -8.432  -0.760  0.00  0.00    +0.064 C 
ATOM      4  C   UNL     1      -2.105  -6.989  -0.619  0.00  0.00    +0.022 A 
ATOM      5  C   UNL     1      -1.265  -5.940  -0.547  0.00  0.00    +0.032 A 
ATOM      6  C   UNL     1      -2.101  -4.743  -0.416  0.00  0.00    +0.016 A 
ATOM      7  C   UNL     1      -3.395  -5.178  -0.415  0.00  0.00    +0.030 A 
ATOM      8  N   UNL     1      -3.390  -6.533  -0.543  0.00  0.00    -0.317 N 
ATOM      9  C   UNL     1      -4.620  -4.307  -0.296  0.00  0.00    +0.064 C 
BRANCH   8  10
ATOM     10  C   UNL     1      -4.534  -7.342  -0.584  0.00  0.00    +0.047 A 
ATOM     11  C   UNL     1      -5.427  -7.229  -1.641  0.00  0.00    +0.027 A 
ATOM     12  C   UNL     1      -6.552  -8.030  -1.682  0.00  0.00    +0.022 A 
ATOM     13  C   UNL     1      -6.793  -8.937  -0.665  0.00  0.00    +0.041 A 
ATOM     14  C   UNL     1      -5.907  -9.048   0.392  0.00  0.00    +0.022 A 
ATOM     15  C   UNL     1      -4.779  -8.253   0.434  0.00  0.00    +0.027 A 
ATOM     16 CL   UNL     1      -8.211  -9.938  -0.716  0.00  0.00    -0.084 Cl
ENDBRANCH   8  10
ENDBRANCH   1   6
BRANCH   2  17
ATOM     17  N   UNL     1      -2.058  -1.059  -0.085  0.00  0.00    -0.202 N 
ATOM     18  C   UNL     1      -2.953  -0.058   0.030  0.00  0.00    +0.282 C 
ATOM     19  O   UNL     1      -4.140  -0.311   0.135  0.00  0.00    -0.267 OA
ATOM     20  H   UNL     1      -1.108  -0.862  -0.092  0.00  0.00    +0.178 HD
BRANCH  18  21
ATOM     21  C   UNL     1      -2.513   1.290   0.029  0.00  0.00    +0.133 A 
ATOM     22  C   UNL     1      -2.314   2.099   1.137  0.00  0.00    +0.069 A 
ATOM     23  N   UNL     1      -1.903   3.284   0.714  0.00  0.00    -0.232 NA
ATOM     24  C   UNL     1      -1.824   3.287  -0.615  0.00  0.00    +0.138 A 
ATOM     25  N   UNL     1      -2.204   2.059  -1.077  0.00  0.00    -0.294 N 
ATOM     26  C   UNL     1      -2.208   1.790  -2.411  0.00  0.00    +0.113 A 
ATOM     27  C   UNL     1      -1.846   2.739  -3.306  0.00  0.00    +0.058 A 
ATOM     28  C   UNL     1      -1.456   4.012  -2.864  0.00  0.00    +0.025 A 
ATOM     29  C   UNL     1      -1.445   4.286  -1.530  0.00  0.00    +0.048 A 
ATOM     30 CL   UNL     1      -1.864   2.379  -5.005  0.00  0.00    -0.082 Cl
ATOM     31  C   UNL     1      -2.527   1.698   2.573  0.00  0.00    +0.068 C 
ENDBRANCH  18  21
ENDBRANCH   2  17
TORSDOF 4
