REMARK  Name = ZINC63375800
REMARK  10 active torsions:
REMARK  status: ('A' for Active; 'I' for Inactive)
REMARK    1  A    between atoms: C_1  and  C_2
REMARK    2  A    between atoms: C_2  and  C_3
REMARK    3  A    between atoms: C_2  and  C_4
REMARK    4  A    between atoms: C_4  and  N_5
REMARK    5  A    between atoms: C_6  and  O_34
REMARK    6  A    between atoms: C_8  and  C_19
REMARK    7  A    between atoms: N_12  and  C_15
REMARK    8  A    between atoms: C_15  and  C_16
REMARK    9  A    between atoms: C_16  and  C_17
REMARK   10  A    between atoms: C_16  and  C_18
REMARK                            x       y       z     vdW  Elec       q    Type
REMARK                         _______ _______ _______ _____ _____    ______ ____
ROOT
ATOM      1  N   UNL     1      -1.404  -1.979  -0.127  0.00  0.00    -0.258 N 
ATOM      2  C   UNL     1      -1.437  -2.590  -1.457  0.00  0.00    +0.219 C 
ATOM      3  C   UNL     1      -0.589  -3.864  -1.456  0.00  0.00    +0.142 C 
ATOM      4  C   UNL     1      -0.930  -4.686  -0.238  0.00  0.00    +0.232 C 
ATOM      5  O   UNL     1      -0.909  -5.896  -0.299  0.00  0.00    -0.275 OA
ATOM      6  N   UNL     1      -1.258  -4.075   0.915  0.00  0.00    -0.225 N 
ATOM      7  C   UNL     1      -1.368  -2.738   0.980  0.00  0.00    +0.313 C 
ATOM      8  O   UNL     1      -1.441  -2.202   2.069  0.00  0.00    -0.252 OA
ENDROOT
BRANCH   3   9
ATOM      9  C   UNL     1      -0.881  -4.675  -2.720  0.00  0.00    +0.096 C 
ATOM     10  C   UNL     1      -0.588  -3.824  -3.958  0.00  0.00    +0.124 C 
ATOM     11  C   UNL     1      -1.064  -4.637  -5.157  0.00  0.00    -0.036 C 
ATOM     12  C   UNL     1      -0.034  -4.721  -5.986  0.00  0.00    -0.001 A 
ATOM     13  C   UNL     1       0.098  -5.300  -7.333  0.00  0.00    +0.010 A 
ATOM     14  C   UNL     1       1.330  -5.223  -7.901  0.00  0.00    +0.001 A 
ATOM     15  C   UNL     1       2.432  -4.636  -7.272  0.00  0.00    +0.002 A 
ATOM     16  C   UNL     1       2.401  -4.074  -6.038  0.00  0.00    +0.026 A 
ATOM     17  C   UNL     1       1.157  -4.088  -5.341  0.00  0.00    +0.043 A 
ATOM     18  N   UNL     1       0.843  -3.597  -4.158  0.00  0.00    -0.376 N 
ATOM     19  C   UNL     1      -2.443  -5.250  -5.199  0.00  0.00    +0.048 C 
ATOM     20  C   UNL     1      -2.638  -5.962  -3.848  0.00  0.00    +0.085 C 
ATOM     21  N   UNL     1      -2.303  -5.056  -2.746  0.00  0.00    -0.310 NA
ATOM     22  H   UNL     1      -2.590  -5.442  -1.860  0.00  0.00    +0.122 HD
ATOM     23  H   UNL     1       1.443  -3.167  -3.529  0.00  0.00    +0.160 HD
ENDBRANCH   3   9
BRANCH   2  24
ATOM     24  O   UNL     1      -2.786  -2.917  -1.797  0.00  0.00    -0.373 OA
ATOM     25  H   UNL     1      -3.382  -2.156  -1.818  0.00  0.00    +0.212 HD
ENDBRANCH   2  24
BRANCH   1  26
ATOM     26  C   UNL     1      -1.404  -0.519  -0.003  0.00  0.00    +0.115 C 
BRANCH  26  28
ATOM     27  C   UNL     1       0.035   1.523  -0.000  0.00  0.00    +0.009 C 
ATOM     28  C   UNL     1       0.038  -0.007  -0.004  0.00  0.00    +0.000 C 
ATOM     29  C   UNL     1       0.762  -0.520   1.243  0.00  0.00    +0.009 C 
ENDBRANCH  26  28
ENDBRANCH   1  26
BRANCH   6  30
ATOM     30  C   UNL     1      -1.492  -4.879   2.116  0.00  0.00    +0.121 C 
BRANCH  30  31
ATOM     31  C   UNL     1      -0.176  -5.056   2.877  0.00  0.00    +0.001 C 
ATOM     32  C   UNL     1       0.304  -3.696   3.388  0.00  0.00    +0.009 C 
ATOM     33  C   UNL     1      -0.395  -5.997   4.062  0.00  0.00    +0.009 C 
ENDBRANCH  30  31
ENDBRANCH   6  30
TORSDOF 6
