REMARK  Name = ZINC66174997
REMARK  8 active torsions:
REMARK  status: ('A' for Active; 'I' for Inactive)
REMARK    1  A    between atoms: C_1  and  C_2
REMARK    2  A    between atoms: C_4  and  C_7
REMARK    3  A    between atoms: C_7  and  N_8
REMARK    4  A    between atoms: N_11  and  C_12
REMARK    5  A    between atoms: C_12  and  C_13
REMARK    6  A    between atoms: C_13  and  C_15
REMARK    7  A    between atoms: C_13  and  N_20
REMARK    8  A    between atoms: C_23  and  C_26
REMARK                            x       y       z     vdW  Elec       q    Type
REMARK                         _______ _______ _______ _____ _____    ______ ____
ROOT
ATOM      1  C   UNL     1       3.234  -6.034  -4.004  0.00  0.00    +0.095 C 
ENDROOT
BRANCH   1   5
ATOM      2  N   UNL     1       0.804  -8.597  -2.982  0.00  0.00    -0.291 N 
ATOM      3  C   UNL     1       1.333  -7.418  -3.363  0.00  0.00    +0.300 C 
ATOM      4  O   UNL     1       0.616  -6.446  -3.503  0.00  0.00    -0.253 OA
ATOM      5  N   UNL     1       2.658  -7.316  -3.589  0.00  0.00    -0.301 N 
ATOM      6  H   UNL     1       1.376  -9.372  -2.870  0.00  0.00    +0.151 HD
ATOM      7  H   UNL     1       3.230  -8.091  -3.477  0.00  0.00    +0.150 HD
BRANCH   2   8
ATOM      8  C   UNL     1      -0.636  -8.708  -2.736  0.00  0.00    +0.204 C 
BRANCH   8  12
ATOM      9  C   UNL     1      -1.444 -12.743   0.121  0.00  0.00    +0.091 C 
ATOM     10  C   UNL     1      -1.320 -11.871  -1.103  0.00  0.00    +0.169 A 
ATOM     11  N   UNL     1      -0.984 -10.576  -1.104  0.00  0.00    -0.195 NA
ATOM     12  C   UNL     1      -0.968 -10.120  -2.326  0.00  0.00    +0.245 A 
ATOM     13  O   UNL     1      -1.298 -11.120  -3.152  0.00  0.00    -0.336 OA
ATOM     14  N   UNL     1      -1.518 -12.257  -2.330  0.00  0.00    -0.062 NA
ENDBRANCH   8  12
ENDBRANCH   2   8
ENDBRANCH   1   5
BRANCH   1  15
ATOM     15  C   UNL     1       4.757  -6.160  -4.080  0.00  0.00    -0.013 C 
BRANCH  15  16
ATOM     16  N   UNL     1       5.341  -4.851  -4.404  0.00  0.00    +0.386 N 
ATOM     17  C   UNL     1       5.044  -3.904  -3.322  0.00  0.00    -0.078 C 
ATOM     18  C   UNL     1       5.580  -2.519  -3.691  0.00  0.00    -0.015 C 
ATOM     19  C   UNL     1       7.095  -2.603  -3.898  0.00  0.00    -0.018 C 
ATOM     20  C   UNL     1       7.397  -3.647  -4.976  0.00  0.00    -0.015 C 
ATOM     21  C   UNL     1       6.793  -4.991  -4.560  0.00  0.00    -0.078 C 
ATOM     22  C   UNL     1       7.626  -1.239  -4.344  0.00  0.00    +0.007 C 
ATOM     23  H   UNL     1       4.942  -4.510  -5.266  0.00  0.00    -0.081 HD
ENDBRANCH  15  16
BRANCH  15  24
ATOM     24  C   UNL     1       5.125  -7.153  -5.152  0.00  0.00    -0.022 A 
ATOM     25  C   UNL     1       5.478  -8.456  -5.024  0.00  0.00    +0.009 A 
ATOM     26  C   UNL     1       5.777  -9.184  -6.161  0.00  0.00    +0.008 A 
ATOM     27  C   UNL     1       5.709  -8.574  -7.369  0.00  0.00    +0.045 A 
ATOM     28  S   UNL     1       5.203  -6.922  -6.921  0.00  0.00    -0.103 S 
ENDBRANCH  15  24
ENDBRANCH   1  15
TORSDOF 6
