REMARK  Name = ZINC16202485
REMARK  6 active torsions:
REMARK  status: ('A' for Active; 'I' for Inactive)
REMARK    1  A    between atoms: C_1  and  S_2
REMARK    2  A    between atoms: S_2  and  C_3
REMARK    3  A    between atoms: C_6  and  N_22
REMARK    4  A    between atoms: C_7  and  C_9
REMARK    5  A    between atoms: N_11  and  N_12
REMARK    6  A    between atoms: C_13  and  C_15
REMARK                            x       y       z     vdW  Elec       q    Type
REMARK                         _______ _______ _______ _____ _____    ______ ____
ROOT
ATOM      1  C   UNL     1       1.879  -3.461  -3.449  0.00  0.00    +0.262 C 
ATOM      2  O   UNL     1       2.541  -3.728  -4.433  0.00  0.00    -0.269 OA
ATOM      3  N   UNL     1       1.316  -4.450  -2.727  0.00  0.00    -0.230 N 
ATOM      4  H   UNL     1       0.788  -4.238  -1.942  0.00  0.00    +0.173 HD
ENDROOT
BRANCH   1   9
ATOM      5  C   UNL     1       0.237  -0.211  -2.505  0.00  0.00    +0.008 A 
ATOM      6  C   UNL     1       1.349   0.595  -2.283  0.00  0.00    +0.017 A 
ATOM      7  C   UNL     1       2.623   0.082  -2.441  0.00  0.00    +0.034 A 
ATOM      8  C   UNL     1       2.800  -1.234  -2.819  0.00  0.00    +0.138 A 
ATOM      9  C   UNL     1       1.691  -2.051  -3.044  0.00  0.00    +0.069 A 
ATOM     10  C   UNL     1       0.406  -1.536  -2.879  0.00  0.00    +0.030 A 
BRANCH   8  11
ATOM     11  N   UNL     1       4.166  -1.778  -2.986  0.00  0.00    +0.057 N 
ATOM     12  O   UNL     1       5.123  -1.043  -2.908  0.00  0.00    -0.126 OA
ATOM     13  O   UNL     1       4.325  -2.957  -3.201  0.00  0.00    -0.126 OA
ENDBRANCH   8  11
BRANCH   5  15
ATOM     14  C   UNL     1      -1.098   2.174  -1.820  0.00  0.00    +0.090 C 
ATOM     15  S   UNL     1      -1.384   0.449  -2.303  0.00  0.00    -0.129 S 
ENDBRANCH   5  15
ENDBRANCH   1   9
BRANCH   3  16
ATOM     16  N   UNL     1       1.494  -5.786  -3.111  0.00  0.00    -0.230 N 
ATOM     17  C   UNL     1       0.931  -6.775  -2.390  0.00  0.00    +0.260 C 
ATOM     18  O   UNL     1       0.269  -6.509  -1.405  0.00  0.00    -0.269 OA
ATOM     19  H   UNL     1       2.022  -5.999  -3.897  0.00  0.00    +0.173 HD
BRANCH  17  20
ATOM     20  C   UNL     1       1.119  -8.184  -2.795  0.00  0.00    +0.038 A 
ATOM     21  C   UNL     1       1.883  -8.494  -3.921  0.00  0.00    +0.014 A 
ATOM     22  C   UNL     1       2.055  -9.810  -4.294  0.00  0.00    +0.021 A 
ATOM     23  C   UNL     1       1.471 -10.824  -3.553  0.00  0.00    +0.041 A 
ATOM     24  C   UNL     1       0.712 -10.524  -2.435  0.00  0.00    +0.021 A 
ATOM     25  C   UNL     1       0.537  -9.211  -2.049  0.00  0.00    +0.014 A 
ATOM     26 CL   UNL     1       1.691 -12.479  -4.029  0.00  0.00    -0.084 Cl
ENDBRANCH  17  20
ENDBRANCH   3  16
TORSDOF 5
