REMARK  Name = ZINC02420279
REMARK  6 active torsions:
REMARK  status: ('A' for Active; 'I' for Inactive)
REMARK    1  A    between atoms: C_1  and  C_2
REMARK    2  A    between atoms: C_2  and  C_4
REMARK    3  A    between atoms: C_2  and  O_25
REMARK    4  A    between atoms: N_6  and  C_7
REMARK    5  A    between atoms: C_12  and  C_18
REMARK    6  A    between atoms: O_25  and  C_26
REMARK                            x       y       z     vdW  Elec       q    Type
REMARK                         _______ _______ _______ _____ _____    ______ ____
ROOT
ATOM      1  C   UNL     1      -3.544  -0.728  -0.804  0.00  0.00    +0.273 A 
ATOM      2  N   UNL     1      -4.206  -0.887   0.356  0.00  0.00    -0.176 NA
ATOM      3  C   UNL     1      -5.461  -1.143   0.111  0.00  0.00    +0.222 A 
ATOM      4  N   UNL     1      -5.633  -1.155  -1.236  0.00  0.00    -0.223 N 
ATOM      5  N   UNL     1      -4.392  -0.880  -1.804  0.00  0.00    -0.127 NA
ATOM      6  C   UNL     1      -6.923  -1.415  -1.874  0.00  0.00    +0.149 C 
ATOM      7  C   UNL     1      -7.745  -2.332  -0.963  0.00  0.00    +0.128 C 
ATOM      8  C   UNL     1      -7.654  -1.894   0.472  0.00  0.00    +0.222 C 
ATOM      9  O   UNL     1      -8.626  -2.009   1.188  0.00  0.00    -0.275 OA
ATOM     10  N   UNL     1      -6.516  -1.376   0.984  0.00  0.00    -0.255 N 
ATOM     11  H   UNL     1      -6.438  -1.173   1.930  0.00  0.00    +0.158 HD
ENDROOT
BRANCH   6  12
ATOM     12  C   UNL     1      -7.655  -0.115  -2.082  0.00  0.00    -0.022 A 
ATOM     13  C   UNL     1      -7.971   0.682  -0.998  0.00  0.00    +0.007 A 
ATOM     14  C   UNL     1      -8.642   1.875  -1.188  0.00  0.00    +0.020 A 
ATOM     15  C   UNL     1      -8.999   2.271  -2.465  0.00  0.00    +0.041 A 
ATOM     16  C   UNL     1      -8.683   1.473  -3.550  0.00  0.00    +0.020 A 
ATOM     17  C   UNL     1      -8.006   0.283  -3.359  0.00  0.00    +0.007 A 
ATOM     18 CL   UNL     1      -9.843   3.769  -2.705  0.00  0.00    -0.084 Cl
ENDBRANCH   6  12
BRANCH   1  21
ATOM     19  C   UNL     1      -1.469  -0.320   0.135  0.00  0.00    +0.290 C 
ATOM     20  O   UNL     1      -2.018  -0.463   1.359  0.00  0.00    -0.267 OA
ATOM     21  N   UNL     1      -2.206  -0.448  -0.927  0.00  0.00    -0.171 NA
BRANCH  19  23
ATOM     22  C   UNL     1       0.194   1.500  -0.137  0.00  0.00    +0.062 C 
ATOM     23  C   UNL     1       0.000  -0.012   0.000  0.00  0.00    +0.260 C 
BRANCH  23  24
ATOM     24  O   UNL     1       0.693  -0.477   1.160  0.00  0.00    -0.480 OA
BRANCH  24  25
ATOM     25  C   UNL     1       2.014  -0.764   1.016  0.00  0.00    +0.122 A 
ATOM     26  C   UNL     1       2.721  -1.330   2.067  0.00  0.00    +0.045 A 
ATOM     27  C   UNL     1       4.063  -1.621   1.917  0.00  0.00    +0.004 A 
ATOM     28  C   UNL     1       4.702  -1.348   0.722  0.00  0.00    +0.000 A 
ATOM     29  C   UNL     1       4.000  -0.783  -0.326  0.00  0.00    +0.004 A 
ATOM     30  C   UNL     1       2.656  -0.496  -0.184  0.00  0.00    +0.045 A 
ENDBRANCH  24  25
ENDBRANCH  23  24
ENDBRANCH  19  23
ENDBRANCH   1  21
TORSDOF 5
