REMARK  Name = ZINC51067606
REMARK  8 active torsions:
REMARK  status: ('A' for Active; 'I' for Inactive)
REMARK    1  A    between atoms: C_1  and  N_2
REMARK    2  A    between atoms: C_3  and  N_29
REMARK    3  A    between atoms: C_4  and  C_11
REMARK    4  A    between atoms: N_7  and  C_10
REMARK    5  A    between atoms: C_13  and  C_14
REMARK    6  A    between atoms: C_13  and  C_16
REMARK    7  A    between atoms: C_16  and  C_18
REMARK    8  A    between atoms: C_18  and  C_19
REMARK                            x       y       z     vdW  Elec       q    Type
REMARK                         _______ _______ _______ _____ _____    ______ ____
ROOT
ATOM      1  C   UNL     1      -2.257  -2.927  -0.187  0.00  0.00    +0.215 C 
ATOM      2  O   UNL     1      -3.462  -2.326  -0.278  0.00  0.00    -0.285 OA
ATOM      3  C   UNL     1      -2.171  -4.328  -0.167  0.00  0.00    +0.142 C 
ENDROOT
BRANCH   1   7
ATOM      4  C   UNL     1       2.045  -1.499  -2.044  0.00  0.00    +0.155 C 
ATOM      5  N   UNL     1       1.018  -1.438  -1.002  0.00  0.00    -0.284 N 
ATOM      6  C   UNL     1      -0.102  -2.212  -1.118  0.00  0.00    +0.116 A 
ATOM      7  C   UNL     1      -1.082  -2.146  -0.113  0.00  0.00    +0.125 A 
ATOM      8  C   UNL     1      -0.845  -1.239   1.018  0.00  0.00    +0.269 A 
ATOM      9  O   UNL     1      -1.659  -1.142   1.918  0.00  0.00    -0.267 OA
ATOM     10  N   UNL     1       0.294  -0.517   1.039  0.00  0.00    -0.263 N 
ATOM     11  C   UNL     1       1.197  -0.625   0.051  0.00  0.00    +0.333 A 
ATOM     12  O   UNL     1       2.213   0.040   0.111  0.00  0.00    -0.246 OA
ATOM     13  C   UNL     1       0.551   0.395   2.157  0.00  0.00    +0.157 C 
BRANCH   6  14
ATOM     14  N   UNL     1      -0.265  -3.034  -2.191  0.00  0.00    -0.344 N 
ATOM     15  H   UNL     1       0.381  -3.022  -2.914  0.00  0.00    +0.144 HD
ATOM     16  H   UNL     1      -1.028  -3.631  -2.232  0.00  0.00    +0.144 HD
ENDBRANCH   6  14
ENDBRANCH   1   7
BRANCH   3  17
ATOM     17  C   UNL     1      -0.908  -4.965   0.056  0.00  0.00    +0.107 C 
ATOM     18  N   UNL     1       0.094  -5.470   0.233  0.00  0.00    -0.191 NA
ENDBRANCH   3  17
BRANCH   3  19
ATOM     19  C   UNL     1      -3.327  -5.107  -0.366  0.00  0.00    +0.181 C 
ATOM     20  O   UNL     1      -4.399  -4.566  -0.555  0.00  0.00    -0.291 OA
BRANCH  19  21
ATOM     21  C   UNL     1      -3.235  -6.611  -0.344  0.00  0.00    +0.115 C 
BRANCH  21  22
ATOM     22  C   UNL     1      -4.601  -7.201  -0.580  0.00  0.00    -0.040 A 
ATOM     23  C   UNL     1      -5.438  -7.463   0.489  0.00  0.00    +0.004 A 
ATOM     24  C   UNL     1      -6.686  -8.006   0.265  0.00  0.00    +0.004 A 
ATOM     25  C   UNL     1      -7.110  -8.291  -1.027  0.00  0.00    -0.044 A 
ATOM     26  C   UNL     1      -6.279  -8.025  -2.092  0.00  0.00    -0.044 A 
ATOM     27  C   UNL     1      -5.024  -7.476  -1.864  0.00  0.00    +0.008 A 
ATOM     28  C   UNL     1      -6.679  -8.293  -3.519  0.00  0.00    +0.035 C 
ATOM     29  C   UNL     1      -7.861  -9.260  -3.573  0.00  0.00    +0.005 C 
ATOM     30  C   UNL     1      -8.959  -8.734  -2.641  0.00  0.00    +0.005 C 
ATOM     31  C   UNL     1      -8.482  -8.890  -1.198  0.00  0.00    +0.035 C 
ENDBRANCH  21  22
ENDBRANCH  19  21
ENDBRANCH   3  19
TORSDOF 6
