REMARK  Name = ZINC21522671
REMARK  11 active torsions:
REMARK  status: ('A' for Active; 'I' for Inactive)
REMARK    1  A    between atoms: C_1  and  C_2
REMARK    2  A    between atoms: C_2  and  C_3
REMARK    3  A    between atoms: C_12  and  C_29
REMARK    4  A    between atoms: C_12  and  C_30
REMARK    5  A    between atoms: N_13  and  C_16
REMARK    6  A    between atoms: C_16  and  C_17
REMARK    7  A    between atoms: C_17  and  C_18
REMARK    8  A    between atoms: C_18  and  N_19
REMARK    9  A    between atoms: C_21  and  C_28
REMARK   10  A    between atoms: C_24  and  C_27
REMARK   11  A    between atoms: N_32  and  C_33
REMARK                            x       y       z     vdW  Elec       q    Type
REMARK                         _______ _______ _______ _____ _____    ______ ____
ROOT
ATOM      1  C   UNL     1       0.776  -2.940  -0.307  0.00  0.00    -0.008 A 
ATOM      2  C   UNL     1       2.084  -2.793  -0.604  0.00  0.00    +0.037 A 
ATOM      3  C   UNL     1       2.503  -2.731  -1.941  0.00  0.00    +0.057 A 
ATOM      4  C   UNL     1       1.484  -2.833  -2.900  0.00  0.00    +0.038 A 
ATOM      5  S   UNL     1       0.016  -3.011  -1.920  0.00  0.00    -0.092 S 
ATOM      6  C   UNL     1       2.036  -2.762  -4.174  0.00  0.00    +0.048 A 
ATOM      7  C   UNL     1       3.383  -2.623  -4.021  0.00  0.00    +0.106 A 
ATOM      8  N   UNL     1       3.674  -2.587  -2.661  0.00  0.00    -0.333 N 
ATOM      9  C   UNL     1       5.042  -2.408  -2.167  0.00  0.00    +0.157 C 
ATOM     10  C   UNL     1       6.020  -2.994  -3.187  0.00  0.00    +0.128 C 
ATOM     11  N   UNL     1       5.721  -2.579  -4.552  0.00  0.00    -0.281 N 
ATOM     12  C   UNL     1       4.453  -2.502  -5.019  0.00  0.00    +0.264 C 
ATOM     13  O   UNL     1       4.213  -2.342  -6.202  0.00  0.00    -0.268 OA
ATOM     14  C   UNL     1       5.959  -4.521  -3.109  0.00  0.00    +0.043 C 
ENDROOT
BRANCH  10  15
ATOM     15  C   UNL     1       7.415  -2.546  -2.836  0.00  0.00    +0.238 C 
ATOM     16  O   UNL     1       8.195  -3.328  -2.334  0.00  0.00    -0.273 OA
ATOM     17  N   UNL     1       7.797  -1.277  -3.079  0.00  0.00    -0.311 N 
ATOM     18  H   UNL     1       7.152  -0.631  -3.409  0.00  0.00    +0.149 HD
BRANCH  17  19
ATOM     19  C   UNL     1       9.186  -0.872  -2.846  0.00  0.00    +0.073 C 
ATOM     20  C   UNL     1       9.387  -0.624  -1.337  0.00  0.00    +0.022 C 
ATOM     21  C   UNL     1      10.858  -0.716  -1.030  0.00  0.00    +0.002 C 
ATOM     22  C   UNL     1      11.552   0.659  -1.058  0.00  0.00    +0.000 C 
ATOM     23  C   UNL     1      11.083   1.542  -2.230  0.00  0.00    +0.000 C 
ATOM     24  C   UNL     1      10.939   0.768  -3.512  0.00  0.00    +0.002 C 
ATOM     25  C   UNL     1       9.473   0.310  -3.646  0.00  0.00    +0.022 C 
ENDBRANCH  17  19
ENDBRANCH  10  15
BRANCH   1  27
ATOM     26  C   UNL     1      -0.264  -1.625   1.520  0.00  0.00    +0.009 C 
ATOM     27  C   UNL     1       0.122  -3.028   1.047  0.00  0.00    +0.039 C 
ENDBRANCH   1  27
BRANCH  11  28
ATOM     28  C   UNL     1       6.829  -2.234  -5.447  0.00  0.00    +0.107 C 
BRANCH  28  29
ATOM     29  C   UNL     1       7.205  -3.457  -6.287  0.00  0.00    +0.000 C 
BRANCH  29  30
ATOM     30  C   UNL     1       8.437  -3.133  -7.135  0.00  0.00    -0.077 C 
BRANCH  30  31
ATOM     31  N   UNL     1       8.848  -4.331  -7.879  0.00  0.00    +0.380 N 
ATOM     32  C   UNL     1       9.278  -5.369  -6.934  0.00  0.00    -0.076 C 
ATOM     33  C   UNL     1       9.630  -6.646  -7.698  0.00  0.00    -0.031 C 
ATOM     34  C   UNL     1      10.765  -6.349  -8.683  0.00  0.00    +0.003 C 
ATOM     35  C   UNL     1      10.333  -5.215  -9.617  0.00  0.00    -0.031 C 
ATOM     36  C   UNL     1       9.955  -3.990  -8.781  0.00  0.00    -0.076 C 
ATOM     37  C   UNL     1      11.488  -4.857 -10.555  0.00  0.00    +0.005 C 
ATOM     38  C   UNL     1      10.079  -7.726  -6.711  0.00  0.00    +0.005 C 
ATOM     39  H   UNL     1       8.068  -4.674  -8.419  0.00  0.00    -0.082 HD
ENDBRANCH  30  31
ENDBRANCH  29  30
ENDBRANCH  28  29
ENDBRANCH  11  28
TORSDOF 7
