REMARK  Name = ZINC67028709
REMARK  5 active torsions:
REMARK  status: ('A' for Active; 'I' for Inactive)
REMARK    1  A    between atoms: C_1  and  O_2
REMARK    2  A    between atoms: O_2  and  C_3
REMARK    3  A    between atoms: C_3  and  C_5
REMARK    4  A    between atoms: C_7  and  C_13
REMARK    5  A    between atoms: C_18  and  C_20
REMARK                            x       y       z     vdW  Elec       q    Type
REMARK                         _______ _______ _______ _____ _____    ______ ____
ROOT
ATOM      1  C   UNL     1       0.484  -2.217   1.095  0.00  0.00    +0.148 C 
ATOM      2  C   UNL     1       1.140  -2.723   2.235  0.00  0.00    +0.056 C 
ATOM      3  C   UNL     1       0.976  -4.204   2.524  0.00  0.00    +0.159 C 
ATOM      4  N   UNL     1       0.142  -4.965   1.577  0.00  0.00    -0.312 N 
ATOM      5  C   UNL     1      -0.409  -4.311   0.537  0.00  0.00    +0.155 C 
ATOM      6  S   UNL     1      -1.377  -5.196  -0.564  0.00  0.00    -0.017 S 
ATOM      7  N   UNL     1      -0.240  -3.009   0.329  0.00  0.00    -0.186 NA
ATOM      8  C   UNL     1       1.897  -1.909   3.051  0.00  0.00    +0.193 C 
ATOM      9  O   UNL     1       1.864  -0.569   2.886  0.00  0.00    -0.287 OA
ATOM     10  H   UNL     1      -0.005  -5.916   1.700  0.00  0.00    +0.149 HD
ENDROOT
BRANCH   8  11
ATOM     11  C   UNL     1       2.741  -2.501   4.103  0.00  0.00    +0.023 A 
ATOM     12  C   UNL     1       3.561  -3.597   3.813  0.00  0.00    +0.012 A 
ATOM     13  C   UNL     1       4.349  -4.145   4.802  0.00  0.00    +0.002 A 
ATOM     14  C   UNL     1       4.330  -3.616   6.081  0.00  0.00    +0.020 A 
ATOM     15  C   UNL     1       3.521  -2.531   6.377  0.00  0.00    +0.042 A 
ATOM     16  C   UNL     1       2.731  -1.967   5.396  0.00  0.00    +0.031 A 
ATOM     17 CL   UNL     1       3.505  -1.875   7.984  0.00  0.00    -0.084 Cl
ENDBRANCH   8  11
BRANCH   3  18
ATOM     18  C   UNL     1       0.371  -4.349   3.896  0.00  0.00    +0.097 A 
ATOM     19  C   UNL     1      -0.757  -5.072   4.123  0.00  0.00    +0.094 A 
ATOM     20  S   UNL     1      -0.960  -4.889   5.780  0.00  0.00    +0.028 S 
ATOM     21  N   UNL     1       0.321  -3.955   6.104  0.00  0.00    -0.110 NA
ATOM     22  N   UNL     1       0.898  -3.790   4.965  0.00  0.00    -0.144 NA
ENDBRANCH   3  18
BRANCH   1  23
ATOM     23  C   UNL     1       0.604  -0.775   0.757  0.00  0.00    +0.356 C 
ATOM     24  O   UNL     1       1.546  -0.383   0.100  0.00  0.00    -0.243 OA
BRANCH  23  26
ATOM     25  C   UNL     1      -0.152   1.467   0.817  0.00  0.00    +0.280 C 
ATOM     26  O   UNL     1      -0.331   0.096   1.179  0.00  0.00    -0.464 OA
ENDBRANCH  23  26
ENDBRANCH   1  23
TORSDOF 4
