REMARK  Name = ZINC63746713
REMARK  8 active torsions:
REMARK  status: ('A' for Active; 'I' for Inactive)
REMARK    1  A    between atoms: C_1  and  C_2
REMARK    2  A    between atoms: C_2  and  N_3
REMARK    3  A    between atoms: C_4  and  C_24
REMARK    4  A    between atoms: N_10  and  C_18
REMARK    5  A    between atoms: C_12  and  C_13
REMARK    6  A    between atoms: N_26  and  C_27
REMARK    7  A    between atoms: C_27  and  C_28
REMARK    8  A    between atoms: C_28  and  C_29
REMARK                            x       y       z     vdW  Elec       q    Type
REMARK                         _______ _______ _______ _____ _____    ______ ____
ROOT
ATOM      1  N   UNL     1       0.697  -1.161  -0.797  0.00  0.00    -0.265 NA
ATOM      2  C   UNL     1       2.012  -0.554  -0.452  0.00  0.00    +0.169 C 
ATOM      3  C   UNL     1       2.999  -1.170  -1.423  0.00  0.00    +0.010 C 
ATOM      4  C   UNL     1       2.432  -2.189  -2.034  0.00  0.00    +0.015 C 
ATOM      5  C   UNL     1       1.106  -2.471  -1.321  0.00  0.00    +0.201 C 
ATOM      6  N   UNL     1       0.293  -2.953  -2.444  0.00  0.00    -0.202 N 
ATOM      7  N   UNL     1       1.202  -3.629  -3.283  0.00  0.00    -0.177 NA
ATOM      8  C   UNL     1       2.438  -3.228  -3.080  0.00  0.00    +0.102 C 
ENDROOT
BRANCH   6   9
ATOM      9  C   UNL     1      -1.077  -2.780  -2.638  0.00  0.00    +0.054 A 
ATOM     10  C   UNL     1      -1.647  -1.519  -2.501  0.00  0.00    +0.025 A 
ATOM     11  C   UNL     1      -3.003  -1.352  -2.694  0.00  0.00    +0.002 A 
ATOM     12  C   UNL     1      -3.796  -2.436  -3.024  0.00  0.00    +0.000 A 
ATOM     13  C   UNL     1      -3.232  -3.692  -3.162  0.00  0.00    +0.002 A 
ATOM     14  C   UNL     1      -1.875  -3.866  -2.975  0.00  0.00    +0.025 A 
ENDBRANCH   6   9
BRANCH   8  15
ATOM     15  C   UNL     1       3.632  -3.735  -3.782  0.00  0.00    +0.039 A 
ATOM     16  C   UNL     1       3.718  -4.689  -4.763  0.00  0.00    +0.018 A 
ATOM     17  C   UNL     1       4.957  -5.000  -5.276  0.00  0.00    +0.008 A 
ATOM     18  C   UNL     1       6.053  -4.356  -4.798  0.00  0.00    +0.046 A 
ATOM     19  S   UNL     1       5.341  -3.259  -3.582  0.00  0.00    -0.095 S 
ENDBRANCH   8  15
BRANCH   2  20
ATOM     20  C   UNL     1       2.389  -0.896   0.966  0.00  0.00    +0.234 C 
ATOM     21  O   UNL     1       2.303  -2.040   1.358  0.00  0.00    -0.274 OA
ATOM     22  N   UNL     1       2.822   0.071   1.800  0.00  0.00    -0.313 N 
ATOM     23  H   UNL     1       2.890   0.987   1.487  0.00  0.00    +0.149 HD
BRANCH  22  24
ATOM     24  C   UNL     1       3.188  -0.261   3.179  0.00  0.00    +0.108 C 
BRANCH  24  25
ATOM     25  C   UNL     1       3.642   1.007   3.905  0.00  0.00    +0.052 C 
BRANCH  25  26
ATOM     26  C   UNL     1       4.019   0.666   5.324  0.00  0.00    -0.040 C 
ATOM     27  C   UNL     1       5.258   0.394   5.793  0.00  0.00    -0.001 A 
ATOM     28  C   UNL     1       6.575   0.336   5.148  0.00  0.00    +0.010 A 
ATOM     29  C   UNL     1       7.659   0.030   5.896  0.00  0.00    +0.001 A 
ATOM     30  C   UNL     1       7.556  -0.234   7.269  0.00  0.00    +0.002 A 
ATOM     31  C   UNL     1       6.381  -0.200   7.932  0.00  0.00    +0.026 A 
ATOM     32  C   UNL     1       5.176   0.112   7.244  0.00  0.00    +0.043 A 
ATOM     33  N   UNL     1       3.935   0.206   7.656  0.00  0.00    -0.380 N 
ATOM     34  C   UNL     1       3.089   0.564   6.512  0.00  0.00    +0.144 C 
ATOM     35  H   UNL     1       3.628   0.066   8.565  0.00  0.00    +0.160 HD
ENDBRANCH  25  26
ENDBRANCH  24  25
ENDBRANCH  22  24
ENDBRANCH   2  20
BRANCH   1  37
ATOM     36  C   UNL     1      -0.631   0.067   0.853  0.00  0.00    +0.020 C 
ATOM     37  C   UNL     1      -0.144  -1.310   0.398  0.00  0.00    +0.084 C 
ENDBRANCH   1  37
TORSDOF 7
