REMARK  Name = ZINC64477494
REMARK  7 active torsions:
REMARK  status: ('A' for Active; 'I' for Inactive)
REMARK    1  A    between atoms: C_1  and  C_2
REMARK    2  A    between atoms: C_5  and  N_12
REMARK    3  A    between atoms: N_12  and  S_13
REMARK    4  A    between atoms: S_13  and  C_16
REMARK    5  A    between atoms: C_20  and  S_22
REMARK    6  A    between atoms: S_22  and  N_25
REMARK    7  A    between atoms: N_25  and  C_26
REMARK                            x       y       z     vdW  Elec       q    Type
REMARK                         _______ _______ _______ _____ _____    ______ ____
ROOT
ATOM      1  S   UNL     1       0.060  -4.958  -1.706  0.00  0.00    +0.092 S 
ATOM      2  O   UNL     1      -1.192  -4.658  -2.307  0.00  0.00    -0.148 OA
ATOM      3  O   UNL     1       1.298  -4.625  -2.319  0.00  0.00    -0.148 OA
ENDROOT
BRANCH   1   4
ATOM      4  C   UNL     1       0.085  -6.699  -1.435  0.00  0.00    +0.112 A 
ATOM      5  C   UNL     1       1.292  -7.365  -1.329  0.00  0.00    +0.029 A 
ATOM      6  C   UNL     1       1.311  -8.730  -1.116  0.00  0.00    +0.004 A 
ATOM      7  C   UNL     1       0.123  -9.430  -1.009  0.00  0.00    +0.028 A 
ATOM      8  C   UNL     1      -1.083  -8.764  -1.114  0.00  0.00    +0.107 A 
ATOM      9  C   UNL     1      -1.103  -7.397  -1.323  0.00  0.00    +0.057 A 
BRANCH   8  10
ATOM     10  S   UNL     1      -2.597  -9.656  -0.978  0.00  0.00    +0.058 S 
ATOM     11  O   UNL     1      -3.583  -8.889  -1.656  0.00  0.00    -0.153 OA
ATOM     12  O   UNL     1      -2.307 -11.003  -1.327  0.00  0.00    -0.153 OA
BRANCH  10  13
ATOM     13  N   UNL     1      -3.020  -9.661   0.623  0.00  0.00    -0.193 NA
ATOM     14  C   UNL     1      -3.356  -8.404   1.296  0.00  0.00    +0.127 C 
ATOM     15  H   UNL     1      -3.045 -10.497   1.115  0.00  0.00    +0.148 HD
ENDBRANCH  10  13
ENDBRANCH   8  10
ENDBRANCH   1   4
BRANCH   1  16
ATOM     16  N   UNL     1       0.058  -4.231  -0.218  0.00  0.00    -0.096 NA
BRANCH  16  21
ATOM     17  C   UNL     1      -0.018   1.503   0.010  0.00  0.00    +0.044 C 
ATOM     18  C   UNL     1       0.002  -0.004   0.002  0.00  0.00    -0.040 A 
ATOM     19  C   UNL     1       0.006  -0.673  -1.176  0.00  0.00    +0.006 A 
ATOM     20  C   UNL     1       0.024  -2.066  -1.246  0.00  0.00    +0.029 A 
ATOM     21  C   UNL     1       0.040  -2.840  -0.122  0.00  0.00    +0.102 A 
ATOM     22  C   UNL     1       0.037  -2.185   1.184  0.00  0.00    +0.117 A 
ATOM     23  C   UNL     1       0.023  -0.715   1.223  0.00  0.00    +0.024 A 
ATOM     24  C   UNL     1       0.031  -0.360   2.558  0.00  0.00    +0.113 A 
ATOM     25  N   UNL     1       0.053  -1.488   3.284  0.00  0.00    -0.284 N 
ATOM     26  N   UNL     1       0.049  -2.602   2.435  0.00  0.00    -0.172 NA
ATOM     27  H   UNL     1       0.064  -1.527   4.253  0.00  0.00    +0.188 HD
ENDBRANCH  16  21
ENDBRANCH   1  16
TORSDOF 5
