REMARK  Name = ZINC64157700
REMARK  3 active torsions:
REMARK  status: ('A' for Active; 'I' for Inactive)
REMARK    1  A    between atoms: C_8  and  C_22
REMARK    2  A    between atoms: N_10  and  C_16
REMARK    3  A    between atoms: C_16  and  C_17
REMARK                            x       y       z     vdW  Elec       q    Type
REMARK                         _______ _______ _______ _____ _____    ______ ____
ROOT
ATOM      1  C   UNL     1       0.919   1.461  -0.070  0.00  0.00    +0.001 A 
ATOM      2  C   UNL     1       1.923   1.813   0.843  0.00  0.00    +0.002 A 
ATOM      3  C   UNL     1       2.799   0.916   1.343  0.00  0.00    +0.026 A 
ATOM      4  C   UNL     1       2.735  -0.449   0.952  0.00  0.00    +0.043 A 
ATOM      5  N   UNL     1       3.477  -1.485   1.274  0.00  0.00    -0.376 N 
ATOM      6  C   UNL     1       2.905  -2.674   0.651  0.00  0.00    +0.124 C 
ATOM      7  C   UNL     1       3.911  -3.421  -0.228  0.00  0.00    +0.087 C 
ATOM      8  N   UNL     1       3.179  -4.414  -1.030  0.00  0.00    -0.290 NA
ATOM      9  C   UNL     1       2.279  -3.809  -2.016  0.00  0.00    +0.089 C 
ATOM     10  C   UNL     1       1.150  -3.042  -1.302  0.00  0.00    +0.049 C 
ATOM     11  C   UNL     1       1.806  -2.158  -0.265  0.00  0.00    -0.036 C 
ATOM     12  C   UNL     1       1.687  -0.847  -0.021  0.00  0.00    -0.001 A 
ATOM     13  C   UNL     1       0.772   0.192  -0.510  0.00  0.00    +0.010 A 
ATOM     14  H   UNL     1       4.271  -1.463   1.831  0.00  0.00    +0.160 HD
ENDROOT
BRANCH   7  15
ATOM     15  C   UNL     1       4.622  -2.432  -1.153  0.00  0.00    +0.008 C 
ATOM     16  C   UNL     1       5.481  -3.201  -2.159  0.00  0.00    +0.005 C 
ATOM     17  C   UNL     1       6.191  -2.211  -3.085  0.00  0.00    +0.000 C 
ATOM     18  C   UNL     1       7.083  -1.286  -2.255  0.00  0.00    +0.000 C 
ATOM     19  C   UNL     1       6.223  -0.517  -1.249  0.00  0.00    +0.000 C 
ATOM     20  C   UNL     1       5.513  -1.506  -0.323  0.00  0.00    +0.005 C 
ENDBRANCH   7  15
BRANCH   8  21
ATOM     21  C   UNL     1       4.103  -5.359  -1.670  0.00  0.00    +0.147 C 
BRANCH  21  22
ATOM     22  C   UNL     1       3.642  -6.769  -1.406  0.00  0.00    +0.092 A 
ATOM     23  N   UNL     1       2.831  -7.508  -2.121  0.00  0.00    -0.251 NA
ATOM     24  C   UNL     1       2.519  -8.735  -1.757  0.00  0.00    +0.119 A 
ATOM     25  C   UNL     1       3.078  -9.197  -0.608  0.00  0.00    +0.066 A 
ATOM     26  S   UNL     1       4.051  -7.780  -0.124  0.00  0.00    -0.079 S 
ENDBRANCH  21  22
ENDBRANCH   8  21
TORSDOF 3
