REMARK  Name = ZINC23282303
REMARK  3 active torsions:
REMARK  status: ('A' for Active; 'I' for Inactive)
REMARK    1  A    between atoms: C_1  and  C_2
REMARK    2  A    between atoms: C_7  and  N_8
REMARK    3  A    between atoms: N_11  and  C_14
REMARK                            x       y       z     vdW  Elec       q    Type
REMARK                         _______ _______ _______ _____ _____    ______ ____
ROOT
ATOM      1  N   UNL     1       6.401   6.125   0.939  0.00  0.00    -0.333 N 
ATOM      2  C   UNL     1       6.218   5.413  -0.333  0.00  0.00    +0.086 C 
ATOM      3  C   UNL     1       4.878   4.674  -0.314  0.00  0.00    -0.059 C 
ATOM      4  N   UNL     1       4.855   3.738   0.819  0.00  0.00    +0.384 N 
ATOM      5  C   UNL     1       5.038   4.450   2.091  0.00  0.00    -0.059 C 
ATOM      6  C   UNL     1       6.378   5.189   2.071  0.00  0.00    +0.086 C 
ATOM      7  H   UNL     1       5.694   3.038   0.697  0.00  0.00    -0.081 HD
ENDROOT
BRANCH   4   8
ATOM      8  C   UNL     1       3.613   2.954   0.828  0.00  0.00    -0.064 C 
ATOM      9  C   UNL     1       3.674   1.903   1.943  0.00  0.00    -0.010 C 
ATOM     10  C   UNL     1       2.488   0.955   1.776  0.00  0.00    +0.034 C 
ATOM     11  C   UNL     1       1.203   1.730   1.651  0.00  0.00    -0.044 A 
ATOM     12  C   UNL     1       0.012   1.047   1.863  0.00  0.00    +0.004 A 
ATOM     13  C   UNL     1      -1.199   1.698   1.752  0.00  0.00    +0.000 A 
ATOM     14  C   UNL     1      -1.229   3.043   1.434  0.00  0.00    +0.000 A 
ATOM     15  C   UNL     1      -0.047   3.723   1.223  0.00  0.00    +0.004 A 
ATOM     16  C   UNL     1       1.173   3.069   1.333  0.00  0.00    -0.046 A 
ATOM     17  C   UNL     1       2.424   3.874   1.097  0.00  0.00    +0.020 C 
ENDBRANCH   4   8
BRANCH   1  24
ATOM     18  C   UNL     1       6.200   8.959   1.094  0.00  0.00    +0.045 C 
ATOM     19  C   UNL     1       7.530   8.257   1.004  0.00  0.00    -0.029 A 
ATOM     20  C   UNL     1       8.701   8.991   1.000  0.00  0.00    +0.005 A 
ATOM     21  C   UNL     1       9.921   8.348   0.912  0.00  0.00    +0.000 A 
ATOM     22  C   UNL     1       9.976   6.969   0.834  0.00  0.00    +0.002 A 
ATOM     23  C   UNL     1       8.810   6.228   0.842  0.00  0.00    +0.023 A 
ATOM     24  C   UNL     1       7.582   6.871   0.930  0.00  0.00    +0.033 A 
ENDBRANCH   1  24
TORSDOF 2
