REMARK  Name = ZINC32779667
REMARK  7 active torsions:
REMARK  status: ('A' for Active; 'I' for Inactive)
REMARK    1  A    between atoms: C_1  and  C_2
REMARK    2  A    between atoms: C_5  and  C_8
REMARK    3  A    between atoms: N_10  and  N_11
REMARK    4  A    between atoms: N_14  and  C_15
REMARK    5  A    between atoms: N_14  and  C_16
REMARK    6  A    between atoms: C_16  and  C_18
REMARK    7  A    between atoms: C_16  and  C_19
REMARK                            x       y       z     vdW  Elec       q    Type
REMARK                         _______ _______ _______ _____ _____    ______ ____
ROOT
ATOM      1  N   UNL     1       5.122   2.735  -2.886  0.00  0.00    -0.218 N 
ATOM      2  C   UNL     1       4.831   1.744  -2.020  0.00  0.00    +0.319 C 
ATOM      3  O   UNL     1       5.285   0.630  -2.195  0.00  0.00    -0.251 OA
ATOM      4  N   UNL     1       4.036   1.989  -0.960  0.00  0.00    -0.278 N 
ATOM      5  C   UNL     1       3.576   3.353  -0.688  0.00  0.00    +0.134 C 
ATOM      6  H   UNL     1       4.781   3.761  -2.684  0.00  0.00    +0.174 HD
ENDROOT
BRANCH   1   9
ATOM      7  C   UNL     1       6.065   3.425  -4.960  0.00  0.00    +0.260 C 
ATOM      8  O   UNL     1       5.610   4.538  -4.781  0.00  0.00    -0.269 OA
ATOM      9  N   UNL     1       5.860   2.458  -4.045  0.00  0.00    -0.229 N 
ATOM     10  H   UNL     1       6.271   1.451  -4.207  0.00  0.00    +0.173 HD
BRANCH   7  15
ATOM     11  C   UNL     1       9.095   2.287  -9.719  0.00  0.00    +0.044 C 
ATOM     12  C   UNL     1       8.301   2.585  -8.473  0.00  0.00    -0.050 A 
ATOM     13  C   UNL     1       7.784   3.853  -8.272  0.00  0.00    +0.004 A 
ATOM     14  C   UNL     1       7.057   4.132  -7.133  0.00  0.00    +0.013 A 
ATOM     15  C   UNL     1       6.843   3.133  -6.183  0.00  0.00    +0.038 A 
ATOM     16  C   UNL     1       7.372   1.857  -6.389  0.00  0.00    +0.013 A 
ATOM     17  C   UNL     1       8.092   1.590  -7.535  0.00  0.00    +0.004 A 
ENDBRANCH   7  15
ENDBRANCH   1   9
BRANCH   4  18
ATOM     18  C   UNL     1       3.631   0.890  -0.079  0.00  0.00    +0.140 C 
ATOM     19  C   UNL     1       4.122   1.170   1.343  0.00  0.00    +0.036 C 
BRANCH  18  20
ATOM     20  C   UNL     1       2.129   0.775  -0.077  0.00  0.00    +0.126 A 
ATOM     21  C   UNL     1       1.448  -0.380  -0.084  0.00  0.00    +0.055 A 
ATOM     22  C   UNL     1       0.026  -0.016  -0.080  0.00  0.00    +0.020 A 
ATOM     23  C   UNL     1      -1.165  -0.740  -0.083  0.00  0.00    +0.011 A 
ATOM     24  C   UNL     1      -2.361  -0.078  -0.076  0.00  0.00    +0.001 A 
ATOM     25  C   UNL     1      -2.396   1.309  -0.066  0.00  0.00    +0.004 A 
ATOM     26  C   UNL     1      -1.228   2.042  -0.059  0.00  0.00    +0.047 A 
ATOM     27  C   UNL     1      -0.002   1.388  -0.070  0.00  0.00    +0.135 A 
ATOM     28  O   UNL     1       1.276   1.815  -0.069  0.00  0.00    -0.458 OA
ENDBRANCH  18  20
ENDBRANCH   4  18
TORSDOF 4
