REMARK  Name = ZINC04980855
REMARK  5 active torsions:
REMARK  status: ('A' for Active; 'I' for Inactive)
REMARK    1  A    between atoms: C_1  and  C_2
REMARK    2  A    between atoms: C_2  and  C_24
REMARK    3  A    between atoms: C_7  and  C_11
REMARK    4  A    between atoms: C_11  and  N_50
REMARK    5  A    between atoms: N_14  and  C_17
REMARK                            x       y       z     vdW  Elec       q    Type
REMARK                         _______ _______ _______ _____ _____    ______ ____
ROOT
ATOM      1  C   UNL     1      -0.730   1.580   1.267  0.00  0.00    -0.059 C 
ATOM      2  C   UNL     1      -0.013   1.086   0.008  0.00  0.00    +0.086 C 
ATOM      3  N   UNL     1      -0.724   1.573  -1.182  0.00  0.00    -0.333 N 
ATOM      4  C   UNL     1      -0.777   3.042  -1.196  0.00  0.00    +0.086 C 
ATOM      5  C   UNL     1      -1.495   3.536   0.062  0.00  0.00    -0.059 C 
ATOM      6  N   UNL     1      -0.757   3.058   1.250  0.00  0.00    +0.384 N 
ATOM      7  H   UNL     1       0.207   3.409   1.208  0.00  0.00    -0.081 HD
ENDROOT
BRANCH   3   8
ATOM      8  C   UNL     1      -0.139   1.082  -2.352  0.00  0.00    +0.030 A 
ATOM      9  C   UNL     1       0.973   0.253  -2.278  0.00  0.00    +0.024 A 
ATOM     10  C   UNL     1       1.546  -0.236  -3.436  0.00  0.00    +0.022 A 
ATOM     11  C   UNL     1       1.021   0.109  -4.668  0.00  0.00    +0.041 A 
ATOM     12  C   UNL     1      -0.083   0.939  -4.745  0.00  0.00    +0.022 A 
ATOM     13  C   UNL     1      -0.664   1.426  -3.591  0.00  0.00    +0.024 A 
ATOM     14 CL   UNL     1       1.749  -0.501  -6.122  0.00  0.00    -0.084 Cl
ENDBRANCH   3   8
BRANCH   6  15
ATOM     15  C   UNL     1      -1.399   3.565   2.482  0.00  0.00    -0.047 C 
BRANCH  15  21
ATOM     16  C   UNL     1       1.837   1.701   3.398  0.00  0.00    +0.012 C 
ATOM     17  C   UNL     1       0.880   1.356   4.541  0.00  0.00    -0.025 C 
ATOM     18  C   UNL     1       0.949   2.333   5.728  0.00  0.00    -0.000 C 
ATOM     19  C   UNL     1       1.226   3.779   5.294  0.00  0.00    +0.031 C 
ATOM     20  C   UNL     1       0.360   4.128   4.108  0.00  0.00    -0.029 C 
ATOM     21  C   UNL     1      -0.510   3.252   3.658  0.00  0.00    -0.086 C 
ATOM     22  C   UNL     1      -0.589   1.915   4.374  0.00  0.00    +0.019 C 
ATOM     23  C   UNL     1      -0.565   2.091   5.899  0.00  0.00    +0.012 C 
ATOM     24  C   UNL     1       0.935  -0.118   4.947  0.00  0.00    +0.012 C 
ENDBRANCH  15  21
ENDBRANCH   6  15
TORSDOF 3
