REMARK  Name = ZINC20784263
REMARK  6 active torsions:
REMARK  status: ('A' for Active; 'I' for Inactive)
REMARK    1  A    between atoms: C_3  and  C_22
REMARK    2  A    between atoms: C_5  and  C_7
REMARK    3  A    between atoms: C_13  and  C_15
REMARK    4  A    between atoms: C_18  and  O_21
REMARK    5  A    between atoms: C_22  and  N_23
REMARK    6  A    between atoms: C_27  and  O_30
REMARK                            x       y       z     vdW  Elec       q    Type
REMARK                         _______ _______ _______ _____ _____    ______ ____
ROOT
ATOM      1  C   UNL     1       2.402   0.016  -0.020  0.00  0.00    +0.001 A 
ATOM      2  C   UNL     1       1.208  -0.682  -0.013  0.00  0.00    +0.002 A 
ATOM      3  C   UNL     1       0.002  -0.004   0.002  0.00  0.00    -0.063 A 
ATOM      4  C   UNL     1      -0.017   1.375   0.010  0.00  0.00    +0.013 A 
ATOM      5  C   UNL     1       1.185   2.087   0.002  0.00  0.00    +0.018 A 
ATOM      6  C   UNL     1       2.398   1.396  -0.013  0.00  0.00    +0.011 A 
ENDROOT
BRANCH   5   7
ATOM      7  C   UNL     1       1.172   3.564   0.009  0.00  0.00    +0.141 A 
ATOM      8  N   UNL     1       2.356   4.241   0.007  0.00  0.00    -0.307 N 
ATOM      9  H   UNL     1       3.306   3.687   0.004  0.00  0.00    +0.170 HD
ATOM     10  C   UNL     1       2.364   5.591   0.009  0.00  0.00    +0.252 A 
ATOM     11  O   UNL     1       3.419   6.205   0.003  0.00  0.00    -0.268 OA
ATOM     12  C   UNL     1       1.138   6.276   0.024  0.00  0.00    +0.098 A 
ATOM     13  C   UNL     1      -0.036   5.537   0.031  0.00  0.00    +0.078 A 
ATOM     14  N   UNL     1       0.020   4.198   0.024  0.00  0.00    -0.229 NA
BRANCH  13  15
ATOM     15  C   UNL     1      -1.347   6.226   0.047  0.00  0.00    +0.001 A 
ATOM     16  C   UNL     1      -1.404   7.620   0.061  0.00  0.00    +0.013 A 
ATOM     17  C   UNL     1      -2.626   8.258   0.070  0.00  0.00    +0.046 A 
ATOM     18  C   UNL     1      -3.799   7.514   0.077  0.00  0.00    +0.117 A 
ATOM     19  C   UNL     1      -3.746   6.126   0.070  0.00  0.00    +0.046 A 
ATOM     20  C   UNL     1      -2.527   5.482   0.055  0.00  0.00    +0.013 A 
BRANCH  18  21
ATOM     21  O   UNL     1      -5.001   8.146   0.092  0.00  0.00    -0.507 OA
ATOM     22  H   UNL     1      -5.931   7.558   0.097  0.00  0.00    +0.292 HD
ENDBRANCH  18  21
ENDBRANCH  13  15
ENDBRANCH   5   7
BRANCH   3  23
ATOM     23  C   UNL     1      -1.294  -0.774   0.010  0.00  0.00    -0.043 C 
BRANCH  23  24
ATOM     24  N   UNL     1      -1.727  -1.016  -1.373  0.00  0.00    +0.384 N 
ATOM     25  C   UNL     1      -0.793  -1.911  -2.068  0.00  0.00    -0.078 C 
ATOM     26  C   UNL     1      -1.350  -2.257  -3.451  0.00  0.00    -0.016 C 
ATOM     27  C   UNL     1      -1.545  -0.968  -4.254  0.00  0.00    +0.027 C 
ATOM     28  C   UNL     1      -2.483  -0.034  -3.486  0.00  0.00    +0.098 C 
ATOM     29  C   UNL     1      -1.893   0.248  -2.102  0.00  0.00    -0.047 C 
ATOM     30  H   UNL     1      -2.707  -1.515  -1.339  0.00  0.00    -0.081 HD
BRANCH  28  31
ATOM     31  O   UNL     1      -2.626   1.194  -4.203  0.00  0.00    -0.394 OA
ATOM     32  H   UNL     1      -3.266   1.994  -3.802  0.00  0.00    +0.210 HD
ENDBRANCH  28  31
ENDBRANCH  23  24
ENDBRANCH   3  23
TORSDOF 6
