REMARK  Name = ZINC36203595
REMARK  11 active torsions:
REMARK  status: ('A' for Active; 'I' for Inactive)
REMARK    1  A    between atoms: C_1  and  C_2
REMARK    2  A    between atoms: C_5  and  C_7
REMARK    3  A    between atoms: C_7  and  N_8
REMARK    4  A    between atoms: N_8  and  C_9
REMARK    5  A    between atoms: N_8  and  C_27
REMARK    6  A    between atoms: C_9  and  C_10
REMARK    7  A    between atoms: C_13  and  C_15
REMARK    8  A    between atoms: C_15  and  C_16
REMARK    9  A    between atoms: C_15  and  C_21
REMARK   10  A    between atoms: C_15  and  O_26
REMARK   11  A    between atoms: C_27  and  C_28
REMARK                            x       y       z     vdW  Elec       q    Type
REMARK                         _______ _______ _______ _____ _____    ______ ____
ROOT
ATOM      1  C   UNL     1       3.626  -7.341  -3.463  0.00  0.00    +0.089 A 
ATOM      2  C   UNL     1       4.604  -7.149  -4.366  0.00  0.00    +0.043 A 
ATOM      3  C   UNL     1       3.972  -6.902  -5.607  0.00  0.00    +0.048 A 
ATOM      4  C   UNL     1       2.646  -6.959  -5.388  0.00  0.00    +0.147 A 
ATOM      5  O   UNL     1       2.442  -7.231  -4.088  0.00  0.00    -0.463 OA
ENDROOT
BRANCH   1   6
ATOM      6  C   UNL     1       3.824  -7.637  -1.998  0.00  0.00    -0.003 C 
BRANCH   6   7
ATOM      7  N   UNL     1       3.718  -6.391  -1.228  0.00  0.00    +0.389 N 
ATOM      8  H   UNL     1       4.380  -5.718  -1.584  0.00  0.00    -0.081 HD
BRANCH   7   9
ATOM      9  C   UNL     1       4.008  -6.663   0.186  0.00  0.00    -0.035 C 
BRANCH   9  14
ATOM     10  C   UNL     1       5.056  -1.728   2.762  0.00  0.00    +0.051 C 
ATOM     11  C   UNL     1       4.536  -3.016   2.178  0.00  0.00    -0.013 A 
ATOM     12  C   UNL     1       3.302  -3.566   2.289  0.00  0.00    +0.011 A 
ATOM     13  C   UNL     1       3.046  -4.770   1.660  0.00  0.00    +0.009 A 
ATOM     14  C   UNL     1       4.037  -5.365   0.952  0.00  0.00    -0.026 A 
ATOM     15  S   UNL     1       5.382  -4.209   1.155  0.00  0.00    -0.100 S 
ENDBRANCH   9  14
ENDBRANCH   7   9
BRANCH   7  16
ATOM     16  C   UNL     1       2.357  -5.852  -1.354  0.00  0.00    -0.046 C 
BRANCH  16  17
ATOM     17  C   UNL     1       1.368  -6.800  -0.672  0.00  0.00    +0.102 C 
ATOM     18  C   UNL     1      -0.063  -6.208  -0.718  0.00  0.00    +0.032 C 
ATOM     19  C   UNL     1      -0.919  -7.500  -0.609  0.00  0.00    +0.030 C 
ATOM     20  C   UNL     1      -0.060  -8.529  -1.374  0.00  0.00    +0.160 C 
ATOM     21  O   UNL     1       1.288  -8.039  -1.393  0.00  0.00    -0.378 OA
ENDBRANCH  16  17
ENDBRANCH   7  16
ENDBRANCH   6   7
ENDBRANCH   1   6
BRANCH   4  22
ATOM     22  C   UNL     1       1.572  -6.757  -6.425  0.00  0.00    +0.186 C 
BRANCH  22  23
ATOM     23  C   UNL     1       0.466  -7.756  -6.203  0.00  0.00    +0.034 A 
ATOM     24  C   UNL     1       0.163  -8.867  -6.918  0.00  0.00    +0.015 A 
ATOM     25  C   UNL     1      -0.910  -9.645  -6.525  0.00  0.00    +0.008 A 
ATOM     26  C   UNL     1      -1.628  -9.273  -5.437  0.00  0.00    +0.045 A 
ATOM     27  S   UNL     1      -0.782  -7.787  -4.926  0.00  0.00    -0.098 S 
ENDBRANCH  22  23
BRANCH  22  28
ATOM     28  C   UNL     1       1.019  -5.360  -6.310  0.00  0.00    +0.034 A 
ATOM     29  C   UNL     1       0.491  -4.569  -7.275  0.00  0.00    +0.015 A 
ATOM     30  C   UNL     1       0.039  -3.307  -6.936  0.00  0.00    +0.008 A 
ATOM     31  C   UNL     1       0.137  -2.899  -5.647  0.00  0.00    +0.045 A 
ATOM     32  S   UNL     1       0.880  -4.321  -4.864  0.00  0.00    -0.098 S 
ENDBRANCH  22  28
BRANCH  22  33
ATOM     33  O   UNL     1       2.128  -6.943  -7.728  0.00  0.00    -0.371 OA
ATOM     34  H   UNL     1       2.503  -7.822  -7.874  0.00  0.00    +0.212 HD
ENDBRANCH  22  33
ENDBRANCH   4  22
TORSDOF 10
