REMARK  Name = ZINC67480727
REMARK  8 active torsions:
REMARK  status: ('A' for Active; 'I' for Inactive)
REMARK    1  A    between atoms: C_1  and  C_2
REMARK    2  A    between atoms: C_2  and  C_4
REMARK    3  A    between atoms: C_2  and  N_15
REMARK    4  A    between atoms: C_16  and  C_18
REMARK    5  A    between atoms: C_18  and  C_20
REMARK    6  A    between atoms: C_18  and  O_21
REMARK    7  A    between atoms: O_21  and  C_22
REMARK    8  A    between atoms: C_26  and  C_28
REMARK                            x       y       z     vdW  Elec       q    Type
REMARK                         _______ _______ _______ _____ _____    ______ ____
ROOT
ATOM      1  N   UNL     1       0.750  -0.223   1.273  0.00  0.00    -0.306 N 
ATOM      2  C   UNL     1       0.099  -0.410   2.439  0.00  0.00    +0.254 C 
ATOM      3  O   UNL     1      -1.031   0.008   2.576  0.00  0.00    -0.272 OA
ATOM      4  H   UNL     1       1.654  -0.557   1.164  0.00  0.00    +0.149 HD
ENDROOT
BRANCH   1   6
ATOM      5  C   UNL     1       0.281   1.993   0.350  0.00  0.00    +0.033 C 
ATOM      6  C   UNL     1       0.092   0.485   0.172  0.00  0.00    +0.100 C 
BRANCH   6   7
ATOM      7  C   UNL     1       0.701   0.053  -1.137  0.00  0.00    -0.026 A 
ATOM      8  C   UNL     1       2.066  -0.146  -1.230  0.00  0.00    +0.009 A 
ATOM      9  C   UNL     1       2.633  -0.543  -2.428  0.00  0.00    +0.048 A 
ATOM     10  C   UNL     1       1.830  -0.741  -3.538  0.00  0.00    +0.142 A 
ATOM     11  C   UNL     1       0.454  -0.539  -3.444  0.00  0.00    +0.076 A 
ATOM     12  C   UNL     1      -0.108  -0.147  -2.241  0.00  0.00    +0.032 A 
ATOM     13  N   UNL     1      -0.347  -0.741  -4.577  0.00  0.00    -0.280 N 
ATOM     14  C   UNL     1       0.164  -1.418  -5.628  0.00  0.00    +0.255 C 
ATOM     15  O   UNL     1      -0.499  -1.577  -6.631  0.00  0.00    -0.272 OA
ATOM     16  C   UNL     1       1.563  -1.975  -5.550  0.00  0.00    +0.325 C 
ATOM     17  O   UNL     1       2.370  -1.133  -4.723  0.00  0.00    -0.481 OA
ATOM     18  H   UNL     1      -1.254  -0.399  -4.606  0.00  0.00    +0.155 HD
ENDBRANCH   6   7
ENDBRANCH   1   6
BRANCH   2  19
ATOM     19  C   UNL     1       0.775  -1.138   3.571  0.00  0.00    +0.255 C 
ATOM     20  C   UNL     1       1.976  -0.323   4.057  0.00  0.00    +0.062 C 
BRANCH  19  21
ATOM     21  O   UNL     1      -0.150  -1.310   4.647  0.00  0.00    -0.480 OA
BRANCH  21  22
ATOM     22  C   UNL     1       0.077  -2.347   5.496  0.00  0.00    +0.123 A 
ATOM     23  C   UNL     1       1.231  -3.109   5.367  0.00  0.00    +0.046 A 
ATOM     24  C   UNL     1       1.467  -4.165   6.228  0.00  0.00    +0.005 A 
ATOM     25  C   UNL     1       0.558  -4.468   7.221  0.00  0.00    +0.019 A 
ATOM     26  C   UNL     1      -0.605  -3.708   7.358  0.00  0.00    +0.055 A 
ATOM     27  C   UNL     1      -0.839  -2.639   6.492  0.00  0.00    +0.064 A 
BRANCH  26  28
ATOM     28  C   UNL     1      -1.551  -4.020   8.386  0.00  0.00    +0.099 C 
ATOM     29  N   UNL     1      -2.301  -4.268   9.203  0.00  0.00    -0.191 NA
ENDBRANCH  26  28
ENDBRANCH  21  22
ENDBRANCH  19  21
ENDBRANCH   2  19
TORSDOF 6
