REMARK  Name = ZINC20418066
REMARK  7 active torsions:
REMARK  status: ('A' for Active; 'I' for Inactive)
REMARK    1  A    between atoms: C_1  and  C_2
REMARK    2  A    between atoms: C_12  and  C_14
REMARK    3  A    between atoms: C_12  and  C_15
REMARK    4  A    between atoms: C_23  and  C_24
REMARK    5  A    between atoms: N_26  and  C_27
REMARK    6  A    between atoms: C_27  and  C_28
REMARK    7  A    between atoms: C_28  and  N_29
REMARK                            x       y       z     vdW  Elec       q    Type
REMARK                         _______ _______ _______ _____ _____    ______ ____
ROOT
ATOM      1  C   UNL     1       1.923  -3.196  -0.036  0.00  0.00    +0.048 C 
ATOM      2  C   UNL     1       0.932  -2.061  -0.019  0.00  0.00    +0.008 A 
ATOM      3  C   UNL     1       1.195  -0.708  -0.335  0.00  0.00    +0.038 A 
ATOM      4  C   UNL     1      -0.020  -0.021  -0.182  0.00  0.00    +0.137 A 
ATOM      5  C   UNL     1      -0.070   1.349  -0.429  0.00  0.00    +0.050 A 
ATOM      6  C   UNL     1       1.058   2.035  -0.820  0.00  0.00    +0.050 A 
ATOM      7  C   UNL     1       2.276   1.376  -0.979  0.00  0.00    +0.133 A 
ATOM      8  C   UNL     1       2.349  -0.001  -0.738  0.00  0.00    +0.070 A 
ATOM      9  C   UNL     1       3.633  -0.691  -0.914  0.00  0.00    +0.171 C 
ATOM     10  O   UNL     1       3.709  -1.902  -0.929  0.00  0.00    -0.292 OA
ATOM     11  C   UNL     1       4.861   0.187  -1.077  0.00  0.00    +0.132 C 
ATOM     12  C   UNL     1       4.455   1.369  -1.970  0.00  0.00    +0.140 C 
ATOM     13  O   UNL     1       3.373   2.072  -1.358  0.00  0.00    -0.480 OA
ATOM     14  C   UNL     1       4.016   0.848  -3.340  0.00  0.00    +0.061 C 
ATOM     15  O   UNL     1      -0.948  -0.920   0.204  0.00  0.00    -0.450 OA
ATOM     16  C   UNL     1      -0.386  -2.143   0.303  0.00  0.00    +0.193 A 
ENDROOT
BRANCH  12  17
ATOM     17  C   UNL     1       5.629   2.299  -2.138  0.00  0.00    -0.004 A 
ATOM     18  C   UNL     1       6.918   1.800  -2.095  0.00  0.00    +0.009 A 
ATOM     19  C   UNL     1       7.995   2.651  -2.254  0.00  0.00    +0.020 A 
ATOM     20  C   UNL     1       7.783   4.005  -2.446  0.00  0.00    +0.041 A 
ATOM     21  C   UNL     1       6.494   4.505  -2.483  0.00  0.00    +0.020 A 
ATOM     22  C   UNL     1       5.418   3.652  -2.329  0.00  0.00    +0.009 A 
ATOM     23 CL   UNL     1       9.136   5.076  -2.639  0.00  0.00    -0.084 Cl
ENDBRANCH  12  17
BRANCH  16  24
ATOM     24  C   UNL     1      -1.090  -3.373   0.699  0.00  0.00    +0.280 C 
ATOM     25  O   UNL     1      -0.486  -4.427   0.757  0.00  0.00    -0.267 OA
ATOM     26  N   UNL     1      -2.404  -3.331   0.997  0.00  0.00    -0.311 N 
ATOM     27  H   UNL     1      -2.949  -2.378   0.945  0.00  0.00    +0.149 HD
BRANCH  26  28
ATOM     28  C   UNL     1      -3.104  -4.556   1.391  0.00  0.00    +0.086 C 
BRANCH  28  29
ATOM     29  C   UNL     1      -4.574  -4.235   1.673  0.00  0.00    -0.060 C 
BRANCH  29  30
ATOM     30  N   UNL     1      -5.277  -5.463   2.067  0.00  0.00    +0.381 N 
ATOM     31  C   UNL     1      -5.237  -6.469   0.983  0.00  0.00    -0.079 C 
ATOM     32  C   UNL     1      -6.164  -7.628   1.227  0.00  0.00    -0.019 C 
ATOM     33  C   UNL     1      -7.508  -7.335   0.528  0.00  0.00    -0.002 C 
ATOM     34  C   UNL     1      -8.336  -6.408   1.291  0.00  0.00    -0.002 C 
ATOM     35  C   UNL     1      -7.654  -5.037   1.478  0.00  0.00    -0.019 C 
ATOM     36  C   UNL     1      -6.632  -5.157   2.576  0.00  0.00    -0.079 C 
ATOM     37  H   UNL     1      -4.743  -5.921   2.913  0.00  0.00    -0.082 HD
ENDBRANCH  29  30
ENDBRANCH  28  29
ENDBRANCH  26  28
ENDBRANCH  16  24
TORSDOF 5
