REMARK  Name = ZINC22748173
REMARK  6 active torsions:
REMARK  status: ('A' for Active; 'I' for Inactive)
REMARK    1  A    between atoms: C_1  and  C_2
REMARK    2  A    between atoms: C_6  and  N_8
REMARK    3  A    between atoms: C_9  and  C_11
REMARK    4  A    between atoms: C_11  and  N_12
REMARK    5  A    between atoms: C_15  and  C_19
REMARK    6  A    between atoms: C_15  and  C_20
REMARK                            x       y       z     vdW  Elec       q    Type
REMARK                         _______ _______ _______ _____ _____    ______ ____
ROOT
ATOM      1  N   UNL     1       1.056   2.062   0.001  0.00  0.00    -0.215 N 
ATOM      2  C   UNL     1      -0.011   1.238   0.015  0.00  0.00    +0.251 C 
ATOM      3  O   UNL     1       0.001   0.025   0.017  0.00  0.00    -0.272 OA
ATOM      4  C   UNL     1      -1.227   2.142   0.021  0.00  0.00    +0.135 C 
ATOM      5  N   UNL     1      -0.651   3.498   0.017  0.00  0.00    -0.281 N 
ATOM      6  C   UNL     1       0.686   3.348   0.003  0.00  0.00    +0.310 C 
ATOM      7  O   UNL     1       1.470   4.276  -0.008  0.00  0.00    -0.252 OA
ATOM      8  C   UNL     1      -2.075   1.911  -1.232  0.00  0.00    +0.047 C 
ATOM      9  H   UNL     1      -1.312   4.377   0.026  0.00  0.00    +0.152 HD
ENDROOT
BRANCH   4  10
ATOM     10  C   UNL     1      -2.047   1.920   1.266  0.00  0.00    -0.015 A 
ATOM     11  C   UNL     1      -2.054   0.663   1.868  0.00  0.00    +0.007 A 
ATOM     12  C   UNL     1      -2.783   0.430   2.993  0.00  0.00    +0.009 A 
ATOM     13  C   UNL     1      -3.541   1.469   3.559  0.00  0.00    -0.018 A 
ATOM     14  C   UNL     1      -4.306   1.266   4.720  0.00  0.00    +0.008 A 
ATOM     15  C   UNL     1      -5.028   2.296   5.239  0.00  0.00    +0.001 A 
ATOM     16  C   UNL     1      -5.021   3.553   4.637  0.00  0.00    +0.001 A 
ATOM     17  C   UNL     1      -4.292   3.786   3.511  0.00  0.00    +0.008 A 
ATOM     18  C   UNL     1      -3.534   2.747   2.946  0.00  0.00    -0.018 A 
ATOM     19  C   UNL     1      -2.765   2.952   1.788  0.00  0.00    +0.014 A 
ENDBRANCH   4  10
BRANCH   1  20
ATOM     20  C   UNL     1       2.448   1.606  -0.012  0.00  0.00    +0.214 C 
BRANCH  20  22
ATOM     21  N   UNL     1       4.167   1.033  -1.696  0.00  0.00    -0.282 N 
ATOM     22  C   UNL     1       2.910   1.446  -1.437  0.00  0.00    +0.235 C 
ATOM     23  O   UNL     1       2.152   1.689  -2.352  0.00  0.00    -0.274 OA
ATOM     24  H   UNL     1       4.878   0.883  -0.870  0.00  0.00    +0.155 HD
BRANCH  21  30
ATOM     25  C   UNL     1       3.932   2.199  -6.467  0.00  0.00    +0.044 C 
ATOM     26  C   UNL     1       4.470   1.344  -5.348  0.00  0.00    -0.049 A 
ATOM     27  C   UNL     1       5.361   0.324  -5.627  0.00  0.00    +0.006 A 
ATOM     28  C   UNL     1       5.857  -0.464  -4.604  0.00  0.00    +0.040 A 
ATOM     29  C   UNL     1       5.463  -0.232  -3.298  0.00  0.00    +0.144 A 
ATOM     30  C   UNL     1       4.568   0.794  -3.016  0.00  0.00    +0.069 A 
ATOM     31  C   UNL     1       4.069   1.578  -4.047  0.00  0.00    +0.029 A 
ATOM     32  F   UNL     1       5.947  -1.001  -2.299  0.00  0.00    -0.204 F 
ENDBRANCH  21  30
ENDBRANCH  20  22
ENDBRANCH   1  20
TORSDOF 4
