REMARK  Name = ZINC01455445
REMARK  8 active torsions:
REMARK  status: ('A' for Active; 'I' for Inactive)
REMARK    1  A    between atoms: C_1  and  O_2
REMARK    2  A    between atoms: O_2  and  C_3
REMARK    3  A    between atoms: C_6  and  C_11
REMARK    4  A    between atoms: C_8  and  O_9
REMARK    5  A    between atoms: O_9  and  C_10
REMARK    6  A    between atoms: N_17  and  N_18
REMARK    7  A    between atoms: C_19  and  C_20
REMARK    8  A    between atoms: C_24  and  O_26
REMARK                            x       y       z     vdW  Elec       q    Type
REMARK                         _______ _______ _______ _____ _____    ______ ____
ROOT
ATOM      1  C   UNL     1      -1.242   8.158   1.177  0.00  0.00    +0.184 A 
ATOM      2  N   UNL     1      -1.262   9.405   0.794  0.00  0.00    -0.152 NA
ATOM      3  N   UNL     1      -1.276   9.428  -0.608  0.00  0.00    -0.253 N 
ATOM      4  H   UNL     1      -1.297  10.390  -1.141  0.00  0.00    +0.191 HD
ATOM      5  C   UNL     1      -1.258   8.149  -1.036  0.00  0.00    +0.197 A 
ATOM      6  S   UNL     1      -1.265   7.630  -2.667  0.00  0.00    -0.010 S 
ATOM      7  N   UNL     1      -1.234   7.354   0.052  0.00  0.00    -0.188 N 
ENDROOT
BRANCH   1  11
ATOM      8  C   UNL     1      -1.195   6.792   5.204  0.00  0.00    +0.162 A 
ATOM      9  C   UNL     1      -0.875   5.921   4.172  0.00  0.00    +0.050 A 
ATOM     10  C   UNL     1      -0.890   6.361   2.865  0.00  0.00    +0.015 A 
ATOM     11  C   UNL     1      -1.227   7.685   2.578  0.00  0.00    +0.025 A 
ATOM     12  C   UNL     1      -1.543   8.562   3.616  0.00  0.00    +0.061 A 
ATOM     13  C   UNL     1      -1.532   8.114   4.924  0.00  0.00    +0.162 A 
BRANCH   8  15
ATOM     14  C   UNL     1      -0.824   4.986   6.706  0.00  0.00    +0.277 C 
ATOM     15  O   UNL     1      -1.179   6.354   6.491  0.00  0.00    -0.491 OA
ENDBRANCH   8  15
BRANCH  13  16
ATOM     16  O   UNL     1      -1.843   8.965   5.937  0.00  0.00    -0.491 OA
ATOM     17  C   UNL     1      -2.179  10.307   5.577  0.00  0.00    +0.277 C 
ENDBRANCH  13  16
ENDBRANCH   1  11
BRANCH   7  18
ATOM     18  N   UNL     1      -1.210   5.953   0.045  0.00  0.00    -0.171 NA
ATOM     19  C   UNL     1      -0.076   5.323   0.031  0.00  0.00    +0.141 C 
BRANCH  19  20
ATOM     20  C   UNL     1      -0.051   3.849   0.023  0.00  0.00    -0.002 A 
ATOM     21  C   UNL     1      -1.248   3.127   0.031  0.00  0.00    +0.010 A 
ATOM     22  C   UNL     1      -1.221   1.748   0.017  0.00  0.00    +0.004 A 
ATOM     23  C   UNL     1      -0.013   1.076   0.008  0.00  0.00    +0.045 A 
ATOM     24  C   UNL     1       1.182   1.784   0.000  0.00  0.00    +0.117 A 
ATOM     25  C   UNL     1       1.167   3.168   0.008  0.00  0.00    +0.055 A 
BRANCH  24  26
ATOM     26  O   UNL     1       2.366   1.117  -0.015  0.00  0.00    -0.507 OA
ATOM     27  H   UNL     1       3.313   1.677  -0.021  0.00  0.00    +0.292 HD
ENDBRANCH  24  26
ENDBRANCH  19  20
ENDBRANCH   7  18
TORSDOF 6
