REMARK  Name = ZINC67396265
REMARK  9 active torsions:
REMARK  status: ('A' for Active; 'I' for Inactive)
REMARK    1  A    between atoms: C_1  and  C_2
REMARK    2  A    between atoms: C_2  and  C_4
REMARK    3  A    between atoms: C_2  and  N_12
REMARK    4  A    between atoms: C_4  and  C_5
REMARK    5  A    between atoms: C_8  and  O_11
REMARK    6  A    between atoms: C_13  and  C_15
REMARK    7  A    between atoms: N_17  and  C_18
REMARK    8  A    between atoms: N_17  and  C_19
REMARK    9  A    between atoms: C_22  and  N_25
REMARK                            x       y       z     vdW  Elec       q    Type
REMARK                         _______ _______ _______ _____ _____    ______ ____
ROOT
ATOM      1  N   UNL     1       0.983   0.215   1.132  0.00  0.00    -0.305 N 
ATOM      2  C   UNL     1       2.294  -0.092   1.192  0.00  0.00    +0.300 C 
ATOM      3  O   UNL     1       3.047   0.291   0.321  0.00  0.00    -0.265 OA
ATOM      4  H   UNL     1       0.381  -0.091   1.829  0.00  0.00    +0.149 HD
ENDROOT
BRANCH   2   5
ATOM      5  C   UNL     1       2.820  -0.902   2.331  0.00  0.00    +0.305 C 
ATOM      6  O   UNL     1       2.088  -1.201   3.253  0.00  0.00    -0.265 OA
ATOM      7  N   UNL     1       4.107  -1.301   2.337  0.00  0.00    -0.267 N 
ATOM      8  C   UNL     1       4.995  -0.924   1.234  0.00  0.00    +0.139 C 
BRANCH   7   9
ATOM      9  C   UNL     1       4.595  -2.074   3.393  0.00  0.00    +0.037 A 
ATOM     10  C   UNL     1       3.804  -2.302   4.512  0.00  0.00    +0.026 A 
ATOM     11  C   UNL     1       4.288  -3.067   5.555  0.00  0.00    +0.034 A 
ATOM     12  C   UNL     1       5.560  -3.606   5.485  0.00  0.00    +0.126 A 
ATOM     13  C   UNL     1       6.350  -3.382   4.373  0.00  0.00    +0.034 A 
ATOM     14  C   UNL     1       5.869  -2.623   3.324  0.00  0.00    +0.026 A 
BRANCH  12  15
ATOM     15  N   UNL     1       6.076  -4.425   6.605  0.00  0.00    +0.056 N 
ATOM     16  O   UNL     1       5.387  -4.622   7.579  0.00  0.00    -0.126 OA
ATOM     17  O   UNL     1       7.188  -4.898   6.546  0.00  0.00    -0.126 OA
ENDBRANCH  12  15
ENDBRANCH   7   9
ENDBRANCH   2   5
BRANCH   1  19
ATOM     18  C   UNL     1       0.650   2.498   0.320  0.00  0.00    +0.028 C 
ATOM     19  C   UNL     1       0.467   1.009   0.015  0.00  0.00    +0.075 C 
BRANCH  19  20
ATOM     20  C   UNL     1      -1.021   0.709  -0.180  0.00  0.00    +0.057 C 
BRANCH  20  21
ATOM     21  C   UNL     1      -1.192  -0.728  -0.601  0.00  0.00    -0.045 A 
ATOM     22  C   UNL     1      -1.179  -1.061  -1.943  0.00  0.00    +0.007 A 
ATOM     23  C   UNL     1      -1.336  -2.378  -2.331  0.00  0.00    +0.045 A 
ATOM     24  C   UNL     1      -1.506  -3.366  -1.372  0.00  0.00    +0.117 A 
ATOM     25  C   UNL     1      -1.518  -3.030  -0.026  0.00  0.00    +0.045 A 
ATOM     26  C   UNL     1      -1.355  -1.713   0.356  0.00  0.00    +0.007 A 
BRANCH  24  27
ATOM     27  O   UNL     1      -1.661  -4.662  -1.751  0.00  0.00    -0.507 OA
ATOM     28  H   UNL     1      -0.831  -5.152  -1.825  0.00  0.00    +0.292 HD
ENDBRANCH  24  27
ENDBRANCH  20  21
ENDBRANCH  19  20
ENDBRANCH   1  19
TORSDOF 7
