REMARK  Name = ZINC67538729
REMARK  6 active torsions:
REMARK  status: ('A' for Active; 'I' for Inactive)
REMARK    1  A    between atoms: C_1  and  C_2
REMARK    2  A    between atoms: C_2  and  C_4
REMARK    3  A    between atoms: C_2  and  C_21
REMARK    4  A    between atoms: C_4  and  N_5
REMARK    5  A    between atoms: N_5  and  C_6
REMARK    6  A    between atoms: C_13  and  C_15
REMARK                            x       y       z     vdW  Elec       q    Type
REMARK                         _______ _______ _______ _____ _____    ______ ____
ROOT
ATOM      1  N   UNL     1      -0.055  -0.114  -2.441  0.00  0.00    -0.287 N 
ATOM      2  C   UNL     1       0.199   1.171  -3.096  0.00  0.00    +0.133 C 
ATOM      3  C   UNL     1      -1.000  -0.943  -2.926  0.00  0.00    +0.308 C 
ATOM      4  O   UNL     1      -1.211  -2.010  -2.382  0.00  0.00    -0.252 OA
ATOM      5  N   UNL     1      -1.711  -0.590  -4.015  0.00  0.00    -0.247 N 
ATOM      6  C   UNL     1      -2.686  -1.446  -4.516  0.00  0.00    +0.189 A 
ATOM      7  N   UNL     1      -3.064  -2.628  -4.071  0.00  0.00    -0.126 NA
ATOM      8  N   UNL     1      -3.975  -3.295  -4.637  0.00  0.00    -0.144 NA
ATOM      9  C   UNL     1      -4.566  -2.797  -5.704  0.00  0.00    +0.107 A 
ATOM     10  S   UNL     1      -3.700  -1.240  -5.848  0.00  0.00    -0.035 S 
ATOM     11  H   UNL     1      -1.543   0.261  -4.449  0.00  0.00    +0.158 HD
ENDROOT
BRANCH   9  12
ATOM     12  C   UNL     1      -5.664  -3.374  -6.559  0.00  0.00    +0.047 C 
ATOM     13  C   UNL     1      -6.909  -3.608  -5.701  0.00  0.00    +0.010 C 
ATOM     14  C   UNL     1      -8.024  -4.194  -6.569  0.00  0.00    +0.001 C 
ATOM     15  C   UNL     1      -7.560  -5.524  -7.168  0.00  0.00    +0.000 C 
ATOM     16  C   UNL     1      -6.315  -5.289  -8.026  0.00  0.00    +0.001 C 
ATOM     17  C   UNL     1      -5.200  -4.703  -7.158  0.00  0.00    +0.010 C 
ENDBRANCH   9  12
BRANCH   1  18
ATOM     18  C   UNL     1       0.718  -0.497  -1.257  0.00  0.00    +0.127 C 
BRANCH  18  20
ATOM     19  C   UNL     1      -0.019   1.526   0.010  0.00  0.00    +0.025 C 
ATOM     20  C   UNL     1       0.002  -0.004   0.002  0.00  0.00    +0.106 C 
BRANCH  20  21
ATOM     21  C   UNL     1       0.714  -0.492   1.195  0.00  0.00    +0.067 C 
ATOM     22  N   UNL     1       1.263  -0.868   2.115  0.00  0.00    -0.196 NA
ENDBRANCH  20  21
ENDBRANCH  18  20
ENDBRANCH   1  18
TORSDOF 4
