REMARK  Name = ZINC14584843
REMARK  8 active torsions:
REMARK  status: ('A' for Active; 'I' for Inactive)
REMARK    1  A    between atoms: C_1  and  C_2
REMARK    2  A    between atoms: C_2  and  N_3
REMARK    3  A    between atoms: N_3  and  C_4
REMARK    4  A    between atoms: C_5  and  N_20
REMARK    5  A    between atoms: N_6  and  C_13
REMARK    6  A    between atoms: C_13  and  C_14
REMARK    7  A    between atoms: C_21  and  C_23
REMARK    8  A    between atoms: C_23  and  C_24
REMARK                            x       y       z     vdW  Elec       q    Type
REMARK                         _______ _______ _______ _____ _____    ______ ____
ROOT
ATOM      1  C   UNL     1      -1.923  -0.943   1.226  0.00  0.00    +0.140 A 
ATOM      2  C   UNL     1      -3.158  -1.558   1.237  0.00  0.00    +0.128 A 
ATOM      3  N   UNL     1      -3.704  -1.948   2.438  0.00  0.00    -0.276 N 
ATOM      4  C   UNL     1      -3.045  -1.724   3.589  0.00  0.00    +0.331 A 
ATOM      5  O   UNL     1      -3.546  -2.072   4.641  0.00  0.00    -0.246 OA
ATOM      6  N   UNL     1      -1.842  -1.122   3.599  0.00  0.00    -0.273 N 
ATOM      7  H   UNL     1      -1.374  -0.968   4.468  0.00  0.00    +0.173 HD
ATOM      8  C   UNL     1      -1.262  -0.725   2.449  0.00  0.00    +0.277 A 
ATOM      9  O   UNL     1      -0.171  -0.180   2.469  0.00  0.00    -0.266 OA
ENDROOT
BRANCH   1  10
ATOM     10  N   UNL     1      -1.334  -0.536   0.010  0.00  0.00    -0.264 N 
ATOM     11  C   UNL     1      -0.983  -1.457  -0.912  0.00  0.00    +0.224 C 
ATOM     12  O   UNL     1      -1.258  -2.626  -0.736  0.00  0.00    -0.275 OA
BRANCH  10  14
ATOM     13  C   UNL     1      -2.309   1.469  -0.995  0.00  0.00    +0.025 C 
ATOM     14  C   UNL     1      -1.105   0.887  -0.252  0.00  0.00    +0.110 C 
ENDBRANCH  10  14
BRANCH  11  15
ATOM     15  C   UNL     1      -0.251  -1.034  -2.159  0.00  0.00    +0.135 C 
BRANCH  15  16
ATOM     16  C   UNL     1       0.022  -2.243  -3.016  0.00  0.00    +0.015 A 
ATOM     17  C   UNL     1       1.197  -2.957  -2.853  0.00  0.00    +0.128 A 
ATOM     18  C   UNL     1       1.443  -4.071  -3.638  0.00  0.00    +0.039 A 
ATOM     19  C   UNL     1       0.521  -4.463  -4.590  0.00  0.00    +0.004 A 
ATOM     20  C   UNL     1      -0.649  -3.747  -4.757  0.00  0.00    +0.020 A 
ATOM     21  C   UNL     1      -0.899  -2.637  -3.970  0.00  0.00    +0.047 A 
ATOM     22 CL   UNL     1      -2.370  -1.738  -4.179  0.00  0.00    -0.083 Cl
ATOM     23  F   UNL     1       2.100  -2.570  -1.926  0.00  0.00    -0.205 F 
ENDBRANCH  15  16
ENDBRANCH  11  15
ENDBRANCH   1  10
BRANCH   2  24
ATOM     24  N   UNL     1      -3.834  -1.781   0.061  0.00  0.00    -0.343 N 
ATOM     25  H   UNL     1      -3.483  -1.432  -0.774  0.00  0.00    +0.144 HD
ATOM     26  H   UNL     1      -4.661  -2.288   0.066  0.00  0.00    +0.144 HD
ENDBRANCH   2  24
BRANCH   3  27
ATOM     27  C   UNL     1      -5.013  -2.605   2.463  0.00  0.00    +0.163 C 
BRANCH  27  28
ATOM     28  C   UNL     1      -6.095  -1.564   2.589  0.00  0.00    -0.028 A 
ATOM     29  C   UNL     1      -6.533  -1.169   3.840  0.00  0.00    +0.005 A 
ATOM     30  C   UNL     1      -7.522  -0.211   3.955  0.00  0.00    +0.000 A 
ATOM     31  C   UNL     1      -8.082   0.345   2.819  0.00  0.00    +0.000 A 
ATOM     32  C   UNL     1      -7.648  -0.054   1.569  0.00  0.00    +0.000 A 
ATOM     33  C   UNL     1      -6.655  -1.008   1.454  0.00  0.00    +0.005 A 
ENDBRANCH  27  28
ENDBRANCH   3  27
TORSDOF 7
