REMARK  Name = ZINC14849558
REMARK  9 active torsions:
REMARK  status: ('A' for Active; 'I' for Inactive)
REMARK    1  A    between atoms: C_1  and  C_2
REMARK    2  A    between atoms: C_2  and  C_3
REMARK    3  A    between atoms: C_2  and  N_4
REMARK    4  A    between atoms: N_4  and  S_5
REMARK    5  A    between atoms: S_5  and  C_8
REMARK    6  A    between atoms: C_11  and  N_14
REMARK    7  A    between atoms: C_15  and  C_17
REMARK    8  A    between atoms: C_17  and  C_18
REMARK    9  A    between atoms: C_18  and  C_19
REMARK                            x       y       z     vdW  Elec       q    Type
REMARK                         _______ _______ _______ _____ _____    ______ ____
ROOT
ATOM      1  N   UNL     1      -0.011   0.966   0.007  0.00  0.00    -0.285 N 
ATOM      2  C   UNL     1       1.050   1.777  -0.174  0.00  0.00    +0.217 C 
ATOM      3  O   UNL     1       0.879   2.953  -0.417  0.00  0.00    -0.275 OA
ATOM      4  H   UNL     1       0.122   0.012   0.124  0.00  0.00    +0.155 HD
ENDROOT
BRANCH   1   8
ATOM      5  C   UNL     1      -3.863   2.553   0.051  0.00  0.00    +0.105 A 
ATOM      6  C   UNL     1      -3.645   1.284  -0.456  0.00  0.00    +0.030 A 
ATOM      7  C   UNL     1      -2.369   0.756  -0.472  0.00  0.00    +0.025 A 
ATOM      8  C   UNL     1      -1.305   1.499   0.022  0.00  0.00    +0.033 A 
ATOM      9  C   UNL     1      -1.528   2.769   0.536  0.00  0.00    +0.025 A 
ATOM     10  C   UNL     1      -2.805   3.295   0.543  0.00  0.00    +0.030 A 
BRANCH   5  11
ATOM     11  S   UNL     1      -5.492   3.224   0.068  0.00  0.00    +0.059 S 
ATOM     12  O   UNL     1      -5.348   4.637   0.091  0.00  0.00    -0.153 OA
ATOM     13  O   UNL     1      -6.221   2.549  -0.948  0.00  0.00    -0.153 OA
BRANCH  11  14
ATOM     14  N   UNL     1      -6.183   2.795   1.511  0.00  0.00    -0.187 NA
ATOM     15  H   UNL     1      -6.950   2.201   1.524  0.00  0.00    +0.148 HD
BRANCH  14  17
ATOM     16  C   UNL     1      -6.413   4.563   3.185  0.00  0.00    +0.025 C 
ATOM     17  C   UNL     1      -5.636   3.312   2.768  0.00  0.00    +0.070 C 
ATOM     18  C   UNL     1      -5.764   2.245   3.857  0.00  0.00    +0.025 C 
ENDBRANCH  14  17
ENDBRANCH  11  14
ENDBRANCH   5  11
ENDBRANCH   1   8
BRANCH   2  19
ATOM     19  C   UNL     1       2.448   1.223  -0.076  0.00  0.00    +0.097 C 
BRANCH  19  20
ATOM     20  C   UNL     1       3.459   2.344  -0.322  0.00  0.00    +0.022 C 
BRANCH  20  21
ATOM     21  C   UNL     1       4.879   1.781  -0.222  0.00  0.00    +0.080 C 
ATOM     22  C   UNL     1       5.885   2.870  -0.597  0.00  0.00    +0.049 C 
ATOM     23  C   UNL     1       7.276   2.422  -0.231  0.00  0.00    -0.025 A 
ATOM     24  C   UNL     1       8.354   2.821  -0.999  0.00  0.00    +0.005 A 
ATOM     25  C   UNL     1       9.635   2.444  -0.642  0.00  0.00    +0.000 A 
ATOM     26  C   UNL     1       9.843   1.670   0.485  0.00  0.00    +0.002 A 
ATOM     27  C   UNL     1       8.769   1.262   1.251  0.00  0.00    +0.023 A 
ATOM     28  C   UNL     1       7.479   1.622   0.885  0.00  0.00    +0.037 A 
ATOM     29  N   UNL     1       6.390   1.202   1.654  0.00  0.00    -0.285 N 
ATOM     30  C   UNL     1       5.134   1.315   1.187  0.00  0.00    +0.221 C 
ATOM     31  O   UNL     1       4.199   1.037   1.907  0.00  0.00    -0.275 OA
ATOM     32  H   UNL     1       6.541   0.826   2.535  0.00  0.00    +0.155 HD
ENDBRANCH  20  21
ENDBRANCH  19  20
ENDBRANCH   2  19
TORSDOF 7
