REMARK  Name = ZINC09506915
REMARK  11 active torsions:
REMARK  status: ('A' for Active; 'I' for Inactive)
REMARK    1  A    between atoms: C_1  and  C_2
REMARK    2  A    between atoms: C_2  and  C_4
REMARK    3  A    between atoms: C_2  and  N_56
REMARK    4  A    between atoms: C_10  and  C_15
REMARK    5  A    between atoms: C_21  and  N_56
REMARK    6  A    between atoms: C_22  and  C_23
REMARK    7  A    between atoms: C_22  and  N_56
REMARK    8  A    between atoms: C_26  and  O_31
REMARK    9  A    between atoms: C_27  and  O_29
REMARK   10  A    between atoms: O_29  and  C_30
REMARK   11  A    between atoms: O_31  and  C_32
REMARK                            x       y       z     vdW  Elec       q    Type
REMARK                         _______ _______ _______ _____ _____    ______ ____
ROOT
ATOM      1  C   UNL     1      -3.208   4.219   0.803  0.00  0.00    -0.005 C 
ATOM      2  C   UNL     1      -3.135   2.841   1.464  0.00  0.00    -0.004 C 
ENDROOT
BRANCH   2   3
ATOM      3  C   UNL     1      -3.573   2.949   2.901  0.00  0.00    +0.097 A 
ATOM      4  N   UNL     1      -4.785   3.487   3.191  0.00  0.00    -0.312 N 
ATOM      5  H   UNL     1      -5.354   3.794   2.468  0.00  0.00    +0.170 HD
ATOM      6  C   UNL     1      -5.214   3.601   4.462  0.00  0.00    +0.260 A 
ATOM      7  O   UNL     1      -6.306   4.085   4.705  0.00  0.00    -0.267 OA
ATOM      8  C   UNL     1      -4.368   3.144   5.523  0.00  0.00    +0.080 A 
ATOM      9  C   UNL     1      -4.604   3.158   6.962  0.00  0.00    +0.004 A 
ATOM     10  C   UNL     1      -3.646   2.665   7.784  0.00  0.00    +0.056 A 
ATOM     11  S   UNL     1      -2.363   2.150   6.660  0.00  0.00    -0.076 S 
ATOM     12  C   UNL     1      -3.134   2.603   5.127  0.00  0.00    +0.116 A 
ATOM     13  N   UNL     1      -2.781   2.518   3.847  0.00  0.00    -0.228 NA
BRANCH   9  14
ATOM     14  C   UNL     1      -5.867   3.703   7.515  0.00  0.00    -0.017 A 
ATOM     15  C   UNL     1      -6.321   4.959   7.117  0.00  0.00    +0.008 A 
ATOM     16  C   UNL     1      -7.500   5.458   7.631  0.00  0.00    +0.001 A 
ATOM     17  C   UNL     1      -8.226   4.719   8.548  0.00  0.00    +0.000 A 
ATOM     18  C   UNL     1      -7.778   3.474   8.950  0.00  0.00    +0.001 A 
ATOM     19  C   UNL     1      -6.603   2.962   8.439  0.00  0.00    +0.008 A 
ENDBRANCH   9  14
ENDBRANCH   2   3
BRANCH   2  21
ATOM     20  C   UNL     1      -0.835   3.264   2.091  0.00  0.00    -0.095 C 
ATOM     21  N   UNL     1      -1.753   2.318   1.422  0.00  0.00    +0.387 N 
ATOM     22  H   UNL     1      -1.722   1.418   1.915  0.00  0.00    -0.081 HD
BRANCH  21  23
ATOM     23  C   UNL     1      -1.333   2.112   0.020  0.00  0.00    -0.042 C 
BRANCH  23  24
ATOM     24  C   UNL     1      -0.017   1.378   0.010  0.00  0.00    -0.060 A 
ATOM     25  C   UNL     1       1.169   2.089   0.002  0.00  0.00    +0.005 A 
ATOM     26  C   UNL     1       2.379   1.420  -0.013  0.00  0.00    +0.050 A 
ATOM     27  C   UNL     1       2.405   0.035  -0.021  0.00  0.00    +0.168 A 
ATOM     28  C   UNL     1       1.211  -0.680  -0.013  0.00  0.00    +0.162 A 
ATOM     29  C   UNL     1       0.002  -0.004   0.002  0.00  0.00    +0.051 A 
BRANCH  28  30
ATOM     30  O   UNL     1       1.232  -2.040  -0.020  0.00  0.00    -0.491 OA
ATOM     31  C   UNL     1      -0.032  -2.708  -0.011  0.00  0.00    +0.277 C 
ENDBRANCH  28  30
BRANCH  27  32
ATOM     32  O   UNL     1       3.594  -0.625  -0.036  0.00  0.00    -0.431 OA
BRANCH  32  33
ATOM     33  C   UNL     1       4.779   0.174  -0.043  0.00  0.00    +0.541 C 
ATOM     34  F   UNL     1       4.786   0.989  -1.181  0.00  0.00    -0.166 F 
ATOM     35  F   UNL     1       4.808   0.976   1.103  0.00  0.00    -0.166 F 
ENDBRANCH  32  33
ENDBRANCH  27  32
ENDBRANCH  23  24
ENDBRANCH  21  23
ENDBRANCH   2  21
TORSDOF 8
