REMARK  Name = ZINC64735052
REMARK  9 active torsions:
REMARK  status: ('A' for Active; 'I' for Inactive)
REMARK    1  A    between atoms: C_1  and  N_2
REMARK    2  A    between atoms: N_2  and  C_3
REMARK    3  A    between atoms: N_2  and  S_4
REMARK    4  A    between atoms: S_4  and  C_7
REMARK    5  A    between atoms: C_10  and  N_27
REMARK    6  A    between atoms: C_11  and  C_13
REMARK    7  A    between atoms: N_15  and  C_16
REMARK    8  A    between atoms: C_16  and  C_17
REMARK    9  A    between atoms: C_17  and  C_18
REMARK                            x       y       z     vdW  Elec       q    Type
REMARK                         _______ _______ _______ _____ _____    ______ ____
ROOT
ATOM      1  C   UNL     1      -1.884  -1.109  -1.669  0.00  0.00    +0.106 A 
ATOM      2  C   UNL     1      -2.676  -0.174  -2.317  0.00  0.00    +0.030 A 
ATOM      3  C   UNL     1      -3.047  -0.363  -3.632  0.00  0.00    +0.026 A 
ATOM      4  C   UNL     1      -2.627  -1.497  -4.317  0.00  0.00    +0.042 A 
ATOM      5  C   UNL     1      -1.825  -2.445  -3.665  0.00  0.00    +0.060 A 
ATOM      6  C   UNL     1      -1.453  -2.236  -2.334  0.00  0.00    +0.043 A 
ENDROOT
BRANCH   4   7
ATOM      7  N   UNL     1      -2.999  -1.690  -5.641  0.00  0.00    -0.329 N 
ATOM      8  C   UNL     1      -4.212  -2.385  -6.097  0.00  0.00    +0.105 C 
ATOM      9  C   UNL     1      -4.192  -2.378  -7.640  0.00  0.00    +0.020 C 
ATOM     10  C   UNL     1      -2.688  -2.177  -7.967  0.00  0.00    +0.020 C 
ATOM     11  C   UNL     1      -2.248  -1.227  -6.822  0.00  0.00    +0.105 C 
ENDBRANCH   4   7
BRANCH   5  12
ATOM     12  C   UNL     1      -1.372  -3.652  -4.380  0.00  0.00    +0.246 C 
ATOM     13  O   UNL     1      -1.694  -3.829  -5.539  0.00  0.00    -0.270 OA
ATOM     14  N   UNL     1      -0.601  -4.561  -3.749  0.00  0.00    -0.311 N 
ATOM     15  H   UNL     1      -0.345  -4.420  -2.824  0.00  0.00    +0.149 HD
BRANCH  14  16
ATOM     16  C   UNL     1      -0.152  -5.760  -4.460  0.00  0.00    +0.109 C 
BRANCH  16  17
ATOM     17  C   UNL     1       0.701  -6.618  -3.523  0.00  0.00    +0.052 C 
BRANCH  17  18
ATOM     18  C   UNL     1       1.164  -7.852  -4.254  0.00  0.00    -0.040 C 
ATOM     19  C   UNL     1       2.345  -8.025  -4.892  0.00  0.00    -0.001 A 
ATOM     20  C   UNL     1       3.506  -7.149  -5.088  0.00  0.00    +0.010 A 
ATOM     21  C   UNL     1       4.566  -7.613  -5.789  0.00  0.00    +0.001 A 
ATOM     22  C   UNL     1       4.583  -8.905  -6.330  0.00  0.00    +0.002 A 
ATOM     23  C   UNL     1       3.554  -9.768  -6.192  0.00  0.00    +0.026 A 
ATOM     24  C   UNL     1       2.388  -9.385  -5.473  0.00  0.00    +0.043 A 
ATOM     25  N   UNL     1       1.277 -10.028  -5.206  0.00  0.00    -0.380 N 
ATOM     26  C   UNL     1       0.405  -9.150  -4.419  0.00  0.00    +0.144 C 
ATOM     27  H   UNL     1       1.068 -10.935  -5.480  0.00  0.00    +0.160 HD
ENDBRANCH  17  18
ENDBRANCH  16  17
ENDBRANCH  14  16
ENDBRANCH   5  12
BRANCH   1  28
ATOM     28  S   UNL     1      -1.421  -0.852   0.011  0.00  0.00    +0.060 S 
ATOM     29  O   UNL     1      -1.127  -2.132   0.552  0.00  0.00    -0.153 OA
ATOM     30  O   UNL     1      -2.401   0.008   0.576  0.00  0.00    -0.153 OA
BRANCH  28  32
ATOM     31  C   UNL     1      -0.018   1.461   0.010  0.00  0.00    +0.131 C 
ATOM     32  N   UNL     1       0.002  -0.004   0.002  0.00  0.00    -0.183 NA
ATOM     33  C   UNL     1       1.281  -0.719  -0.014  0.00  0.00    +0.131 C 
ENDBRANCH  28  32
ENDBRANCH   1  28
TORSDOF 7
