REMARK  Name = ZINC12818616
REMARK  11 active torsions:
REMARK  status: ('A' for Active; 'I' for Inactive)
REMARK    1  A    between atoms: C_1  and  C_2
REMARK    2  A    between atoms: C_2  and  N_59
REMARK    3  A    between atoms: C_3  and  C_4
REMARK    4  A    between atoms: C_3  and  N_59
REMARK    5  A    between atoms: N_6  and  C_7
REMARK    6  A    between atoms: C_10  and  N_13
REMARK    7  A    between atoms: C_14  and  C_16
REMARK    8  A    between atoms: C_17  and  C_19
REMARK    9  A    between atoms: C_17  and  C_20
REMARK   10  A    between atoms: C_17  and  N_59
REMARK   11  A    between atoms: C_26  and  C_31
REMARK                            x       y       z     vdW  Elec       q    Type
REMARK                         _______ _______ _______ _____ _____    ______ ____
ROOT
ATOM      1  N   UNL     1      -5.082   7.294   1.303  0.00  0.00    +0.392 N 
ATOM      2  H   UNL     1      -4.401   7.638   1.990  0.00  0.00    -0.080 HD
ENDROOT
BRANCH   1   4
ATOM      3  C   UNL     1      -4.026   8.986  -0.112  0.00  0.00    -0.017 C 
ATOM      4  C   UNL     1      -4.565   7.555  -0.057  0.00  0.00    -0.081 C 
ENDBRANCH   1   4
BRANCH   1   5
ATOM      5  C   UNL     1      -6.364   8.002   1.500  0.00  0.00    -0.003 C 
ATOM      6  C   UNL     1      -7.485   7.307   0.726  0.00  0.00    -0.005 C 
BRANCH   5   7
ATOM      7  C   UNL     1      -6.695   8.004   2.970  0.00  0.00    +0.097 A 
ATOM      8  N   UNL     1      -7.878   8.524   3.387  0.00  0.00    -0.312 N 
ATOM      9  H   UNL     1      -8.495   8.887   2.733  0.00  0.00    +0.170 HD
ATOM     10  C   UNL     1      -8.214   8.540   4.691  0.00  0.00    +0.260 A 
ATOM     11  O   UNL     1      -9.282   9.007   5.048  0.00  0.00    -0.267 OA
ATOM     12  C   UNL     1      -7.296   8.008   5.650  0.00  0.00    +0.080 A 
ATOM     13  C   UNL     1      -7.425   7.918   7.100  0.00  0.00    +0.010 A 
ATOM     14  C   UNL     1      -6.411   7.366   7.812  0.00  0.00    +0.057 A 
ATOM     15  S   UNL     1      -5.217   6.934   6.561  0.00  0.00    -0.076 S 
ATOM     16  C   UNL     1      -6.096   7.497   5.127  0.00  0.00    +0.116 A 
ATOM     17  N   UNL     1      -5.836   7.511   3.822  0.00  0.00    -0.228 NA
BRANCH  13  18
ATOM     18  C   UNL     1      -8.638   8.418   7.781  0.00  0.00    +0.021 A 
ATOM     19  C   UNL     1      -9.433   7.788   8.701  0.00  0.00    +0.016 A 
ATOM     20  C   UNL     1     -10.524   8.463   9.206  0.00  0.00    +0.008 A 
ATOM     21  C   UNL     1     -10.783   9.721   8.771  0.00  0.00    +0.046 A 
ATOM     22  S   UNL     1      -9.453   9.997   7.611  0.00  0.00    -0.097 S 
ENDBRANCH  13  18
ENDBRANCH   5   7
ENDBRANCH   1   5
BRANCH   1  23
ATOM     23  C   UNL     1      -5.272   5.841   1.501  0.00  0.00    +0.020 C 
BRANCH  23  24
ATOM     24  C   UNL     1      -3.922   5.172   1.513  0.00  0.00    +0.201 C 
ATOM     25  O   UNL     1      -2.916   5.831   1.356  0.00  0.00    -0.278 OA
ATOM     26  N   UNL     1      -3.832   3.840   1.698  0.00  0.00    -0.287 N 
ATOM     27  H   UNL     1      -4.629   3.322   1.891  0.00  0.00    +0.155 HD
BRANCH  26  28
ATOM     28  C   UNL     1      -2.587   3.203   1.611  0.00  0.00    +0.033 A 
ATOM     29  C   UNL     1      -2.498   1.923   1.079  0.00  0.00    +0.025 A 
ATOM     30  C   UNL     1      -1.271   1.296   0.993  0.00  0.00    +0.025 A 
ATOM     31  C   UNL     1      -0.127   1.945   1.439  0.00  0.00    +0.033 A 
ATOM     32  C   UNL     1      -0.217   3.222   1.977  0.00  0.00    +0.025 A 
ATOM     33  C   UNL     1      -1.443   3.852   2.057  0.00  0.00    +0.025 A 
BRANCH  31  34
ATOM     34  N   UNL     1       1.118   1.308   1.352  0.00  0.00    -0.286 N 
ATOM     35  C   UNL     1       1.390   0.500   0.308  0.00  0.00    +0.214 C 
ATOM     36  O   UNL     1       0.530   0.260  -0.513  0.00  0.00    -0.276 OA
ATOM     37  C   UNL     1       2.762  -0.106   0.162  0.00  0.00    +0.109 C 
ATOM     38  H   UNL     1       1.783   1.446   2.045  0.00  0.00    +0.155 HD
ENDBRANCH  31  34
ENDBRANCH  26  28
ENDBRANCH  23  24
ENDBRANCH   1  23
TORSDOF 8
