REMARK  Name = ZINC18206575
REMARK  10 active torsions:
REMARK  status: ('A' for Active; 'I' for Inactive)
REMARK    1  A    between atoms: C_4  and  C_7
REMARK    2  A    between atoms: N_9  and  N_10
REMARK    3  A    between atoms: C_11  and  C_12
REMARK    4  A    between atoms: C_12  and  C_23
REMARK    5  A    between atoms: N_13  and  N_14
REMARK    6  A    between atoms: C_15  and  C_17
REMARK    7  A    between atoms: C_23  and  C_24
REMARK    8  A    between atoms: C_24  and  C_26
REMARK    9  A    between atoms: C_24  and  O_28
REMARK   10  A    between atoms: C_26  and  O_27
REMARK                            x       y       z     vdW  Elec       q    Type
REMARK                         _______ _______ _______ _____ _____    ______ ____
ROOT
ATOM      1  C   UNL     1      -1.465   2.020   0.056  0.00  0.00    +0.081 C 
ATOM      2  N   UNL     1      -2.617   1.416  -0.010  0.00  0.00    -0.183 NA
ENDROOT
BRANCH   2   3
ATOM      3  N   UNL     1      -3.790   2.162  -0.183  0.00  0.00    -0.203 N 
ATOM      4  C   UNL     1      -4.972   1.533  -0.334  0.00  0.00    +0.263 C 
ATOM      5  O   UNL     1      -5.021   0.318  -0.320  0.00  0.00    -0.268 OA
ATOM      6  H   UNL     1      -3.751   3.131  -0.195  0.00  0.00    +0.178 HD
BRANCH   4   7
ATOM      7  C   UNL     1      -6.210   2.320  -0.517  0.00  0.00    +0.038 A 
ATOM      8  C   UNL     1      -6.158   3.715  -0.528  0.00  0.00    +0.013 A 
ATOM      9  C   UNL     1      -7.316   4.443  -0.706  0.00  0.00    +0.001 A 
ATOM     10  C   UNL     1      -8.529   3.795  -0.860  0.00  0.00    +0.000 A 
ATOM     11  C   UNL     1      -8.587   2.412  -0.844  0.00  0.00    +0.001 A 
ATOM     12  C   UNL     1      -7.436   1.672  -0.673  0.00  0.00    +0.013 A 
ENDBRANCH   4   7
ENDBRANCH   2   3
BRANCH   1  14
ATOM     13  N   UNL     1      -0.286  -0.064   0.128  0.00  0.00    -0.186 NA
ATOM     14  C   UNL     1      -0.232   1.238   0.129  0.00  0.00    +0.155 C 
BRANCH  13  17
ATOM     15  C   UNL     1       0.840  -2.160   0.192  0.00  0.00    +0.263 C 
ATOM     16  O   UNL     1      -0.236  -2.724   0.135  0.00  0.00    -0.268 OA
ATOM     17  N   UNL     1       0.895  -0.814   0.192  0.00  0.00    -0.203 N 
ATOM     18  H   UNL     1       1.754  -0.364   0.237  0.00  0.00    +0.178 HD
BRANCH  15  22
ATOM     19  C   UNL     1       4.421  -4.434   0.386  0.00  0.00    +0.000 A 
ATOM     20  C   UNL     1       3.199  -5.079   0.322  0.00  0.00    +0.001 A 
ATOM     21  C   UNL     1       2.032  -4.346   0.259  0.00  0.00    +0.013 A 
ATOM     22  C   UNL     1       2.086  -2.951   0.259  0.00  0.00    +0.038 A 
ATOM     23  C   UNL     1       3.323  -2.307   0.318  0.00  0.00    +0.013 A 
ATOM     24  C   UNL     1       4.482  -3.052   0.387  0.00  0.00    +0.001 A 
ENDBRANCH  15  22
ENDBRANCH  13  17
ENDBRANCH   1  14
BRANCH   1  25
ATOM     25  C   UNL     1      -1.403   3.526   0.056  0.00  0.00    +0.092 C 
BRANCH  25  26
ATOM     26  C   UNL     1      -1.436   4.038  -1.385  0.00  0.00    +0.146 C 
BRANCH  26  27
ATOM     27  O   UNL     1      -0.255   3.615  -2.069  0.00  0.00    -0.389 OA
ATOM     28  H   UNL     1       0.566   3.936  -1.671  0.00  0.00    +0.210 HD
ENDBRANCH  26  27
BRANCH  26  29
ATOM     29  C   UNL     1      -1.504   5.567  -1.381  0.00  0.00    +0.187 C 
BRANCH  29  30
ATOM     30  O   UNL     1      -1.652   6.040  -2.722  0.00  0.00    -0.392 OA
ATOM     31  H   UNL     1      -1.702   7.003  -2.795  0.00  0.00    +0.210 HD
ENDBRANCH  29  30
ENDBRANCH  26  29
ENDBRANCH  25  26
ENDBRANCH   1  25
TORSDOF 10
