REMARK  Name = ZINC59170729
REMARK  7 active torsions:
REMARK  status: ('A' for Active; 'I' for Inactive)
REMARK    1  A    between atoms: C_1  and  O_2
REMARK    2  A    between atoms: O_2  and  C_3
REMARK    3  A    between atoms: C_8  and  N_9
REMARK    4  A    between atoms: C_10  and  C_12
REMARK    5  A    between atoms: N_26  and  C_27
REMARK    6  A    between atoms: C_30  and  S_33
REMARK    7  A    between atoms: S_33  and  N_36
REMARK                            x       y       z     vdW  Elec       q    Type
REMARK                         _______ _______ _______ _____ _____    ______ ____
ROOT
ATOM      1  C   UNL     1      -0.218  -4.888  -1.050  0.00  0.00    +0.098 A 
ATOM      2  C   UNL     1      -0.180  -6.278  -1.000  0.00  0.00    +0.030 A 
ATOM      3  C   UNL     1      -0.722  -6.998  -2.086  0.00  0.00    +0.026 A 
ATOM      4  C   UNL     1      -0.914  -8.447  -2.003  0.00  0.00    -0.007 A 
ATOM      5  C   UNL     1      -0.551  -9.171  -0.864  0.00  0.00    +0.009 A 
ATOM      6  C   UNL     1      -0.749 -10.521  -0.830  0.00  0.00    +0.001 A 
ATOM      7  C   UNL     1      -1.305 -11.188  -1.917  0.00  0.00    +0.001 A 
ATOM      8  C   UNL     1      -1.670 -10.511  -3.043  0.00  0.00    +0.008 A 
ATOM      9  C   UNL     1      -1.481  -9.122  -3.111  0.00  0.00    -0.017 A 
ATOM     10  C   UNL     1      -1.846  -8.390  -4.257  0.00  0.00    +0.012 A 
ATOM     11  C   UNL     1      -1.654  -7.048  -4.323  0.00  0.00    +0.047 A 
ATOM     12  C   UNL     1      -1.092  -6.333  -3.263  0.00  0.00    +0.138 A 
ATOM     13  O   UNL     1      -0.880  -4.999  -3.380  0.00  0.00    -0.439 OA
ATOM     14  C   UNL     1      -0.863  -4.276  -2.228  0.00  0.00    +0.212 A 
ATOM     15  N   UNL     1      -1.397  -3.074  -2.166  0.00  0.00    -0.325 N 
ATOM     16  H   UNL     1      -1.476  -2.623  -1.311  0.00  0.00    +0.169 HD
ENDROOT
BRANCH  15  17
ATOM     17  C   UNL     1      -1.839  -2.462  -3.306  0.00  0.00    +0.042 A 
ATOM     18  C   UNL     1      -1.056  -2.485  -4.463  0.00  0.00    +0.027 A 
ATOM     19  C   UNL     1      -1.508  -1.865  -5.609  0.00  0.00    +0.030 A 
ATOM     20  C   UNL     1      -2.734  -1.223  -5.615  0.00  0.00    +0.105 A 
ATOM     21  C   UNL     1      -3.514  -1.197  -4.473  0.00  0.00    +0.030 A 
ATOM     22  C   UNL     1      -3.078  -1.817  -3.321  0.00  0.00    +0.027 A 
BRANCH  20  23
ATOM     23  S   UNL     1      -3.303  -0.434  -7.084  0.00  0.00    +0.056 S 
ATOM     24  O   UNL     1      -4.231   0.562  -6.677  0.00  0.00    -0.153 OA
ATOM     25  O   UNL     1      -2.149  -0.131  -7.856  0.00  0.00    -0.153 OA
BRANCH  23  26
ATOM     26  N   UNL     1      -4.163  -1.559  -7.942  0.00  0.00    -0.204 NA
ATOM     27  H   UNL     1      -4.266  -2.459  -7.595  0.00  0.00    +0.144 HD
ATOM     28  H   UNL     1      -4.564  -1.318  -8.792  0.00  0.00    +0.144 HD
ENDBRANCH  23  26
ENDBRANCH  20  23
ENDBRANCH  15  17
BRANCH   1  30
ATOM     29  N   UNL     1       0.404  -2.724  -0.104  0.00  0.00    -0.278 N 
ATOM     30  C   UNL     1       0.354  -4.065   0.026  0.00  0.00    +0.253 C 
ATOM     31  O   UNL     1       0.782  -4.594   1.035  0.00  0.00    -0.270 OA
ATOM     32  H   UNL     1       0.021  -2.299  -0.887  0.00  0.00    +0.155 HD
BRANCH  29  38
ATOM     33  C   UNL     1       1.462  -0.662   0.594  0.00  0.00    +0.141 A 
ATOM     34  C   UNL     1       2.054   0.105   1.583  0.00  0.00    +0.047 A 
ATOM     35  C   UNL     1       2.201  -0.405   2.860  0.00  0.00    +0.004 A 
ATOM     36  C   UNL     1       1.756  -1.681   3.153  0.00  0.00    +0.002 A 
ATOM     37  C   UNL     1       1.163  -2.453   2.172  0.00  0.00    +0.027 A 
ATOM     38  C   UNL     1       1.009  -1.946   0.890  0.00  0.00    +0.076 A 
BRANCH  33  40
ATOM     39  C   UNL     1       1.805   1.161  -0.894  0.00  0.00    +0.277 C 
ATOM     40  O   UNL     1       1.317  -0.162  -0.662  0.00  0.00    -0.493 OA
ENDBRANCH  33  40
ENDBRANCH  29  38
ENDBRANCH   1  30
TORSDOF 6
