REMARK  Name = ZINC61743012
REMARK  3 active torsions:
REMARK  status: ('A' for Active; 'I' for Inactive)
REMARK    1  A    between atoms: C_6  and  C_7
REMARK    2  A    between atoms: N_9  and  N_10
REMARK    3  A    between atoms: N_13  and  C_14
REMARK                            x       y       z     vdW  Elec       q    Type
REMARK                         _______ _______ _______ _____ _____    ______ ____
ROOT
ATOM      1  N   UNL     1      -2.124  -3.068   0.006  0.00  0.00    -0.218 N 
ATOM      2  C   UNL     1      -1.959  -4.405  -0.003  0.00  0.00    +0.316 C 
ATOM      3  O   UNL     1      -2.930  -5.137   0.002  0.00  0.00    -0.251 OA
ATOM      4  N   UNL     1      -0.719  -4.932  -0.018  0.00  0.00    -0.293 N 
ATOM      5  H   UNL     1      -3.017  -2.689   0.016  0.00  0.00    +0.174 HD
ATOM      6  H   UNL     1       0.056  -4.348  -0.022  0.00  0.00    +0.151 HD
ENDROOT
BRANCH   4   7
ATOM      7  C   UNL     1      -0.540  -6.386  -0.027  0.00  0.00    +0.037 C 
ATOM      8  C   UNL     1      -1.182  -6.987   1.225  0.00  0.00    +0.029 C 
ATOM      9  C   UNL     1      -0.996  -8.505   1.215  0.00  0.00    -0.008 C 
ATOM     10  C   UNL     1       0.498  -8.836   1.199  0.00  0.00    +0.007 C 
ATOM     11  C   UNL     1       1.140  -8.235  -0.053  0.00  0.00    -0.008 C 
ATOM     12  C   UNL     1       0.954  -6.716  -0.043  0.00  0.00    +0.029 C 
ATOM     13  C   UNL     1       0.474  -8.822  -1.299  0.00  0.00    +0.007 C 
ATOM     14  C   UNL     1      -1.019  -8.492  -1.283  0.00  0.00    -0.008 C 
ATOM     15  C   UNL     1      -1.661  -9.093  -0.031  0.00  0.00    +0.007 C 
ATOM     16  C   UNL     1      -1.206  -6.973  -1.273  0.00  0.00    +0.029 C 
ENDBRANCH   4   7
BRANCH   1  19
ATOM     17  C   UNL     1      -1.169  -0.887   0.009  0.00  0.00    +0.276 C 
ATOM     18  O   UNL     1      -2.289  -0.411   0.022  0.00  0.00    -0.267 OA
ATOM     19  N   UNL     1      -1.005  -2.224  -0.000  0.00  0.00    -0.228 N 
ATOM     20  H   UNL     1      -0.112  -2.603  -0.011  0.00  0.00    +0.173 HD
BRANCH  17  26
ATOM     21  C   UNL     1      -0.017   1.375   0.010  0.00  0.00    +0.047 A 
ATOM     22  C   UNL     1       1.315   1.804  -0.001  0.00  0.00    +0.036 A 
ATOM     23  C   UNL     1       2.106   0.704  -0.014  0.00  0.00    +0.098 A 
ATOM     24  N   UNL     1       1.320  -0.401  -0.013  0.00  0.00    -0.356 N 
ATOM     25  H   UNL     1       1.634  -1.319  -0.020  0.00  0.00    +0.166 HD
ATOM     26  C   UNL     1       0.002  -0.004   0.002  0.00  0.00    +0.104 A 
ATOM     27 BR   UNL     1       1.905   3.600   0.003  0.00  0.00    -0.049 Br
ENDBRANCH  17  26
ENDBRANCH   1  19
TORSDOF 3
