REMARK  Name = ZINC48604097
REMARK  9 active torsions:
REMARK  status: ('A' for Active; 'I' for Inactive)
REMARK    1  A    between atoms: C_1  and  C_2
REMARK    2  A    between atoms: C_2  and  CA_3
REMARK    3  A    between atoms: CA_3  and  C_5
REMARK    4  A    between atoms: CA_3  and  N_7
REMARK    5  A    between atoms: C_5  and  O_6
REMARK    6  A    between atoms: C_8  and  C_10
REMARK    7  A    between atoms: N_12  and  C_13
REMARK    8  A    between atoms: C_16  and  S_19
REMARK    9  A    between atoms: S_19  and  N_22
REMARK                            x       y       z     vdW  Elec       q    Type
REMARK                         _______ _______ _______ _____ _____    ______ ____
ROOT
ATOM      1  C   UNL     1       6.318   0.910  -3.344  0.00  0.00    +0.034 A 
ATOM      2  C   UNL     1       6.909   1.038  -2.093  0.00  0.00    +0.025 A 
ATOM      3  C   UNL     1       8.253   1.337  -1.994  0.00  0.00    +0.030 A 
ATOM      4  C   UNL     1       9.011   1.509  -3.137  0.00  0.00    +0.106 A 
ATOM      5  C   UNL     1       8.426   1.383  -4.384  0.00  0.00    +0.030 A 
ATOM      6  C   UNL     1       7.083   1.078  -4.491  0.00  0.00    +0.025 A 
ENDROOT
BRANCH   1   9
ATOM      7  C   UNL     1       4.517  -0.179  -4.449  0.00  0.00    +0.303 C 
ATOM      8  O   UNL     1       5.287  -0.557  -5.308  0.00  0.00    -0.265 OA
ATOM      9  N   UNL     1       4.957   0.609  -3.448  0.00  0.00    -0.278 N 
ATOM     10  H   UNL     1       4.330   0.965  -2.799  0.00  0.00    +0.155 HD
BRANCH   7  12
ATOM     11  N   UNL     1       2.640  -1.373  -5.503  0.00  0.00    -0.303 N 
ATOM     12  C   UNL     1       3.081  -0.586  -4.502  0.00  0.00    +0.300 C 
ATOM     13  O   UNL     1       2.311  -0.208  -3.643  0.00  0.00    -0.265 OA
ATOM     14  H   UNL     1       3.255  -1.675  -6.189  0.00  0.00    +0.150 HD
BRANCH  11  15
ATOM     15  CA  UNL     1       1.231  -1.773  -5.555  0.00  0.00    +0.098 C 
BRANCH  15  17
ATOM     16  C   UNL     1       1.812  -4.203  -5.573  0.00  0.00    +0.006 C 
ATOM     17  C   UNL     1       1.101  -3.082  -6.335  0.00  0.00    +0.021 C 
ENDBRANCH  15  17
BRANCH  15  18
ATOM     18  C   UNL     1       0.417  -0.681  -6.252  0.00  0.00    +0.178 C 
BRANCH  18  19
ATOM     19  O   UNL     1       0.830  -0.575  -7.615  0.00  0.00    -0.393 OA
ATOM     20  H   UNL     1       0.355   0.100  -8.119  0.00  0.00    +0.209 HD
ENDBRANCH  18  19
ENDBRANCH  15  18
ENDBRANCH  11  15
ENDBRANCH   7  12
ENDBRANCH   1   9
BRANCH   4  21
ATOM     21  S   UNL     1      10.727   1.890  -3.006  0.00  0.00    +0.061 S 
ATOM     22  O   UNL     1      11.092   2.539  -4.216  0.00  0.00    -0.153 OA
ATOM     23  O   UNL     1      10.913   2.492  -1.732  0.00  0.00    -0.153 OA
BRANCH  21  24
ATOM     24  N   UNL     1      11.547   0.451  -2.974  0.00  0.00    -0.177 NA
ATOM     25  C   UNL     1      11.821  -0.226  -1.699  0.00  0.00    +0.109 C 
ATOM     26  C   UNL     1      11.302  -1.665  -1.784  0.00  0.00    +0.017 C 
ATOM     27  C   UNL     1      11.916  -2.353  -3.006  0.00  0.00    +0.003 C 
ATOM     28  C   UNL     1      11.493  -1.612  -4.276  0.00  0.00    +0.017 C 
ATOM     29  C   UNL     1      12.008  -0.175  -4.220  0.00  0.00    +0.109 C 
ENDBRANCH  21  24
ENDBRANCH   4  21
TORSDOF 8
