REMARK  Name = ZINC02725072
REMARK  8 active torsions:
REMARK  status: ('A' for Active; 'I' for Inactive)
REMARK    1  A    between atoms: C_1  and  C_2
REMARK    2  A    between atoms: C_7  and  N_8
REMARK    3  A    between atoms: C_9  and  N_17
REMARK    4  A    between atoms: C_18  and  C_20
REMARK    5  A    between atoms: C_24  and  O_28
REMARK    6  A    between atoms: C_25  and  O_26
REMARK    7  A    between atoms: O_26  and  C_27
REMARK    8  A    between atoms: O_28  and  C_29
REMARK                            x       y       z     vdW  Elec       q    Type
REMARK                         _______ _______ _______ _____ _____    ______ ____
ROOT
ATOM      1  N   UNL     1       0.437   0.154   2.323  0.00  0.00    -0.218 N 
ATOM      2  C   UNL     1       0.411  -0.363   3.577  0.00  0.00    +0.133 A 
ATOM      3  C   UNL     1       0.167   0.673   4.449  0.00  0.00    +0.029 A 
ATOM      4  C   UNL     1       0.044   1.834   3.704  0.00  0.00    +0.082 A 
ATOM      5  N   UNL     1       0.210   1.528   2.425  0.00  0.00    -0.168 NA
ATOM      6  C   UNL     1      -0.232   3.122   4.479  0.00  0.00    +0.161 C 
ATOM      7  S   UNL     1      -0.760   2.470   6.116  0.00  0.00    +0.033 S 
ATOM      8  O   UNL     1      -0.111   3.201   7.148  0.00  0.00    -0.257 OA
ATOM      9  C   UNL     1       0.012   0.808   5.963  0.00  0.00    +0.144 C 
ENDROOT
BRANCH   1  16
ATOM     10  C   UNL     1      -1.320   0.609   0.131  0.00  0.00    +0.046 C 
ATOM     11  C   UNL     1      -0.177  -0.369   0.045  0.00  0.00    -0.025 A 
ATOM     12  C   UNL     1       0.046  -1.072  -1.123  0.00  0.00    +0.005 A 
ATOM     13  C   UNL     1       1.095  -1.969  -1.203  0.00  0.00    +0.000 A 
ATOM     14  C   UNL     1       1.923  -2.167  -0.113  0.00  0.00    +0.002 A 
ATOM     15  C   UNL     1       1.706  -1.467   1.057  0.00  0.00    +0.028 A 
ATOM     16  C   UNL     1       0.657  -0.561   1.138  0.00  0.00    +0.070 A 
ENDBRANCH   1  16
BRANCH   2  17
ATOM     17  N   UNL     1       0.597  -1.701   3.919  0.00  0.00    -0.266 N 
ATOM     18  C   UNL     1       1.082  -2.024   5.135  0.00  0.00    +0.253 C 
ATOM     19  O   UNL     1       1.460  -1.150   5.891  0.00  0.00    -0.270 OA
ATOM     20  H   UNL     1       0.378  -2.399   3.283  0.00  0.00    +0.157 HD
BRANCH  18  21
ATOM     21  C   UNL     1       1.154  -3.438   5.548  0.00  0.00    +0.082 A 
ATOM     22  C   UNL     1       0.828  -4.452   4.642  0.00  0.00    +0.017 A 
ATOM     23  C   UNL     1       0.897  -5.772   5.031  0.00  0.00    +0.005 A 
ATOM     24  C   UNL     1       1.288  -6.102   6.319  0.00  0.00    +0.049 A 
ATOM     25  C   UNL     1       1.614  -5.109   7.227  0.00  0.00    +0.162 A 
ATOM     26  C   UNL     1       1.554  -3.772   6.847  0.00  0.00    +0.174 A 
BRANCH  26  27
ATOM     27  O   UNL     1       1.878  -2.796   7.733  0.00  0.00    -0.491 OA
ATOM     28  C   UNL     1       0.851  -2.366   8.629  0.00  0.00    +0.277 C 
ENDBRANCH  26  27
BRANCH  25  29
ATOM     29  O   UNL     1       1.996  -5.442   8.489  0.00  0.00    -0.491 OA
ATOM     30  C   UNL     1       2.040  -6.834   8.809  0.00  0.00    +0.277 C 
ENDBRANCH  25  29
ENDBRANCH  18  21
ENDBRANCH   2  17
TORSDOF 5
