REMARK  Name = ZINC13547896
REMARK  14 active torsions:
REMARK  status: ('A' for Active; 'I' for Inactive)
REMARK    1  A    between atoms: C_1  and  C_2
REMARK    2  A    between atoms: C_2  and  C_3
REMARK    3  A    between atoms: C_2  and  C_4
REMARK    4  A    between atoms: C_2  and  C_5
REMARK    5  A    between atoms: C_7  and  C_16
REMARK    6  A    between atoms: C_9  and  C_12
REMARK    7  A    between atoms: C_10  and  O_11
REMARK    8  A    between atoms: C_12  and  C_13
REMARK    9  A    between atoms: C_12  and  C_14
REMARK   10  A    between atoms: C_12  and  C_15
REMARK   11  A    between atoms: N_20  and  C_24
REMARK   12  A    between atoms: C_24  and  C_25
REMARK   13  A    between atoms: C_25  and  C_26
REMARK   14  A    between atoms: C_26  and  C_27
REMARK                            x       y       z     vdW  Elec       q    Type
REMARK                         _______ _______ _______ _____ _____    ______ ____
ROOT
ATOM      1  C   UNL     1       3.702   1.103  -0.482  0.00  0.00    +0.000 A 
ATOM      2  C   UNL     1       2.431   0.662  -0.190  0.00  0.00    +0.015 A 
ATOM      3  C   UNL     1       1.346   1.540  -0.302  0.00  0.00    -0.023 A 
ATOM      4  C   UNL     1       1.560   2.860  -0.717  0.00  0.00    +0.015 A 
ATOM      5  C   UNL     1       2.836   3.292  -1.002  0.00  0.00    +0.000 A 
ATOM      6  C   UNL     1       3.909   2.416  -0.889  0.00  0.00    +0.124 A 
ENDROOT
BRANCH   3   7
ATOM      7  C   UNL     1      -0.013   1.076   0.008  0.00  0.00    +0.028 C 
ATOM      8  C   UNL     1      -1.036   1.966   0.072  0.00  0.00    +0.077 C 
ATOM      9  C   UNL     1      -2.488   1.723   0.182  0.00  0.00    +0.258 C 
ATOM     10  O   UNL     1      -2.947   0.597   0.229  0.00  0.00    -0.269 OA
ATOM     11  N   UNL     1      -3.265   2.792   0.226  0.00  0.00    -0.255 N 
ATOM     12  C   UNL     1      -2.753   4.039   0.173  0.00  0.00    +0.121 C 
ATOM     13  S   UNL     1      -3.587   5.533   0.215  0.00  0.00    -0.027 S 
ATOM     14  S   UNL     1      -0.995   3.753   0.055  0.00  0.00    -0.061 S 
BRANCH  11  15
ATOM     15  C   UNL     1      -4.716   2.619   0.335  0.00  0.00    +0.115 C 
BRANCH  15  16
ATOM     16  C   UNL     1      -5.115   2.576   1.811  0.00  0.00    +0.031 C 
BRANCH  16  17
ATOM     17  C   UNL     1      -6.630   2.394   1.925  0.00  0.00    +0.126 C 
BRANCH  17  18
ATOM     18  C   UNL     1      -7.024   2.352   3.379  0.00  0.00    +0.356 C 
ATOM     19  O   UNL     1      -6.179   2.456   4.236  0.00  0.00    -0.246 OA
ATOM     20  O   UNL     1      -8.312   2.199   3.721  0.00  0.00    -0.246 OA
ENDBRANCH  17  18
ENDBRANCH  16  17
ENDBRANCH  15  16
ENDBRANCH  11  15
ENDBRANCH   3   7
BRANCH   1  22
ATOM     21  C   UNL     1       4.374  -1.212   0.099  0.00  0.00    +0.015 C 
ATOM     22  C   UNL     1       4.871   0.159  -0.362  0.00  0.00    -0.009 C 
ATOM     23  C   UNL     1       5.558   0.022  -1.722  0.00  0.00    +0.015 C 
ATOM     24  C   UNL     1       5.868   0.710   0.660  0.00  0.00    +0.015 C 
ENDBRANCH   1  22
BRANCH   5  25
ATOM     25  C   UNL     1       3.068   4.714  -1.442  0.00  0.00    -0.009 C 
ATOM     26  C   UNL     1       1.733   5.460  -1.484  0.00  0.00    +0.015 C 
ATOM     27  C   UNL     1       4.009   5.406  -0.455  0.00  0.00    +0.015 C 
ATOM     28  C   UNL     1       3.698   4.719  -2.837  0.00  0.00    +0.015 C 
ENDBRANCH   5  25
BRANCH   6  29
ATOM     29  O   UNL     1       5.165   2.845  -1.176  0.00  0.00    -0.506 OA
ATOM     30  H   UNL     1       5.419   2.725  -2.102  0.00  0.00    +0.292 HD
ENDBRANCH   6  29
TORSDOF 8
