REMARK  Name = ZINC21254741
REMARK  3 active torsions:
REMARK  status: ('A' for Active; 'I' for Inactive)
REMARK    1  A    between atoms: C_4  and  N_32
REMARK    2  A    between atoms: C_5  and  C_7
REMARK    3  A    between atoms: C_12  and  C_17
REMARK                            x       y       z     vdW  Elec       q    Type
REMARK                         _______ _______ _______ _____ _____    ______ ____
ROOT
ATOM      1  C   UNL     1       2.648   3.529  -0.131  0.00  0.00    +0.138 C 
ATOM      2  C   UNL     1       3.096   3.504  -1.573  0.00  0.00    +0.036 C 
ATOM      3  C   UNL     1       3.269   4.571  -2.367  0.00  0.00    +0.017 C 
ATOM      4  C   UNL     1       3.689   4.393  -3.817  0.00  0.00    +0.059 C 
ATOM      5  C   UNL     1       4.604   3.176  -3.947  0.00  0.00    +0.032 C 
ATOM      6  C   UNL     1       3.819   1.949  -3.469  0.00  0.00    +0.088 C 
ATOM      7  C   UNL     1       3.347   2.199  -2.068  0.00  0.00    +0.163 C 
ATOM      8  O   UNL     1       3.171   1.249  -1.331  0.00  0.00    -0.292 OA
ATOM      9  N   UNL     1       3.080   5.859  -1.985  0.00  0.00    -0.316 N 
ATOM     10  C   UNL     1       1.975   6.324  -1.281  0.00  0.00    +0.052 A 
ATOM     11  C   UNL     1       1.112   7.271  -1.803  0.00  0.00    +0.025 A 
ATOM     12  C   UNL     1       0.094   7.772  -1.009  0.00  0.00    +0.002 A 
ATOM     13  C   UNL     1      -0.060   7.328   0.291  0.00  0.00    +0.002 A 
ATOM     14  C   UNL     1       0.789   6.364   0.807  0.00  0.00    +0.025 A 
ATOM     15  C   UNL     1       1.799   5.849   0.010  0.00  0.00    +0.049 A 
ATOM     16  N   UNL     1       2.650   4.846   0.470  0.00  0.00    -0.331 N 
ATOM     17  H   UNL     1       3.833   6.622  -2.232  0.00  0.00    +0.152 HD
ATOM     18  H   UNL     1       3.331   5.068   1.305  0.00  0.00    +0.147 HD
ENDROOT
BRANCH   5  19
ATOM     19  C   UNL     1       5.011   2.995  -5.387  0.00  0.00    -0.043 A 
ATOM     20  C   UNL     1       4.047   2.782  -6.355  0.00  0.00    +0.007 A 
ATOM     21  C   UNL     1       4.418   2.620  -7.676  0.00  0.00    +0.038 A 
ATOM     22  C   UNL     1       5.757   2.661  -8.029  0.00  0.00    +0.123 A 
ATOM     23  C   UNL     1       6.721   2.869  -7.057  0.00  0.00    +0.038 A 
ATOM     24  C   UNL     1       6.347   3.036  -5.737  0.00  0.00    +0.007 A 
ATOM     25  F   UNL     1       6.121   2.499  -9.319  0.00  0.00    -0.205 F 
ENDBRANCH   5  19
BRANCH   1  30
ATOM     26  C   UNL     1      -0.821   2.414  -1.118  0.00  0.00    +0.000 A 
ATOM     27  C   UNL     1      -1.311   1.940   0.084  0.00  0.00    +0.002 A 
ATOM     28  C   UNL     1      -0.523   1.988   1.219  0.00  0.00    +0.033 A 
ATOM     29  C   UNL     1       0.759   2.501   1.149  0.00  0.00    +0.131 A 
ATOM     30  C   UNL     1       1.251   2.970  -0.054  0.00  0.00    +0.007 A 
ATOM     31  C   UNL     1       0.461   2.927  -1.188  0.00  0.00    +0.008 A 
BRANCH  29  32
ATOM     32  N   UNL     1       1.605   2.547   2.363  0.00  0.00    +0.057 N 
ATOM     33  O   UNL     1       1.214   2.037   3.397  0.00  0.00    -0.126 OA
ATOM     34  O   UNL     1       2.692   3.096   2.327  0.00  0.00    -0.126 OA
ENDBRANCH  29  32
ENDBRANCH   1  30
TORSDOF 3
