REMARK  Name = ZINC39491027
REMARK  15 active torsions:
REMARK  status: ('A' for Active; 'I' for Inactive)
REMARK    1  A    between atoms: C_1  and  C_2
REMARK    2  A    between atoms: C_2  and  O_3
REMARK    3  A    between atoms: O_3  and  N_4
REMARK    4  A    between atoms: C_7  and  C_10
REMARK    5  A    between atoms: C_7  and  C_30
REMARK    6  A    between atoms: C_10  and  N_11
REMARK    7  A    between atoms: N_14  and  S_24
REMARK    8  A    between atoms: C_16  and  C_17
REMARK    9  A    between atoms: C_16  and  S_18
REMARK   10  A    between atoms: S_18  and  C_21
REMARK   11  A    between atoms: C_21  and  C_22
REMARK   12  A    between atoms: C_21  and  C_23
REMARK   13  A    between atoms: S_24  and  C_27
REMARK   14  A    between atoms: C_27  and  C_28
REMARK   15  A    between atoms: C_27  and  C_29
REMARK                            x       y       z     vdW  Elec       q    Type
REMARK                         _______ _______ _______ _____ _____    ______ ____
ROOT
ATOM      1  N   UNL     1       1.537  -2.569  -4.399  0.00  0.00    -0.258 N 
ATOM      2  C   UNL     1       0.475  -1.980  -4.965  0.00  0.00    +0.326 C 
ATOM      3  O   UNL     1      -0.650  -2.434  -4.895  0.00  0.00    -0.251 OA
ATOM      4  N   UNL     1       0.766  -0.846  -5.616  0.00  0.00    -0.156 N 
ATOM      5  C   UNL     1       2.209  -0.583  -5.507  0.00  0.00    +0.185 C 
ATOM      6  C   UNL     1       2.737  -1.762  -4.667  0.00  0.00    +0.171 C 
ATOM      7  C   UNL     1       3.761  -2.571  -5.465  0.00  0.00    +0.059 C 
ENDROOT
BRANCH   6   8
ATOM      8  S   UNL     1       3.463  -1.167  -3.115  0.00  0.00    -0.006 S 
ATOM      9  O   UNL     1       2.526  -0.307  -2.481  0.00  0.00    -0.172 OA
ATOM     10  O   UNL     1       3.971  -2.284  -2.399  0.00  0.00    -0.172 OA
BRANCH   8  11
ATOM     11  C   UNL     1       4.864  -0.166  -3.686  0.00  0.00    +0.127 C 
ATOM     12  C   UNL     1       4.352   0.970  -4.573  0.00  0.00    +0.031 C 
ATOM     13  C   UNL     1       5.598   0.420  -2.478  0.00  0.00    +0.031 C 
ENDBRANCH   8  11
ENDBRANCH   6   8
BRANCH   4  14
ATOM     14  S   UNL     1      -0.326   0.108  -6.416  0.00  0.00    +0.051 S 
ATOM     15  O   UNL     1       0.391   0.624  -7.529  0.00  0.00    -0.155 OA
ATOM     16  O   UNL     1      -1.462  -0.723  -6.607  0.00  0.00    -0.155 OA
BRANCH  14  17
ATOM     17  C   UNL     1      -0.717   1.444  -5.252  0.00  0.00    +0.145 C 
ATOM     18  C   UNL     1       0.544   2.264  -4.974  0.00  0.00    +0.033 C 
ATOM     19  C   UNL     1      -1.791   2.350  -5.859  0.00  0.00    +0.033 C 
ENDBRANCH  14  17
ENDBRANCH   4  14
BRANCH   1  20
ATOM     20  C   UNL     1       1.506  -3.815  -3.630  0.00  0.00    +0.118 C 
BRANCH  20  24
ATOM     21  N   UNL     1       2.595  -5.171  -0.567  0.00  0.00    -0.188 NA
ATOM     22  C   UNL     1       1.609  -5.805  -1.451  0.00  0.00    +0.115 C 
ATOM     23  C   UNL     1       0.415  -4.867  -1.641  0.00  0.00    +0.026 C 
ATOM     24  C   UNL     1       0.900  -3.549  -2.250  0.00  0.00    -0.008 C 
ATOM     25  C   UNL     1       1.962  -2.933  -1.335  0.00  0.00    +0.026 C 
ATOM     26  C   UNL     1       3.111  -3.927  -1.154  0.00  0.00    +0.115 C 
BRANCH  24  27
ATOM     27  C   UNL     1      -0.279  -2.583  -2.387  0.00  0.00    -0.003 C 
ATOM     28  C   UNL     1       0.239  -1.144  -2.401  0.00  0.00    +0.004 C 
ATOM     29  C   UNL     1      -0.940  -0.179  -2.538  0.00  0.00    +0.000 C 
ATOM     30  C   UNL     1      -1.892  -0.366  -1.355  0.00  0.00    +0.000 C 
ATOM     31  C   UNL     1      -2.410  -1.806  -1.340  0.00  0.00    +0.000 C 
ATOM     32  C   UNL     1      -1.231  -2.771  -1.204  0.00  0.00    +0.004 C 
ENDBRANCH  24  27
BRANCH  21  33
ATOM     33  O   UNL     1       3.686  -6.094  -0.252  0.00  0.00    -0.297 OA
BRANCH  33  35
ATOM     34  C   UNL     1       4.948  -7.385   1.354  0.00  0.00    +0.036 C 
ATOM     35  C   UNL     1       3.703  -6.530   1.108  0.00  0.00    +0.182 C 
ENDBRANCH  33  35
ENDBRANCH  21  33
ENDBRANCH  20  24
ENDBRANCH   1  20
TORSDOF 9
