REMARK  Name = ZINC36007075
REMARK  8 active torsions:
REMARK  status: ('A' for Active; 'I' for Inactive)
REMARK    1  A    between atoms: C_4  and  C_7
REMARK    2  A    between atoms: C_11  and  C_19
REMARK    3  A    between atoms: C_12  and  N_13
REMARK    4  A    between atoms: N_20  and  N_21
REMARK    5  A    between atoms: N_21  and  C_22
REMARK    6  A    between atoms: C_25  and  S_31
REMARK    7  A    between atoms: C_27  and  N_28
REMARK    8  A    between atoms: S_31  and  N_34
REMARK                            x       y       z     vdW  Elec       q    Type
REMARK                         _______ _______ _______ _____ _____    ______ ____
ROOT
ATOM      1  C   UNL     1       3.776  -0.505  -1.735  0.00  0.00    +0.013 C 
ATOM      2  C   UNL     1       3.788  -1.839  -1.320  0.00  0.00    -0.027 C 
ATOM      3  C   UNL     1       5.028  -2.666  -1.077  0.00  0.00    +0.042 C 
ATOM      4  C   UNL     1       4.506  -4.046  -0.640  0.00  0.00    +0.043 C 
ATOM      5  C   UNL     1       3.001  -3.910  -0.665  0.00  0.00    -0.008 C 
ATOM      6  C   UNL     1       2.675  -2.600  -1.063  0.00  0.00    +0.022 C 
ENDROOT
BRANCH   6   7
ATOM      7  N   UNL     1       1.365  -2.129  -1.187  0.00  0.00    -0.389 NA
ATOM      8  C   UNL     1       0.683  -2.231   0.110  0.00  0.00    +0.113 C 
ATOM      9  C   UNL     1      -0.751  -1.714  -0.028  0.00  0.00    +0.177 C 
ATOM     10  O   UNL     1      -1.428  -2.466  -1.039  0.00  0.00    -0.377 OA
ATOM     11  C   UNL     1      -0.788  -2.417  -2.317  0.00  0.00    +0.177 C 
ATOM     12  C   UNL     1       0.646  -2.935  -2.183  0.00  0.00    +0.113 C 
ATOM     13  H   UNL     1       1.382  -1.164  -1.484  0.00  0.00    +0.127 HD
ENDBRANCH   6   7
BRANCH   1  17
ATOM     14  C   UNL     1       0.355   1.832  -1.164  0.00  0.00    +0.000 A 
ATOM     15  C   UNL     1       0.882   1.112  -0.102  0.00  0.00    +0.001 A 
ATOM     16  C   UNL     1       2.003   0.343  -0.278  0.00  0.00    +0.008 A 
ATOM     17  C   UNL     1       2.620   0.285  -1.542  0.00  0.00    -0.025 A 
ATOM     18  C   UNL     1       2.076   1.020  -2.613  0.00  0.00    +0.008 A 
ATOM     19  C   UNL     1       0.954   1.783  -2.414  0.00  0.00    +0.001 A 
ENDBRANCH   1  17
BRANCH   5  20
ATOM     20  C   UNL     1       2.099  -4.900  -0.346  0.00  0.00    +0.135 C 
ATOM     21  N   UNL     1       2.535  -6.106   0.025  0.00  0.00    -0.190 NA
BRANCH  21  22
ATOM     22  N   UNL     1       1.690  -7.034   0.324  0.00  0.00    -0.236 N 
ATOM     23  H   UNL     1       0.737  -6.855   0.280  0.00  0.00    +0.174 HD
BRANCH  22  24
ATOM     24  C   UNL     1       2.142  -8.284   0.708  0.00  0.00    +0.079 A 
ATOM     25  C   UNL     1       3.506  -8.575   0.676  0.00  0.00    +0.029 A 
ATOM     26  C   UNL     1       3.951  -9.823   1.060  0.00  0.00    +0.030 A 
ATOM     27  C   UNL     1       3.047 -10.786   1.476  0.00  0.00    +0.107 A 
ATOM     28  C   UNL     1       1.692 -10.502   1.510  0.00  0.00    +0.063 A 
ATOM     29  C   UNL     1       1.236  -9.255   1.134  0.00  0.00    +0.150 A 
BRANCH  29  30
ATOM     30  N   UNL     1      -0.211  -8.951   1.177  0.00  0.00    +0.058 N 
ATOM     31  O   UNL     1      -0.621  -7.736   1.478  0.00  0.00    -0.126 OA
ATOM     32  O   UNL     1      -1.091  -9.896   0.914  0.00  0.00    -0.126 OA
ENDBRANCH  29  30
BRANCH  27  33
ATOM     33  S   UNL     1       3.622 -12.378   1.965  0.00  0.00    +0.056 S 
ATOM     34  O   UNL     1       2.533 -13.274   1.792  0.00  0.00    -0.153 OA
ATOM     35  O   UNL     1       4.876 -12.570   1.325  0.00  0.00    -0.153 OA
BRANCH  33  36
ATOM     36  N   UNL     1       3.926 -12.310   3.591  0.00  0.00    -0.204 NA
ATOM     37  H   UNL     1       3.828 -13.107   4.136  0.00  0.00    +0.144 HD
ATOM     38  H   UNL     1       4.203 -11.475   3.999  0.00  0.00    +0.144 HD
ENDBRANCH  33  36
ENDBRANCH  27  33
ENDBRANCH  22  24
ENDBRANCH  21  22
ENDBRANCH   5  20
TORSDOF 8
