REMARK  Name = ZINC12190728
REMARK  11 active torsions:
REMARK  status: ('A' for Active; 'I' for Inactive)
REMARK    1  A    between atoms: C_1  and  C_2
REMARK    2  A    between atoms: C_4  and  C_35
REMARK    3  A    between atoms: C_6  and  C_8
REMARK    4  A    between atoms: N_10  and  C_11
REMARK    5  A    between atoms: C_11  and  C_13
REMARK    6  A    between atoms: C_11  and  C_17
REMARK    7  A    between atoms: C_13  and  C_14
REMARK    8  A    between atoms: C_14  and  C_15
REMARK    9  A    between atoms: C_14  and  C_16
REMARK   10  A    between atoms: C_26  and  C_27
REMARK   11  A    between atoms: C_26  and  N_68
REMARK                            x       y       z     vdW  Elec       q    Type
REMARK                         _______ _______ _______ _____ _____    ______ ____
ROOT
ATOM      1  C   UNL     1       8.414  -0.219  -1.599  0.00  0.00    +0.154 A 
ATOM      2  N   UNL     1       8.619   0.525  -2.654  0.00  0.00    -0.132 NA
ATOM      3  N   UNL     1       7.492   0.812  -3.208  0.00  0.00    -0.134 NA
ATOM      4  C   UNL     1       6.524   0.259  -2.537  0.00  0.00    +0.132 A 
ATOM      5  N   UNL     1       7.080  -0.395  -1.488  0.00  0.00    -0.315 N 
ATOM      6  C   UNL     1       6.356  -1.121  -0.445  0.00  0.00    +0.106 C 
ATOM      7  C   UNL     1       5.031  -1.633  -1.016  0.00  0.00    -0.056 C 
ATOM      8  C   UNL     1       4.291   0.624  -1.543  0.00  0.00    -0.071 C 
ATOM      9  C   UNL     1       5.048   0.308  -2.837  0.00  0.00    +0.058 C 
ATOM     10  N   UNL     1       3.951  -0.633  -0.842  0.00  0.00    +0.384 N 
ATOM     11  H   UNL     1       3.084  -1.010  -1.242  0.00  0.00    -0.081 HD
ENDROOT
BRANCH   1  12
ATOM     12  C   UNL     1       9.470  -0.776  -0.678  0.00  0.00    +0.142 C 
BRANCH  12  15
ATOM     13  C   UNL     1      11.020   0.211   0.921  0.00  0.00    +0.245 C 
ATOM     14  O   UNL     1      10.942  -0.805   1.583  0.00  0.00    -0.270 OA
ATOM     15  N   UNL     1      10.365   0.303  -0.253  0.00  0.00    -0.301 N 
ATOM     16  H   UNL     1      10.487   1.083  -0.817  0.00  0.00    +0.150 HD
BRANCH  13  22
ATOM     17  C   UNL     1      12.784   4.836   0.288  0.00  0.00    +0.044 C 
ATOM     18  C   UNL     1      12.684   3.574   1.104  0.00  0.00    -0.049 A 
ATOM     19  C   UNL     1      13.355   3.477   2.311  0.00  0.00    +0.006 A 
ATOM     20  C   UNL     1      13.269   2.321   3.066  0.00  0.00    -0.049 A 
ATOM     21  C   UNL     1      12.512   1.257   2.621  0.00  0.00    +0.016 A 
ATOM     22  C   UNL     1      11.833   1.348   1.405  0.00  0.00    +0.037 A 
ATOM     23  C   UNL     1      11.928   2.515   0.645  0.00  0.00    +0.016 A 
ATOM     24  C   UNL     1      14.003   2.224   4.379  0.00  0.00    +0.044 C 
ENDBRANCH  13  22
ENDBRANCH  12  15
BRANCH  12  25
ATOM     25  C   UNL     1      10.276  -1.847  -1.415  0.00  0.00    +0.033 C 
BRANCH  25  26
ATOM     26  C   UNL     1       9.372  -3.042  -1.726  0.00  0.00    -0.015 C 
ATOM     27  C   UNL     1      10.134  -4.047  -2.592  0.00  0.00    +0.007 C 
ATOM     28  C   UNL     1       8.947  -3.714  -0.419  0.00  0.00    +0.007 C 
ENDBRANCH  25  26
ENDBRANCH  12  25
ENDBRANCH   1  12
BRANCH  10  29
ATOM     29  C   UNL     1       3.740  -0.366   0.592  0.00  0.00    -0.043 C 
BRANCH  29  30
ATOM     30  C   UNL     1       2.484   0.452   0.747  0.00  0.00    -0.061 A 
ATOM     31  C   UNL     1       1.262  -0.178   0.886  0.00  0.00    +0.005 A 
ATOM     32  C   UNL     1       0.109   0.571   1.030  0.00  0.00    +0.041 A 
ATOM     33  C   UNL     1       0.177   1.953   1.035  0.00  0.00    +0.158 A 
ATOM     34  C   UNL     1       1.403   2.585   0.895  0.00  0.00    +0.159 A 
ATOM     35  C   UNL     1       2.556   1.833   0.752  0.00  0.00    +0.043 A 
ATOM     36  F   UNL     1       1.473   3.934   0.900  0.00  0.00    -0.202 F 
ATOM     37  F   UNL     1      -0.950   2.685   1.170  0.00  0.00    -0.202 F 
ENDBRANCH  29  30
ENDBRANCH  10  29
TORSDOF 7
