REMARK  Name = ZINC64131725
REMARK  6 active torsions:
REMARK  status: ('A' for Active; 'I' for Inactive)
REMARK    1  A    between atoms: C_7  and  C_10
REMARK    2  A    between atoms: C_10  and  C_11
REMARK    3  A    between atoms: C_11  and  C_12
REMARK    4  A    between atoms: C_17  and  N_20
REMARK    5  A    between atoms: C_22  and  C_25
REMARK    6  A    between atoms: C_25  and  O_26
REMARK                            x       y       z     vdW  Elec       q    Type
REMARK                         _______ _______ _______ _____ _____    ______ ____
ROOT
ATOM      1  C   UNL     1      -0.484  -4.830  -1.460  0.00  0.00    +0.216 C 
ATOM      2  O   UNL     1      -0.925  -5.254  -0.412  0.00  0.00    -0.276 OA
ATOM      3  N   UNL     1      -0.837  -5.413  -2.623  0.00  0.00    -0.301 N 
ATOM      4  C   UNL     1      -0.307  -4.916  -3.900  0.00  0.00    +0.109 C 
ATOM      5  C   UNL     1       0.331  -6.084  -4.658  0.00  0.00    +0.039 C 
ATOM      6  C   UNL     1      -0.690  -7.215  -4.799  0.00  0.00    +0.081 C 
ATOM      7  C   UNL     1      -1.103  -7.707  -3.410  0.00  0.00    +0.039 C 
ATOM      8  C   UNL     1      -1.753  -6.561  -2.638  0.00  0.00    +0.109 C 
ENDROOT
BRANCH   6   9
ATOM      9  N   UNL     1      -0.092  -8.324  -5.554  0.00  0.00    -0.205 NA
ATOM     10  C   UNL     1       0.388  -7.867  -6.874  0.00  0.00    +0.162 C 
ATOM     11  C   UNL     1       1.870  -8.171  -6.857  0.00  0.00    +0.079 C 
ATOM     12  N   UNL     1       2.139  -8.697  -5.726  0.00  0.00    -0.177 NA
ATOM     13  N   UNL     1       1.014  -8.812  -4.914  0.00  0.00    -0.199 N 
ATOM     14  H   UNL     1       1.014  -9.186  -4.019  0.00  0.00    +0.189 HD
BRANCH  11  15
ATOM     15  C   UNL     1       2.848  -7.901  -7.971  0.00  0.00    +0.209 C 
BRANCH  15  16
ATOM     16  O   UNL     1       4.153  -8.327  -7.572  0.00  0.00    -0.389 OA
ATOM     17  H   UNL     1       4.835  -8.184  -8.242  0.00  0.00    +0.210 HD
ENDBRANCH  15  16
ENDBRANCH  11  15
ENDBRANCH   6   9
BRANCH   1  18
ATOM     18  C   UNL     1       0.457  -3.653  -1.462  0.00  0.00    +0.100 C 
BRANCH  18  19
ATOM     19  C   UNL     1       0.691  -3.186  -0.024  0.00  0.00    +0.042 C 
BRANCH  19  26
ATOM     20  C   UNL     1      -0.016   1.348   0.009  0.00  0.00    +0.001 A 
ATOM     21  C   UNL     1       1.166   2.101   0.002  0.00  0.00    +0.002 A 
ATOM     22  C   UNL     1       2.391   1.535  -0.013  0.00  0.00    +0.026 A 
ATOM     23  C   UNL     1       2.529   0.120  -0.022  0.00  0.00    +0.043 A 
ATOM     24  N   UNL     1       3.587  -0.654  -0.037  0.00  0.00    -0.380 N 
ATOM     25  C   UNL     1       3.143  -2.053  -0.041  0.00  0.00    +0.144 C 
ATOM     26  C   UNL     1       1.631  -2.008  -0.025  0.00  0.00    -0.041 C 
ATOM     27  C   UNL     1       1.295  -0.698  -0.014  0.00  0.00    -0.001 A 
ATOM     28  C   UNL     1       0.002  -0.004   0.002  0.00  0.00    +0.010 A 
ATOM     29  H   UNL     1       4.509  -0.353  -0.045  0.00  0.00    +0.160 HD
ENDBRANCH  19  26
ENDBRANCH  18  19
ENDBRANCH   1  18
TORSDOF 6
