REMARK  Name = ZINC40914262
REMARK  8 active torsions:
REMARK  status: ('A' for Active; 'I' for Inactive)
REMARK    1  A    between atoms: C_1  and  C_2
REMARK    2  A    between atoms: C_2  and  O_3
REMARK    3  A    between atoms: O_3  and  C_4
REMARK    4  A    between atoms: C_6  and  C_20
REMARK    5  A    between atoms: C_9  and  O_10
REMARK    6  A    between atoms: O_10  and  C_11
REMARK    7  A    between atoms: C_11  and  C_12
REMARK    8  A    between atoms: C_16  and  C_18
REMARK                            x       y       z     vdW  Elec       q    Type
REMARK                         _______ _______ _______ _____ _____    ______ ____
ROOT
ATOM      1  C   UNL     1       0.777  -1.811  -1.336  0.00  0.00    +0.163 A 
ATOM      2  C   UNL     1       0.243  -2.669  -0.388  0.00  0.00    +0.055 A 
ATOM      3  C   UNL     1       0.352  -4.037  -0.554  0.00  0.00    -0.014 A 
ATOM      4  C   UNL     1       0.992  -4.553  -1.665  0.00  0.00    +0.025 A 
ATOM      5  C   UNL     1       1.527  -3.702  -2.616  0.00  0.00    +0.063 A 
ATOM      6  C   UNL     1       1.416  -2.329  -2.458  0.00  0.00    +0.176 A 
ATOM      7 BR   UNL     1       2.403  -4.412  -4.134  0.00  0.00    -0.046 Br
ENDROOT
BRANCH   3   8
ATOM      8  C   UNL     1      -0.228  -4.968   0.479  0.00  0.00    +0.176 C 
ATOM      9  C   UNL     1      -1.276  -5.847  -0.169  0.00  0.00    +0.041 C 
ATOM     10  C   UNL     1      -1.053  -7.151  -0.437  0.00  0.00    +0.020 C 
ATOM     11  C   UNL     1      -2.112  -7.998  -1.101  0.00  0.00    +0.052 C 
ATOM     12  C   UNL     1      -3.500  -7.499  -0.694  0.00  0.00    +0.014 C 
ATOM     13  C   UNL     1      -3.626  -6.030  -1.113  0.00  0.00    +0.080 C 
ATOM     14  C   UNL     1      -2.508  -5.246  -0.483  0.00  0.00    +0.163 C 
ATOM     15  O   UNL     1      -2.673  -4.066  -0.242  0.00  0.00    -0.292 OA
ATOM     16  N   UNL     1       0.135  -7.764  -0.117  0.00  0.00    -0.287 N 
ATOM     17  C   UNL     1       0.996  -7.106   0.746  0.00  0.00    +0.218 A 
ATOM     18  N   UNL     1       0.835  -5.793   1.038  0.00  0.00    -0.221 N 
ATOM     19  N   UNL     1       1.855  -5.461   1.929  0.00  0.00    -0.156 NA
ATOM     20  C   UNL     1       2.560  -6.550   2.118  0.00  0.00    +0.247 A 
ATOM     21  N   UNL     1       2.037  -7.541   1.401  0.00  0.00    -0.201 NA
ATOM     22  H   UNL     1       0.364  -8.632  -0.484  0.00  0.00    +0.155 HD
ENDBRANCH   3   8
BRANCH   1  23
ATOM     23  O   UNL     1       0.671  -0.465  -1.174  0.00  0.00    -0.489 OA
BRANCH  23  25
ATOM     24  C   UNL     1      -0.019   1.526   0.010  0.00  0.00    +0.048 C 
ATOM     25  C   UNL     1       0.002  -0.004   0.002  0.00  0.00    +0.226 C 
ENDBRANCH  23  25
ENDBRANCH   1  23
BRANCH   6  26
ATOM     26  O   UNL     1       1.936  -1.491  -3.394  0.00  0.00    -0.483 OA
BRANCH  26  27
ATOM     27  C   UNL     1       3.293  -1.080  -3.215  0.00  0.00    +0.264 C 
BRANCH  27  28
ATOM     28  C   UNL     1       3.692  -0.161  -4.341  0.00  0.00    -0.010 A 
ATOM     29  C   UNL     1       4.240  -0.683  -5.498  0.00  0.00    +0.007 A 
ATOM     30  C   UNL     1       4.607   0.160  -6.530  0.00  0.00    +0.001 A 
ATOM     31  C   UNL     1       4.424   1.524  -6.406  0.00  0.00    +0.003 A 
ATOM     32  C   UNL     1       3.875   2.046  -5.250  0.00  0.00    -0.050 A 
ATOM     33  C   UNL     1       3.505   1.203  -4.219  0.00  0.00    +0.010 A 
ATOM     34  C   UNL     1       3.677   3.534  -5.115  0.00  0.00    +0.044 C 
ENDBRANCH  27  28
ENDBRANCH  26  27
ENDBRANCH   6  26
TORSDOF 6
