REMARK  Name = ZINC05229272
REMARK  9 active torsions:
REMARK  status: ('A' for Active; 'I' for Inactive)
REMARK    1  A    between atoms: C_1  and  C_2
REMARK    2  A    between atoms: C_2  and  C_3
REMARK    3  A    between atoms: C_3  and  C_5
REMARK    4  A    between atoms: C_3  and  N_6
REMARK    5  A    between atoms: N_6  and  C_7
REMARK    6  A    between atoms: C_15  and  C_17
REMARK    7  A    between atoms: C_17  and  S_18
REMARK    8  A    between atoms: S_18  and  C_19
REMARK    9  A    between atoms: C_23  and  N_25
REMARK                            x       y       z     vdW  Elec       q    Type
REMARK                         _______ _______ _______ _____ _____    ______ ____
ROOT
ATOM      1  N   UNL     1      -3.396   7.754   0.077  0.00  0.00    -0.293 N 
ATOM      2  C   UNL     1      -2.127   7.298   0.063  0.00  0.00    +0.226 C 
ATOM      3  O   UNL     1      -1.202   8.082   0.059  0.00  0.00    -0.275 OA
ENDROOT
BRANCH   1   4
ATOM      4  C   UNL     1      -3.657   9.195   0.088  0.00  0.00    +0.099 C 
ATOM      5  C   UNL     1      -3.065   9.831  -1.181  0.00  0.00    +0.046 C 
ATOM      6  C   UNL     1      -3.075  11.375  -1.000  0.00  0.00    +0.168 C 
ATOM      7  S   UNL     1      -2.555  11.510   0.763  0.00  0.00    -0.029 S 
ATOM      8  O   UNL     1      -1.142  11.654   0.819  0.00  0.00    -0.174 OA
ATOM      9  O   UNL     1      -3.381  12.464   1.417  0.00  0.00    -0.174 OA
ATOM     10  C   UNL     1      -3.007   9.826   1.343  0.00  0.00    +0.188 C 
ENDBRANCH   1   4
BRANCH   1  11
ATOM     11  C   UNL     1      -4.514   6.807   0.082  0.00  0.00    +0.073 C 
ATOM     12  C   UNL     1      -5.358   7.021   1.341  0.00  0.00    +0.028 C 
BRANCH  11  14
ATOM     13  C   UNL     1      -4.573   6.701  -2.413  0.00  0.00    +0.005 C 
ATOM     14  C   UNL     1      -5.381   7.035  -1.158  0.00  0.00    +0.019 C 
ENDBRANCH  11  14
ENDBRANCH   1  11
BRANCH   2  15
ATOM     15  C   UNL     1      -1.859   5.815   0.052  0.00  0.00    +0.173 C 
BRANCH  15  16
ATOM     16  S   UNL     1      -0.073   5.525   0.033  0.00  0.00    -0.077 S 
BRANCH  16  17
ATOM     17  C   UNL     1      -0.049   3.764   0.023  0.00  0.00    +0.192 A 
ATOM     18  N   UNL     1       1.117   3.134   0.008  0.00  0.00    -0.207 NA
ATOM     19  C   UNL     1       1.173   1.804   0.001  0.00  0.00    +0.122 A 
ATOM     20  C   UNL     1      -0.013   1.076   0.008  0.00  0.00    +0.086 A 
ATOM     21  C   UNL     1      -1.218   1.772   0.017  0.00  0.00    +0.122 A 
ATOM     22  N   UNL     1      -1.197   3.103   0.030  0.00  0.00    -0.207 NA
ATOM     23  N   UNL     1       2.397   1.154  -0.014  0.00  0.00    -0.343 N 
ATOM     24  H   UNL     1       2.431   0.184  -0.019  0.00  0.00    +0.144 HD
ATOM     25  H   UNL     1       3.220   1.668  -0.019  0.00  0.00    +0.144 HD
BRANCH  21  26
ATOM     26  N   UNL     1      -2.424   1.088   0.019  0.00  0.00    -0.343 N 
ATOM     27  H   UNL     1      -2.431   0.118   0.013  0.00  0.00    +0.144 HD
ATOM     28  H   UNL     1      -3.260   1.579   0.025  0.00  0.00    +0.144 HD
ENDBRANCH  21  26
ENDBRANCH  16  17
ENDBRANCH  15  16
ENDBRANCH   2  15
TORSDOF 7
