REMARK  Name = ZINC42462191
REMARK  7 active torsions:
REMARK  status: ('A' for Active; 'I' for Inactive)
REMARK    1  A    between atoms: C_1  and  C_2
REMARK    2  A    between atoms: C_2  and  C_4
REMARK    3  A    between atoms: C_2  and  C_13
REMARK    4  A    between atoms: C_4  and  N_5
REMARK    5  A    between atoms: C_10  and  C_11
REMARK    6  A    between atoms: C_10  and  C_12
REMARK    7  A    between atoms: N_14  and  O_15
REMARK                            x       y       z     vdW  Elec       q    Type
REMARK                         _______ _______ _______ _____ _____    ______ ____
ROOT
ATOM      1  C   UNL     1       0.671  -0.400  -1.315  0.00  0.00    +0.017 C 
ATOM      2  C   UNL     1       0.005  -0.015   0.008  0.00  0.00    +0.066 C 
ENDROOT
BRANCH   2   3
ATOM      3  C   UNL     1       0.695  -0.726   1.143  0.00  0.00    +0.136 C 
ATOM      4  N   UNL     1       1.323  -1.833   0.926  0.00  0.00    -0.076 NA
ATOM      5  N   UNL     1       0.655  -0.195   2.414  0.00  0.00    -0.344 N 
ATOM      6  H   UNL     1       0.183   0.637   2.577  0.00  0.00    +0.144 HD
ATOM      7  H   UNL     1       1.099  -0.652   3.145  0.00  0.00    +0.144 HD
BRANCH   4   8
ATOM      8  O   UNL     1       1.971  -2.501   1.993  0.00  0.00    -0.408 OA
ATOM      9  H   UNL     1       2.414  -3.320   1.733  0.00  0.00    +0.328 HD
ENDBRANCH   4   8
ENDBRANCH   2   3
BRANCH   2  10
ATOM     10  C   UNL     1      -1.470  -0.420  -0.027  0.00  0.00    +0.096 C 
BRANCH  10  11
ATOM     11  N   UNL     1      -2.140   0.062   1.188  0.00  0.00    -0.292 NA
ATOM     12  C   UNL     1      -2.305   1.523   1.154  0.00  0.00    +0.113 C 
ATOM     13  C   UNL     1      -2.951   1.988   2.461  0.00  0.00    +0.175 C 
ATOM     14  O   UNL     1      -4.195   1.307   2.642  0.00  0.00    -0.377 OA
ATOM     15  C   UNL     1      -4.071  -0.117   2.680  0.00  0.00    +0.181 C 
ATOM     16  C   UNL     1      -3.437  -0.604   1.375  0.00  0.00    +0.040 C 
ATOM     17  C   UNL     1      -4.358  -0.266   0.201  0.00  0.00    +0.030 C 
ATOM     18  C   UNL     1      -3.228  -2.118   1.442  0.00  0.00    +0.030 C 
ENDBRANCH  10  11
ENDBRANCH   2  10
TORSDOF 4
