REMARK  Name = ZINC41514572
REMARK  10 active torsions:
REMARK  status: ('A' for Active; 'I' for Inactive)
REMARK    1  A    between atoms: C_1  and  C_2
REMARK    2  A    between atoms: C_4  and  O_32
REMARK    3  A    between atoms: C_5  and  C_22
REMARK    4  A    between atoms: C_11  and  C_12
REMARK    5  A    between atoms: C_17  and  O_18
REMARK    6  A    between atoms: O_18  and  C_19
REMARK    7  A    between atoms: C_22  and  N_23
REMARK    8  A    between atoms: N_23  and  C_24
REMARK    9  A    between atoms: N_23  and  C_25
REMARK   10  A    between atoms: C_25  and  C_26
REMARK                            x       y       z     vdW  Elec       q    Type
REMARK                         _______ _______ _______ _____ _____    ______ ____
ROOT
ATOM      1  C   UNL     1      -0.736   1.598   0.145  0.00  0.00    +0.045 C 
ATOM      2  C   UNL     1      -0.778   0.092   0.114  0.00  0.00    -0.033 A 
ATOM      3  C   UNL     1      -1.014  -0.561  -1.063  0.00  0.00    +0.050 A 
ATOM      4  C   UNL     1      -1.053  -1.952  -1.095  0.00  0.00    +0.122 A 
ATOM      5  C   UNL     1      -0.853  -2.690   0.061  0.00  0.00    +0.020 A 
ATOM      6  C   UNL     1      -0.612  -2.041   1.266  0.00  0.00    +0.145 A 
ATOM      7  C   UNL     1      -0.570  -0.637   1.284  0.00  0.00    +0.071 A 
ATOM      8  C   UNL     1      -0.292  -0.248   2.679  0.00  0.00    +0.232 C 
ATOM      9  O   UNL     1      -0.179   0.878   3.131  0.00  0.00    -0.283 OA
ATOM     10  C   UNL     1      -0.183  -1.523   3.402  0.00  0.00    +0.176 C 
ATOM     11  C   UNL     1       0.068  -1.674   4.729  0.00  0.00    +0.061 C 
ATOM     12  O   UNL     1      -0.389  -2.519   2.509  0.00  0.00    -0.451 OA
ENDROOT
BRANCH  11  13
ATOM     13  C   UNL     1      -0.019  -3.002   5.345  0.00  0.00    +0.021 A 
ATOM     14  C   UNL     1      -0.010  -4.152   4.546  0.00  0.00    +0.027 A 
ATOM     15  C   UNL     1      -0.092  -5.396   5.133  0.00  0.00    +0.019 A 
ATOM     16  C   UNL     1      -0.183  -5.515   6.511  0.00  0.00    +0.019 A 
ATOM     17  C   UNL     1      -0.193  -4.389   7.312  0.00  0.00    +0.047 A 
ATOM     18  C   UNL     1      -0.105  -3.130   6.742  0.00  0.00    +0.127 A 
ATOM     19 BR   UNL     1      -0.081  -6.949   4.053  0.00  0.00    -0.050 Br
BRANCH  18  20
ATOM     20  O   UNL     1      -0.109  -2.023   7.528  0.00  0.00    -0.495 OA
ATOM     21  C   UNL     1      -0.200  -2.231   8.939  0.00  0.00    +0.277 C 
ENDBRANCH  18  20
ENDBRANCH  11  13
BRANCH   4  22
ATOM     22  O   UNL     1      -1.289  -2.592  -2.268  0.00  0.00    -0.506 OA
ATOM     23  H   UNL     1      -0.490  -2.798  -2.772  0.00  0.00    +0.292 HD
ENDBRANCH   4  22
BRANCH   5  24
ATOM     24  C   UNL     1      -0.898  -4.195   0.012  0.00  0.00    -0.035 C 
BRANCH  24  25
ATOM     25  N   UNL     1       0.448  -4.717  -0.260  0.00  0.00    +0.383 N 
ATOM     26  C   UNL     1       1.335  -4.391   0.864  0.00  0.00    -0.095 C 
ATOM     27  H   UNL     1       0.807  -4.297  -1.104  0.00  0.00    -0.081 HD
BRANCH  25  28
ATOM     28  C   UNL     1       0.383  -6.175  -0.426  0.00  0.00    -0.043 C 
BRANCH  28  29
ATOM     29  C   UNL     1       1.740  -6.695  -0.826  0.00  0.00    -0.064 A 
ATOM     30  C   UNL     1       2.080  -6.784  -2.163  0.00  0.00    +0.002 A 
ATOM     31  C   UNL     1       3.324  -7.261  -2.530  0.00  0.00    +0.000 A 
ATOM     32  C   UNL     1       4.229  -7.649  -1.559  0.00  0.00    +0.000 A 
ATOM     33  C   UNL     1       3.890  -7.560  -0.222  0.00  0.00    +0.000 A 
ATOM     34  C   UNL     1       2.647  -7.078   0.144  0.00  0.00    +0.002 A 
ENDBRANCH  28  29
ENDBRANCH  25  28
ENDBRANCH  24  25
ENDBRANCH   5  24
TORSDOF 7
