REMARK  Name = ZINC67650547
REMARK  5 active torsions:
REMARK  status: ('A' for Active; 'I' for Inactive)
REMARK    1  A    between atoms: C_1  and  C_2
REMARK    2  A    between atoms: C_8  and  N_10
REMARK    3  A    between atoms: C_14  and  C_16
REMARK    4  A    between atoms: C_16  and  N_17
REMARK    5  A    between atoms: C_18  and  C_23
REMARK                            x       y       z     vdW  Elec       q    Type
REMARK                         _______ _______ _______ _____ _____    ______ ____
ROOT
ATOM      1  N   UNL     1       0.056  -0.038   2.447  0.00  0.00    -0.296 N 
ATOM      2  C   UNL     1       0.738   0.093   3.602  0.00  0.00    +0.306 C 
ATOM      3  O   UNL     1       1.921  -0.180   3.644  0.00  0.00    -0.252 OA
ATOM      4  N   UNL     1       0.107   0.528   4.711  0.00  0.00    -0.239 N 
ATOM      5  C   UNL     1       0.789   0.659   5.866  0.00  0.00    +0.240 C 
ATOM      6  O   UNL     1       1.969   0.387   5.908  0.00  0.00    -0.273 OA
ATOM      7  H   UNL     1      -0.888   0.180   2.413  0.00  0.00    +0.151 HD
ATOM      8  H   UNL     1      -0.838   0.746   4.678  0.00  0.00    +0.159 HD
ENDROOT
BRANCH   1  15
ATOM      9  C   UNL     1      -0.019   1.526   0.010  0.00  0.00    +0.009 C 
ATOM     10  C   UNL     1       0.002  -0.004   0.002  0.00  0.00    +0.006 C 
ATOM     11  C   UNL     1       0.718  -0.497  -1.257  0.00  0.00    +0.005 C 
ATOM     12  C   UNL     1       0.739  -2.027  -1.265  0.00  0.00    +0.000 C 
ATOM     13  C   UNL     1       1.479  -2.534  -0.026  0.00  0.00    +0.002 C 
ATOM     14  C   UNL     1       0.763  -2.041   1.233  0.00  0.00    +0.022 C 
ATOM     15  C   UNL     1       0.742  -0.511   1.242  0.00  0.00    +0.077 C 
ENDBRANCH   1  15
BRANCH   5  16
ATOM     16  C   UNL     1       0.083   1.145   7.106  0.00  0.00    +0.226 C 
BRANCH  16  17
ATOM     17  N   UNL     1       1.035   1.202   8.219  0.00  0.00    -0.248 N 
ATOM     18  C   UNL     1       1.308   0.172   9.099  0.00  0.00    +0.192 A 
ATOM     19  N   UNL     1       2.204   0.585   9.953  0.00  0.00    -0.053 NA
ATOM     20  O   UNL     1       2.528   1.925   9.625  0.00  0.00    -0.295 OA
ATOM     21  C   UNL     1       1.793   2.264   8.552  0.00  0.00    +0.443 A 
ATOM     22  O   UNL     1       1.809   3.339   7.985  0.00  0.00    -0.221 OA
BRANCH  18  23
ATOM     23  C   UNL     1       0.693  -1.166   9.076  0.00  0.00    +0.058 A 
ATOM     24  C   UNL     1       0.909  -2.231   9.914  0.00  0.00    +0.019 A 
ATOM     25  C   UNL     1       0.210  -3.395   9.696  0.00  0.00    +0.008 A 
ATOM     26  C   UNL     1      -0.670  -3.456   8.661  0.00  0.00    +0.046 A 
ATOM     27  S   UNL     1      -0.533  -1.822   7.956  0.00  0.00    -0.094 S 
ENDBRANCH  18  23
ENDBRANCH  16  17
ENDBRANCH   5  16
TORSDOF 4
