REMARK  Name = ZINC06410226
REMARK  8 active torsions:
REMARK  status: ('A' for Active; 'I' for Inactive)
REMARK    1  A    between atoms: C_1  and  C_2
REMARK    2  A    between atoms: C_7  and  C_15
REMARK    3  A    between atoms: C_13  and  C_14
REMARK    4  A    between atoms: C_15  and  N_16
REMARK    5  A    between atoms: N_16  and  C_17
REMARK    6  A    between atoms: N_16  and  S_25
REMARK    7  A    between atoms: C_17  and  C_18
REMARK    8  A    between atoms: S_25  and  C_28
REMARK                            x       y       z     vdW  Elec       q    Type
REMARK                         _______ _______ _______ _____ _____    ______ ____
ROOT
ATOM      1  N   UNL     1      -0.771   1.414  -1.197  0.00  0.00    -0.168 NA
ENDROOT
BRANCH   1   2
ATOM      2  S   UNL     1      -0.547   2.725  -2.183  0.00  0.00    +0.064 S 
ATOM      3  O   UNL     1      -1.790   2.966  -2.828  0.00  0.00    -0.153 OA
ATOM      4  O   UNL     1       0.110   3.714  -1.402  0.00  0.00    -0.153 OA
BRANCH   2   5
ATOM      5  C   UNL     1       0.588   2.243  -3.442  0.00  0.00    +0.134 A 
ATOM      6  C   UNL     1       0.184   2.190  -4.734  0.00  0.00    +0.031 A 
ATOM      7  C   UNL     1       1.055   1.813  -5.756  0.00  0.00    +0.004 A 
ATOM      8  C   UNL     1       2.343   1.481  -5.503  0.00  0.00    +0.031 A 
ATOM      9  C   UNL     1       2.836   1.513  -4.172  0.00  0.00    +0.102 A 
ATOM     10  C   UNL     1       1.926   1.914  -3.103  0.00  0.00    +0.126 A 
ATOM     11  N   UNL     1       2.520   1.906  -1.911  0.00  0.00    -0.189 NA
ATOM     12  S   UNL     1       4.001   1.460  -2.163  0.00  0.00    +0.117 S 
ATOM     13  N   UNL     1       4.053   1.228  -3.712  0.00  0.00    -0.191 NA
ENDBRANCH   2   5
ENDBRANCH   1   2
BRANCH   1  14
ATOM     14  C   UNL     1      -1.746   0.383  -1.559  0.00  0.00    +0.150 C 
BRANCH  14  21
ATOM     15  C   UNL     1       1.871  -6.708  -2.065  0.00  0.00    +0.044 C 
ATOM     16  C   UNL     1       1.145  -5.426  -1.747  0.00  0.00    -0.046 A 
ATOM     17  C   UNL     1       0.642  -5.220  -0.470  0.00  0.00    +0.004 A 
ATOM     18  C   UNL     1      -0.019  -4.066  -0.161  0.00  0.00    +0.010 A 
ATOM     19  C   UNL     1      -0.189  -3.081  -1.139  0.00  0.00    -0.001 A 
ATOM     20  C   UNL     1      -0.888  -1.829  -0.841  0.00  0.00    +0.020 A 
ATOM     21  C   UNL     1      -1.029  -0.914  -1.831  0.00  0.00    +0.033 A 
ATOM     22  C   UNL     1      -0.500  -1.169  -3.115  0.00  0.00    +0.254 A 
ATOM     23  O   UNL     1      -0.634  -0.331  -3.990  0.00  0.00    -0.268 OA
ATOM     24  N   UNL     1       0.147  -2.313  -3.397  0.00  0.00    -0.322 N 
ATOM     25  H   UNL     1       0.498  -2.456  -4.290  0.00  0.00    +0.169 HD
ATOM     26  C   UNL     1       0.319  -3.286  -2.436  0.00  0.00    +0.052 A 
ATOM     27  C   UNL     1       0.988  -4.470  -2.727  0.00  0.00    -0.024 A 
ATOM     28  C   UNL     1       1.539  -4.707  -4.110  0.00  0.00    +0.046 C 
ENDBRANCH  14  21
ENDBRANCH   1  14
BRANCH   1  29
ATOM     29  C   UNL     1       0.007   1.285   0.038  0.00  0.00    +0.145 C 
BRANCH  29  30
ATOM     30  C   UNL     1      -0.818   1.766   1.204  0.00  0.00    -0.031 A 
ATOM     31  C   UNL     1      -0.681   3.064   1.659  0.00  0.00    +0.008 A 
ATOM     32  C   UNL     1      -1.441   3.506   2.725  0.00  0.00    +0.038 A 
ATOM     33  C   UNL     1      -2.333   2.646   3.344  0.00  0.00    +0.123 A 
ATOM     34  C   UNL     1      -2.465   1.345   2.890  0.00  0.00    +0.038 A 
ATOM     35  C   UNL     1      -1.708   0.906   1.821  0.00  0.00    +0.008 A 
ATOM     36  F   UNL     1      -3.073   3.077   4.389  0.00  0.00    -0.205 F 
ENDBRANCH  29  30
ENDBRANCH   1  29
TORSDOF 6
