REMARK  Name = ZINC40679574
REMARK  7 active torsions:
REMARK  status: ('A' for Active; 'I' for Inactive)
REMARK    1  A    between atoms: C_1  and  C_2
REMARK    2  A    between atoms: C_2  and  N_3
REMARK    3  A    between atoms: N_3  and  C_4
REMARK    4  A    between atoms: C_11  and  N_28
REMARK    5  A    between atoms: C_12  and  N_16
REMARK    6  A    between atoms: N_16  and  C_17
REMARK    7  A    between atoms: C_24  and  C_27
REMARK                            x       y       z     vdW  Elec       q    Type
REMARK                         _______ _______ _______ _____ _____    ______ ____
ROOT
ATOM      1  N   UNL     1       0.790  -0.376   0.866  0.00  0.00    -0.284 N 
ATOM      2  C   UNL     1       2.117  -0.787   0.808  0.00  0.00    +0.151 A 
ATOM      3  C   UNL     1       2.722  -1.388   1.914  0.00  0.00    +0.104 A 
ATOM      4  C   UNL     1       4.056  -1.782   1.802  0.00  0.00    +0.126 A 
ATOM      5  N   UNL     1       4.696  -1.572   0.654  0.00  0.00    -0.333 N 
ATOM      6  C   UNL     1       4.088  -1.001  -0.366  0.00  0.00    +0.200 A 
ATOM      7  N   UNL     1       2.828  -0.620  -0.304  0.00  0.00    -0.220 NA
ATOM      8  H   UNL     1       5.624  -1.842   0.567  0.00  0.00    +0.168 HD
ENDROOT
BRANCH   1   9
ATOM      9  C   UNL     1       0.482   0.948   1.191  0.00  0.00    +0.035 A 
ATOM     10  C   UNL     1      -0.834   1.389   1.141  0.00  0.00    +0.023 A 
ATOM     11  C   UNL     1      -1.135   2.698   1.463  0.00  0.00    +0.002 A 
ATOM     12  C   UNL     1      -0.127   3.569   1.836  0.00  0.00    +0.000 A 
ATOM     13  C   UNL     1       1.184   3.133   1.887  0.00  0.00    +0.002 A 
ATOM     14  C   UNL     1       1.491   1.824   1.571  0.00  0.00    +0.023 A 
ENDBRANCH   1   9
BRANCH   3  15
ATOM     15  N   UNL     1       2.008  -1.590   3.105  0.00  0.00    -0.353 N 
ATOM     16  H   UNL     1       1.062  -1.378   3.146  0.00  0.00    +0.143 HD
ATOM     17  H   UNL     1       2.461  -1.940   3.888  0.00  0.00    +0.143 HD
ENDBRANCH   3  15
BRANCH   1  19
ATOM     18  C   UNL     1      -0.611  -1.308  -0.909  0.00  0.00    +0.025 C 
ATOM     19  C   UNL     1      -0.286  -1.330   0.586  0.00  0.00    +0.109 C 
ENDBRANCH   1  19
BRANCH   4  20
ATOM     20  N   UNL     1       4.707  -2.384   2.873  0.00  0.00    -0.298 N 
ATOM     21  H   UNL     1       4.256  -2.471   3.727  0.00  0.00    +0.154 HD
BRANCH  20  22
ATOM     22  C   UNL     1       6.008  -2.864   2.718  0.00  0.00    +0.059 A 
ATOM     23  C   UNL     1       6.242  -4.219   2.626  0.00  0.00    +0.025 A 
ATOM     24  C   UNL     1       7.535  -4.710   2.472  0.00  0.00    +0.003 A 
ATOM     25  C   UNL     1       8.602  -3.866   2.407  0.00  0.00    +0.010 A 
ATOM     26  C   UNL     1       8.405  -2.479   2.497  0.00  0.00    +0.002 A 
ATOM     27  C   UNL     1       7.094  -1.964   2.649  0.00  0.00    +0.092 A 
ATOM     28  N   UNL     1       6.902  -0.645   2.730  0.00  0.00    -0.250 NA
ATOM     29  C   UNL     1       7.907   0.195   2.666  0.00  0.00    +0.039 A 
ATOM     30  C   UNL     1       9.220  -0.243   2.512  0.00  0.00    +0.023 A 
ATOM     31  C   UNL     1       9.487  -1.581   2.434  0.00  0.00    +0.012 A 
ATOM     32  C   UNL     1       7.634   1.674   2.762  0.00  0.00    +0.065 C 
ENDBRANCH  20  22
ENDBRANCH   4  20
TORSDOF 5
