REMARK  Name = ZINC06747701
REMARK  7 active torsions:
REMARK  status: ('A' for Active; 'I' for Inactive)
REMARK    1  A    between atoms: C_1  and  C_2
REMARK    2  A    between atoms: C_2  and  C_3
REMARK    3  A    between atoms: C_2  and  C_4
REMARK    4  A    between atoms: C_2  and  O_5
REMARK    5  A    between atoms: O_5  and  C_6
REMARK    6  A    between atoms: C_15  and  N_59
REMARK    7  A    between atoms: C_21  and  C_24
REMARK                            x       y       z     vdW  Elec       q    Type
REMARK                         _______ _______ _______ _____ _____    ______ ____
ROOT
ATOM      1  C   UNL     1       0.765  -0.541   0.727  0.00  0.00    +0.403 C 
ATOM      2  O   UNL     1       1.355   0.172   1.515  0.00  0.00    -0.226 OA
ATOM      3  N   UNL     1       0.813  -1.881   0.865  0.00  0.00    -0.267 N 
ATOM      4  C   UNL     1       0.100  -2.756  -0.076  0.00  0.00    +0.114 C 
ATOM      5  C   UNL     1       1.099  -3.771  -0.651  0.00  0.00    +0.054 C 
ATOM      6  C   UNL     1       1.792  -4.505   0.497  0.00  0.00    +0.071 C 
ATOM      7  C   UNL     1       2.556  -3.511   1.373  0.00  0.00    +0.054 C 
ATOM      8  C   UNL     1       1.574  -2.494   1.962  0.00  0.00    +0.114 C 
ATOM      9  C   UNL     1       2.777  -5.543  -0.078  0.00  0.00    +0.022 C 
ATOM     10  C   UNL     1       1.952  -6.857   0.002  0.00  0.00    -0.040 C 
ATOM     11  C   UNL     1       1.132  -6.612   1.294  0.00  0.00    +0.145 C 
ATOM     12  O   UNL     1       0.826  -5.208   1.283  0.00  0.00    -0.375 OA
ENDROOT
BRANCH  10  18
ATOM     13  C   UNL     1       2.051  -9.242   0.407  0.00  0.00    -0.078 C 
ATOM     14  C   UNL     1       3.001 -10.407   0.695  0.00  0.00    -0.006 C 
ATOM     15  C   UNL     1       3.920 -10.618  -0.511  0.00  0.00    +0.071 C 
ATOM     16  C   UNL     1       4.686  -9.322  -0.793  0.00  0.00    -0.006 C 
ATOM     17  C   UNL     1       3.687  -8.188  -1.037  0.00  0.00    -0.078 C 
ATOM     18  N   UNL     1       2.848  -8.020   0.169  0.00  0.00    +0.383 N 
ATOM     19  H   UNL     1       3.458  -7.857   0.979  0.00  0.00    -0.081 HD
BRANCH  15  20
ATOM     20  C   UNL     1       4.898 -11.725  -0.213  0.00  0.00    +0.213 C 
ATOM     21  O   UNL     1       6.090 -11.501  -0.224  0.00  0.00    -0.276 OA
ATOM     22  N   UNL     1       4.448 -12.965   0.067  0.00  0.00    -0.329 N 
ATOM     23  H   UNL     1       3.495 -13.144   0.076  0.00  0.00    +0.145 HD
ATOM     24  H   UNL     1       5.077 -13.677   0.259  0.00  0.00    +0.145 HD
ENDBRANCH  15  20
ENDBRANCH  10  18
BRANCH   1  25
ATOM     25  O   UNL     1       0.064   0.007  -0.283  0.00  0.00    -0.445 OA
BRANCH  25  27
ATOM     26  C   UNL     1       1.489   1.965  -0.540  0.00  0.00    +0.055 C 
ATOM     27  C   UNL     1       0.056   1.457  -0.369  0.00  0.00    +0.107 C 
ATOM     28  C   UNL     1      -0.786   1.891  -1.570  0.00  0.00    +0.055 C 
ATOM     29  C   UNL     1      -0.543   2.041   0.912  0.00  0.00    +0.055 C 
ENDBRANCH  25  27
ENDBRANCH   1  25
TORSDOF 4
