REMARK  Name = ZINC05104250
REMARK  10 active torsions:
REMARK  status: ('A' for Active; 'I' for Inactive)
REMARK    1  A    between atoms: C_4  and  C_7
REMARK    2  A    between atoms: C_7  and  O_8
REMARK    3  A    between atoms: O_8  and  C_9
REMARK    4  A    between atoms: C_12  and  C_23
REMARK    5  A    between atoms: C_14  and  O_15
REMARK    6  A    between atoms: O_15  and  C_16
REMARK    7  A    between atoms: C_16  and  C_17
REMARK    8  A    between atoms: C_24  and  C_25
REMARK    9  A    between atoms: C_24  and  N_28
REMARK   10  A    between atoms: C_29  and  C_31
REMARK                            x       y       z     vdW  Elec       q    Type
REMARK                         _______ _______ _______ _____ _____    ______ ____
ROOT
ATOM      1  C   UNL     1       8.021  -0.965  -3.353  0.00  0.00    +0.162 A 
ATOM      2  C   UNL     1       8.918  -2.018  -3.234  0.00  0.00    +0.050 A 
ATOM      3  C   UNL     1       9.062  -2.672  -2.029  0.00  0.00    +0.012 A 
ATOM      4  C   UNL     1       8.307  -2.271  -0.921  0.00  0.00    -0.019 A 
ATOM      5  C   UNL     1       7.408  -1.206  -1.041  0.00  0.00    +0.057 A 
ATOM      6  C   UNL     1       7.270  -0.556  -2.252  0.00  0.00    +0.163 A 
ENDROOT
BRANCH   4   7
ATOM      7  C   UNL     1       8.459  -2.966   0.365  0.00  0.00    +0.036 C 
ATOM      8  C   UNL     1       8.728  -4.293   0.389  0.00  0.00    +0.096 C 
BRANCH   8   9
ATOM      9  C   UNL     1       8.721  -5.067  -0.859  0.00  0.00    +0.256 C 
ATOM     10  O   UNL     1       9.771  -5.430  -1.356  0.00  0.00    -0.269 OA
ATOM     11  N   UNL     1       7.552  -5.376  -1.454  0.00  0.00    -0.324 N 
ATOM     12  H   UNL     1       6.720  -5.026  -1.099  0.00  0.00    +0.145 HD
ATOM     13  H   UNL     1       7.543  -5.948  -2.237  0.00  0.00    +0.145 HD
ENDBRANCH   8   9
BRANCH   8  14
ATOM     14  N   UNL     1       9.013  -4.927   1.604  0.00  0.00    -0.277 N 
ATOM     15  C   UNL     1       9.237  -6.255   1.634  0.00  0.00    +0.248 C 
ATOM     16  O   UNL     1       9.286  -6.888   0.597  0.00  0.00    -0.270 OA
ATOM     17  H   UNL     1       9.048  -4.410   2.424  0.00  0.00    +0.155 HD
BRANCH  15  18
ATOM     18  C   UNL     1       9.424  -6.944   2.929  0.00  0.00    +0.037 A 
ATOM     19  C   UNL     1       9.375  -6.220   4.121  0.00  0.00    +0.013 A 
ATOM     20  C   UNL     1       9.546  -6.869   5.327  0.00  0.00    +0.001 A 
ATOM     21  C   UNL     1       9.776  -8.233   5.354  0.00  0.00    +0.000 A 
ATOM     22  C   UNL     1       9.832  -8.956   4.176  0.00  0.00    +0.001 A 
ATOM     23  C   UNL     1       9.657  -8.320   2.964  0.00  0.00    +0.013 A 
ENDBRANCH  15  18
ENDBRANCH   8  14
ENDBRANCH   4   7
BRANCH   1  24
ATOM     24  O   UNL     1       7.880  -0.328  -4.545  0.00  0.00    -0.484 OA
BRANCH  24  25
ATOM     25  C   UNL     1       8.681  -0.798  -5.631  0.00  0.00    +0.264 C 
BRANCH  25  29
ATOM     26  C   UNL     1       7.857   1.529  -9.118  0.00  0.00    +0.000 A 
ATOM     27  C   UNL     1       8.857   1.919  -8.246  0.00  0.00    +0.000 A 
ATOM     28  C   UNL     1       9.123   1.166  -7.118  0.00  0.00    +0.007 A 
ATOM     29  C   UNL     1       8.390   0.023  -6.861  0.00  0.00    -0.010 A 
ATOM     30  C   UNL     1       7.394  -0.370  -7.735  0.00  0.00    +0.007 A 
ATOM     31  C   UNL     1       7.124   0.385  -8.861  0.00  0.00    +0.000 A 
ENDBRANCH  25  29
ENDBRANCH  24  25
ENDBRANCH   1  24
BRANCH   6  32
ATOM     32  O   UNL     1       6.396   0.479  -2.373  0.00  0.00    -0.484 OA
BRANCH  32  33
ATOM     33  C   UNL     1       5.654   0.841  -1.206  0.00  0.00    +0.264 C 
BRANCH  33  34
ATOM     34  C   UNL     1       4.745   1.999  -1.528  0.00  0.00    -0.010 A 
ATOM     35  C   UNL     1       3.463   1.764  -1.989  0.00  0.00    +0.007 A 
ATOM     36  C   UNL     1       2.629   2.826  -2.284  0.00  0.00    +0.000 A 
ATOM     37  C   UNL     1       3.077   4.123  -2.119  0.00  0.00    +0.000 A 
ATOM     38  C   UNL     1       4.359   4.358  -1.659  0.00  0.00    +0.000 A 
ATOM     39  C   UNL     1       5.193   3.296  -1.363  0.00  0.00    +0.007 A 
ENDBRANCH  33  34
ENDBRANCH  32  33
ENDBRANCH   6  32
TORSDOF 10
