REMARK  Name = ZINC00326387
REMARK  9 active torsions:
REMARK  status: ('A' for Active; 'I' for Inactive)
REMARK    1  A    between atoms: C_1  and  C_2
REMARK    2  A    between atoms: C_5  and  C_8
REMARK    3  A    between atoms: C_14  and  C_16
REMARK    4  A    between atoms: C_16  and  C_18
REMARK    5  A    between atoms: C_16  and  N_19
REMARK    6  A    between atoms: C_20  and  C_22
REMARK    7  A    between atoms: C_22  and  C_23
REMARK    8  A    between atoms: C_22  and  C_24
REMARK    9  A    between atoms: C_22  and  C_25
REMARK                            x       y       z     vdW  Elec       q    Type
REMARK                         _______ _______ _______ _____ _____    ______ ____
ROOT
ATOM      1  C   UNL     1       2.478   1.075  -0.015  0.00  0.00    +0.134 A 
ATOM      2  N   UNL     1       2.730  -0.228  -0.018  0.00  0.00    -0.140 NA
ATOM      3  N   UNL     1       3.920  -0.649  -0.037  0.00  0.00    -0.125 NA
ATOM      4  C   UNL     1       4.954   0.177  -0.043  0.00  0.00    +0.188 A 
ATOM      5  S   UNL     1       4.148   1.718  -0.028  0.00  0.00    -0.030 S 
ATOM      6  N   UNL     1       6.314  -0.109  -0.056  0.00  0.00    -0.262 N 
ATOM      7  C   UNL     1       6.733  -1.390  -0.066  0.00  0.00    +0.239 C 
ATOM      8  O   UNL     1       5.923  -2.293  -0.063  0.00  0.00    -0.273 OA
ATOM      9  H   UNL     1       6.962   0.613  -0.058  0.00  0.00    +0.157 HD
ENDROOT
BRANCH   1  14
ATOM     10  C   UNL     1      -2.554   3.865   0.047  0.00  0.00    +0.044 C 
ATOM     11  C   UNL     1      -1.236   3.134   0.031  0.00  0.00    -0.050 A 
ATOM     12  C   UNL     1      -1.216   1.751   0.017  0.00  0.00    +0.004 A 
ATOM     13  C   UNL     1      -0.013   1.076   0.008  0.00  0.00    +0.011 A 
ATOM     14  C   UNL     1       1.186   1.792   0.000  0.00  0.00    +0.009 A 
ATOM     15  C   UNL     1       1.158   3.187   0.008  0.00  0.00    +0.011 A 
ATOM     16  C   UNL     1      -0.052   3.850   0.023  0.00  0.00    +0.004 A 
ENDBRANCH   1  14
BRANCH   7  17
ATOM     17  C   UNL     1       8.208  -1.700  -0.081  0.00  0.00    +0.156 C 
ATOM     18  C   UNL     1       8.844  -1.093  -1.333  0.00  0.00    +0.038 C 
BRANCH  17  19
ATOM     19  N   UNL     1       8.401  -3.152  -0.089  0.00  0.00    -0.304 N 
ATOM     20  C   UNL     1       9.543  -3.683   0.391  0.00  0.00    +0.219 C 
ATOM     21  O   UNL     1      10.411  -2.958   0.831  0.00  0.00    -0.275 OA
ATOM     22  H   UNL     1       7.707  -3.732  -0.441  0.00  0.00    +0.149 HD
BRANCH  20  23
ATOM     23  C   UNL     1       9.742  -5.176   0.382  0.00  0.00    +0.039 C 
ATOM     24  C   UNL     1      11.111  -5.512   0.978  0.00  0.00    +0.020 C 
ATOM     25  C   UNL     1       8.646  -5.842   1.216  0.00  0.00    +0.020 C 
ATOM     26  C   UNL     1       9.672  -5.692  -1.057  0.00  0.00    +0.020 C 
ENDBRANCH  20  23
ENDBRANCH  17  19
ENDBRANCH   7  17
TORSDOF 4
