REMARK  Name = ZINC12909316
REMARK  8 active torsions:
REMARK  status: ('A' for Active; 'I' for Inactive)
REMARK    1  A    between atoms: C_1  and  C_2
REMARK    2  A    between atoms: C_6  and  C_8
REMARK    3  A    between atoms: N_13  and  C_14
REMARK    4  A    between atoms: C_14  and  C_15
REMARK    5  A    between atoms: C_20  and  C_23
REMARK    6  A    between atoms: C_24  and  C_31
REMARK    7  A    between atoms: C_26  and  C_30
REMARK    8  A    between atoms: C_28  and  C_29
REMARK                            x       y       z     vdW  Elec       q    Type
REMARK                         _______ _______ _______ _____ _____    ______ ____
ROOT
ATOM      1  C   UNL     1       2.073  -5.328   1.442  0.00  0.00    +0.239 C 
ATOM      2  O   UNL     1       2.839  -4.888   2.274  0.00  0.00    -0.273 OA
ATOM      3  N   UNL     1       2.536  -6.114   0.450  0.00  0.00    -0.263 N 
ATOM      4  C   UNL     1       3.889  -6.420   0.379  0.00  0.00    +0.165 A 
ATOM      5  N   UNL     1       4.534  -7.157  -0.506  0.00  0.00    -0.225 NA
ATOM      6  C   UNL     1       5.842  -7.346  -0.422  0.00  0.00    +0.081 A 
ATOM      7  C   UNL     1       6.539  -6.765   0.601  0.00  0.00    +0.076 A 
ATOM      8  S   UNL     1       5.221  -5.912   1.457  0.00  0.00    -0.060 S 
ATOM      9  H   UNL     1       1.924  -6.466  -0.215  0.00  0.00    +0.157 HD
ENDROOT
BRANCH   6  10
ATOM     10  C   UNL     1       6.545  -8.179  -1.427  0.00  0.00    +0.007 A 
ATOM     11  C   UNL     1       6.080  -9.460  -1.722  0.00  0.00    -0.041 A 
ATOM     12  C   UNL     1       6.738 -10.231  -2.659  0.00  0.00    +0.007 A 
ATOM     13  C   UNL     1       7.856  -9.735  -3.305  0.00  0.00    -0.050 A 
ATOM     14  C   UNL     1       8.322  -8.465  -3.016  0.00  0.00    +0.007 A 
ATOM     15  C   UNL     1       7.669  -7.682  -2.086  0.00  0.00    -0.041 A 
ATOM     16  C   UNL     1       8.174  -6.296  -1.777  0.00  0.00    +0.044 C 
ATOM     17  C   UNL     1       8.570 -10.582  -4.326  0.00  0.00    +0.044 C 
ATOM     18  C   UNL     1       4.862 -10.001  -1.019  0.00  0.00    +0.044 C 
ENDBRANCH   6  10
BRANCH   1  19
ATOM     19  C   UNL     1       0.605  -4.997   1.519  0.00  0.00    +0.221 C 
BRANCH  19  25
ATOM     20  C   UNL     1       0.344  -2.759   2.703  0.00  0.00    +0.165 A 
ATOM     21  N   UNL     1       0.081  -2.399   3.937  0.00  0.00    -0.128 NA
ATOM     22  N   UNL     1      -0.064  -3.440   4.676  0.00  0.00    -0.121 NA
ATOM     23  C   UNL     1       0.099  -4.529   3.959  0.00  0.00    +0.203 A 
ATOM     24  S   UNL     1      -0.006  -6.189   4.541  0.00  0.00    -0.009 SA
ATOM     25  N   UNL     1       0.359  -4.135   2.678  0.00  0.00    -0.293 N 
BRANCH  20  31
ATOM     26  C   UNL     1      -0.073   1.747   0.600  0.00  0.00    +0.044 C 
ATOM     27  C   UNL     1       0.377   0.310   0.538  0.00  0.00    -0.050 A 
ATOM     28  C   UNL     1       1.010  -0.168  -0.597  0.00  0.00    +0.003 A 
ATOM     29  C   UNL     1       1.426  -1.485  -0.661  0.00  0.00    +0.001 A 
ATOM     30  C   UNL     1       1.213  -2.333   0.407  0.00  0.00    +0.011 A 
ATOM     31  C   UNL     1       0.576  -1.857   1.554  0.00  0.00    +0.020 A 
ATOM     32  C   UNL     1       0.163  -0.525   1.615  0.00  0.00    +0.015 A 
ENDBRANCH  20  31
ENDBRANCH  19  25
ENDBRANCH   1  19
TORSDOF 4
