REMARK  Name = ZINC12890161
REMARK  9 active torsions:
REMARK  status: ('A' for Active; 'I' for Inactive)
REMARK    1  A    between atoms: C_1  and  C_2
REMARK    2  A    between atoms: C_9  and  C_18
REMARK    3  A    between atoms: C_12  and  C_14
REMARK    4  A    between atoms: C_14  and  C_15
REMARK    5  A    between atoms: C_15  and  C_16
REMARK    6  A    between atoms: C_15  and  C_17
REMARK    7  A    between atoms: N_20  and  C_21
REMARK    8  A    between atoms: C_26  and  O_27
REMARK    9  A    between atoms: O_27  and  C_28
REMARK                            x       y       z     vdW  Elec       q    Type
REMARK                         _______ _______ _______ _____ _____    ______ ____
ROOT
ATOM      1  C   UNL     1       2.967   4.066  -3.730  0.00  0.00    +0.044 C 
ATOM      2  C   UNL     1       1.839   3.073  -3.615  0.00  0.00    -0.050 A 
ATOM      3  C   UNL     1       1.490   2.293  -4.703  0.00  0.00    +0.005 A 
ATOM      4  C   UNL     1       0.458   1.383  -4.604  0.00  0.00    +0.024 A 
ATOM      5  C   UNL     1      -0.240   1.242  -3.406  0.00  0.00    +0.036 A 
ATOM      6  C   UNL     1       0.122   2.031  -2.320  0.00  0.00    -0.027 A 
ATOM      7  C   UNL     1       1.152   2.939  -2.422  0.00  0.00    +0.008 A 
ATOM      8  C   UNL     1      -0.805   1.645  -1.199  0.00  0.00    +0.049 C 
ATOM      9  C   UNL     1      -0.015   1.089  -0.004  0.00  0.00    +0.076 C 
ATOM     10  C   UNL     1      -0.816   1.614   1.219  0.00  0.00    -0.004 C 
ATOM     11  C   UNL     1      -1.293   2.998   0.712  0.00  0.00    -0.069 C 
ATOM     12  C   UNL     1      -1.696   0.581  -1.787  0.00  0.00    +0.211 C 
ATOM     13  O   UNL     1      -2.594  -0.006  -1.220  0.00  0.00    -0.277 OA
ATOM     14  N   UNL     1      -1.304   0.406  -3.063  0.00  0.00    -0.286 N 
ATOM     15  H   UNL     1      -1.714  -0.227  -3.673  0.00  0.00    +0.155 HD
ATOM     16  N   UNL     1      -1.585   2.789  -0.720  0.00  0.00    +0.394 N 
ATOM     17  H   UNL     1      -2.587   2.601  -0.844  0.00  0.00    -0.083 HD
ATOM     18  H   UNL     1      -1.326   3.629  -1.250  0.00  0.00    -0.083 HD
ENDROOT
BRANCH   9  19
ATOM     19  C   UNL     1       1.391   1.633   0.005  0.00  0.00    +0.220 C 
ATOM     20  O   UNL     1       1.605   2.752   0.422  0.00  0.00    -0.275 OA
ATOM     21  N   UNL     1       2.409   0.877  -0.450  0.00  0.00    -0.282 N 
ATOM     22  H   UNL     1       2.231   0.006  -0.838  0.00  0.00    +0.155 HD
BRANCH  21  23
ATOM     23  C   UNL     1       3.726   1.348  -0.362  0.00  0.00    +0.077 A 
ATOM     24  C   UNL     1       3.974   2.712  -0.323  0.00  0.00    +0.047 A 
ATOM     25  C   UNL     1       5.274   3.175  -0.231  0.00  0.00    +0.043 A 
ATOM     26  C   UNL     1       6.329   2.280  -0.190  0.00  0.00    +0.024 A 
ATOM     27  C   UNL     1       6.088   0.920  -0.235  0.00  0.00    +0.049 A 
ATOM     28  C   UNL     1       4.788   0.449  -0.321  0.00  0.00    +0.141 A 
ATOM     29 CL   UNL     1       5.584   4.883  -0.173  0.00  0.00    -0.083 Cl
BRANCH  28  30
ATOM     30  O   UNL     1       4.550  -0.889  -0.366  0.00  0.00    -0.493 OA
ATOM     31  C   UNL     1       5.688  -1.753  -0.320  0.00  0.00    +0.277 C 
ENDBRANCH  28  30
ENDBRANCH  21  23
ENDBRANCH   9  19
BRANCH  11  32
ATOM     32  C   UNL     1      -2.553   3.434   1.462  0.00  0.00    -0.013 C 
BRANCH  32  33
ATOM     33  C   UNL     1      -2.935   4.853   1.036  0.00  0.00    -0.019 C 
ATOM     34  C   UNL     1      -3.324   4.854  -0.444  0.00  0.00    +0.007 C 
ATOM     35  C   UNL     1      -4.120   5.336   1.875  0.00  0.00    +0.007 C 
ENDBRANCH  32  33
ENDBRANCH  11  32
TORSDOF 5
