REMARK  Name = ZINC35375435
REMARK  8 active torsions:
REMARK  status: ('A' for Active; 'I' for Inactive)
REMARK    1  A    between atoms: C_1  and  C_2
REMARK    2  A    between atoms: C_2  and  C_3
REMARK    3  A    between atoms: C_3  and  C_5
REMARK    4  A    between atoms: C_3  and  N_6
REMARK    5  A    between atoms: C_20  and  C_25
REMARK    6  A    between atoms: C_28  and  C_30
REMARK    7  A    between atoms: C_30  and  C_32
REMARK    8  A    between atoms: C_30  and  O_33
REMARK                            x       y       z     vdW  Elec       q    Type
REMARK                         _______ _______ _______ _____ _____    ______ ____
ROOT
ATOM      1  N   UNL     1      -2.082  -0.162   1.273  0.00  0.00    -0.239 N 
ATOM      2  C   UNL     1      -1.617  -0.547   2.467  0.00  0.00    +0.228 C 
ATOM      3  O   UNL     1      -0.631  -1.230   2.648  0.00  0.00    -0.275 OA
ATOM      4  C   UNL     1      -2.512   0.001   3.555  0.00  0.00    +0.109 C 
ATOM      5  C   UNL     1      -3.592   0.791   2.766  0.00  0.00    +0.123 C 
ATOM      6  C   UNL     1      -3.183   0.596   1.324  0.00  0.00    +0.228 C 
ATOM      7  O   UNL     1      -3.765   1.052   0.363  0.00  0.00    -0.275 OA
ATOM      8  C   UNL     1      -4.903   0.053   3.059  0.00  0.00    +0.136 C 
ATOM      9  C   UNL     1      -5.273  -0.881   1.942  0.00  0.00    +0.004 A 
ATOM     10  C   UNL     1      -4.644  -1.959   1.360  0.00  0.00    +0.009 A 
ATOM     11  C   UNL     1      -5.253  -2.639   0.320  0.00  0.00    +0.021 A 
ATOM     12  C   UNL     1      -6.496  -2.232  -0.134  0.00  0.00    +0.046 A 
ATOM     13  C   UNL     1      -7.130  -1.152   0.447  0.00  0.00    -0.011 A 
ATOM     14  C   UNL     1      -6.523  -0.463   1.494  0.00  0.00    +0.043 A 
ATOM     15  N   UNL     1      -6.955   0.642   2.231  0.00  0.00    -0.283 N 
ATOM     16  C   UNL     1      -6.060   1.008   3.169  0.00  0.00    +0.243 C 
ATOM     17  O   UNL     1      -6.167   1.929   3.951  0.00  0.00    -0.273 OA
ATOM     18  C   UNL     1      -8.483  -0.717  -0.054  0.00  0.00    +0.047 C 
ATOM     19 CL   UNL     1      -7.260  -3.084  -1.438  0.00  0.00    -0.083 Cl
ATOM     20  N   UNL     1      -4.685  -0.676   4.323  0.00  0.00    -0.293 NA
ATOM     21  C   UNL     1      -3.265  -1.167   4.227  0.00  0.00    +0.096 C 
ATOM     22  H   UNL     1      -7.801   1.093   2.084  0.00  0.00    +0.155 HD
ATOM     23  H   UNL     1      -4.805  -0.065   5.117  0.00  0.00    +0.124 HD
ENDROOT
BRANCH   1  24
ATOM     24  C   UNL     1      -1.433  -0.534   0.013  0.00  0.00    +0.081 C 
ATOM     25  C   UNL     1      -1.416  -2.058  -0.121  0.00  0.00    +0.028 C 
BRANCH  24  27
ATOM     26  C   UNL     1      -0.019   1.526   0.010  0.00  0.00    +0.006 C 
ATOM     27  C   UNL     1       0.002  -0.004   0.002  0.00  0.00    +0.019 C 
ENDBRANCH  24  27
ENDBRANCH   1  24
BRANCH  21  28
ATOM     28  C   UNL     1      -2.699  -1.435   5.622  0.00  0.00    +0.129 C 
ATOM     29  C   UNL     1      -3.459  -2.594   6.268  0.00  0.00    +0.039 C 
BRANCH  28  30
ATOM     30  O   UNL     1      -1.314  -1.772   5.518  0.00  0.00    -0.390 OA
ATOM     31  H   UNL     1      -1.141  -2.560   4.984  0.00  0.00    +0.210 HD
ENDBRANCH  28  30
ENDBRANCH  21  28
TORSDOF 4
