REMARK  Name = ZINC38815283
REMARK  3 active torsions:
REMARK  status: ('A' for Active; 'I' for Inactive)
REMARK    1  A    between atoms: C_3  and  C_8
REMARK    2  A    between atoms: C_8  and  S_10
REMARK    3  A    between atoms: S_10  and  C_11
REMARK                            x       y       z     vdW  Elec       q    Type
REMARK                         _______ _______ _______ _____ _____    ______ ____
ROOT
ATOM      1  S   UNL     1       5.193   1.299  -0.041  0.00  0.00    -0.045 S 
ENDROOT
BRANCH   1   2
ATOM      2  C   UNL     1       6.437   2.618  -0.046  0.00  0.00    +0.276 C 
ATOM      3  C   UNL     1       7.554   2.215   0.898  0.00  0.00    +0.257 C 
ATOM      4  O   UNL     1       8.180   1.187   0.746  0.00  0.00    -0.272 OA
ATOM      5  N   UNL     1       7.816   3.064   1.921  0.00  0.00    -0.235 N 
ATOM      6  C   UNL     1       7.100   4.192   2.053  0.00  0.00    +0.347 C 
ATOM      7  O   UNL     1       7.363   4.928   2.982  0.00  0.00    -0.249 OA
ATOM      8  N   UNL     1       6.115   4.554   1.226  0.00  0.00    -0.066 NA
ATOM      9  N   UNL     1       5.755   3.889   0.248  0.00  0.00    -0.170 NA
ATOM     10  H   UNL     1       8.519   2.858   2.556  0.00  0.00    +0.159 HD
ENDBRANCH   1   2
BRANCH   1  11
ATOM     11  C   UNL     1       3.657   2.162  -0.022  0.00  0.00    +0.222 C 
ATOM     12  O   UNL     1       3.643   3.378  -0.015  0.00  0.00    -0.280 OA
BRANCH  11  15
ATOM     13  C   UNL     1      -0.017   1.379   0.010  0.00  0.00    +0.002 A 
ATOM     14  C   UNL     1       1.167   2.088   0.002  0.00  0.00    +0.012 A 
ATOM     15  C   UNL     1       2.385   1.408  -0.013  0.00  0.00    +0.029 A 
ATOM     16  C   UNL     1       2.398   0.012  -0.021  0.00  0.00    +0.027 A 
ATOM     17  C   UNL     1       1.207  -0.686  -0.013  0.00  0.00    +0.019 A 
ATOM     18  C   UNL     1       0.002  -0.004   0.002  0.00  0.00    +0.015 A 
ATOM     19 BR   UNL     1       1.221  -2.577  -0.023  0.00  0.00    -0.050 Br
ENDBRANCH  11  15
ENDBRANCH   1  11
TORSDOF 3
