REMARK  Name = ZINC05578298
REMARK  5 active torsions:
REMARK  status: ('A' for Active; 'I' for Inactive)
REMARK    1  A    between atoms: C_1  and  C_2
REMARK    2  A    between atoms: C_5  and  O_9
REMARK    3  A    between atoms: O_9  and  C_10
REMARK    4  A    between atoms: C_10  and  C_11
REMARK    5  A    between atoms: N_13  and  N_14
REMARK                            x       y       z     vdW  Elec       q    Type
REMARK                         _______ _______ _______ _____ _____    ______ ____
ROOT
ATOM      1  C   UNL     1       0.079  -6.266  -1.111  0.00  0.00    +0.270 C 
ATOM      2  O   UNL     1       0.090  -6.736   0.007  0.00  0.00    -0.270 OA
ATOM      3  N   UNL     1       0.084  -7.081  -2.185  0.00  0.00    -0.203 N 
ATOM      4  H   UNL     1       0.074  -6.705  -3.079  0.00  0.00    +0.177 HD
ENDROOT
BRANCH   3   5
ATOM      5  N   UNL     1       0.103  -8.470  -2.009  0.00  0.00    -0.174 NA
ATOM      6  C   UNL     1       0.108  -9.263  -3.054  0.00  0.00    +0.152 C 
ATOM      7  C   UNL     1       0.121 -10.744  -3.062  0.00  0.00    +0.028 A 
ATOM      8  C   UNL     1       0.131 -11.702  -2.054  0.00  0.00    +0.012 A 
ATOM      9  C   UNL     1       0.142 -13.043  -2.384  0.00  0.00    +0.001 A 
ATOM     10  C   UNL     1       0.143 -13.430  -3.713  0.00  0.00    +0.002 A 
ATOM     11  C   UNL     1       0.133 -12.487  -4.721  0.00  0.00    +0.024 A 
ATOM     12  C   UNL     1       0.121 -11.132  -4.408  0.00  0.00    +0.043 A 
ATOM     13  N   UNL     1       0.110  -9.998  -5.213  0.00  0.00    -0.280 N 
ATOM     14  C   UNL     1       0.095  -8.873  -4.478  0.00  0.00    +0.269 C 
ATOM     15  O   UNL     1       0.077  -7.736  -4.910  0.00  0.00    -0.268 OA
ATOM     16  H   UNL     1       0.108 -10.017  -6.183  0.00  0.00    +0.155 HD
ENDBRANCH   3   5
BRANCH   1  17
ATOM     17  C   UNL     1       0.058  -4.771  -1.300  0.00  0.00    +0.326 C 
BRANCH  17  18
ATOM     18  O   UNL     1       0.057  -4.130  -0.022  0.00  0.00    -0.482 OA
BRANCH  18  23
ATOM     19  C   UNL     1      -0.018   1.503   0.010  0.00  0.00    +0.044 C 
ATOM     20  C   UNL     1       0.002  -0.004   0.002  0.00  0.00    -0.049 A 
ATOM     21  C   UNL     1       0.006  -0.688  -1.200  0.00  0.00    +0.007 A 
ATOM     22  C   UNL     1       0.024  -2.069  -1.211  0.00  0.00    +0.047 A 
ATOM     23  C   UNL     1       0.039  -2.771  -0.014  0.00  0.00    +0.135 A 
ATOM     24  C   UNL     1       0.036  -2.083   1.191  0.00  0.00    +0.060 A 
ATOM     25  C   UNL     1       0.023  -0.700   1.196  0.00  0.00    +0.022 A 
ATOM     26 BR   UNL     1       0.056  -3.035   2.825  0.00  0.00    -0.047 Br
ENDBRANCH  18  23
ENDBRANCH  17  18
ENDBRANCH   1  17
TORSDOF 4
