REMARK  Name = ZINC40363023
REMARK  4 active torsions:
REMARK  status: ('A' for Active; 'I' for Inactive)
REMARK    1  A    between atoms: C_1  and  C_2
REMARK    2  A    between atoms: C_8  and  C_17
REMARK    3  A    between atoms: C_10  and  C_12
REMARK    4  A    between atoms: N_19  and  C_20
REMARK                            x       y       z     vdW  Elec       q    Type
REMARK                         _______ _______ _______ _____ _____    ______ ____
ROOT
ATOM      1  C   UNL     1      -0.078   1.502   0.011  0.00  0.00    +0.044 C 
ATOM      2  C   UNL     1      -0.042  -0.005   0.002  0.00  0.00    -0.050 A 
ATOM      3  C   UNL     1      -0.038  -0.686  -1.213  0.00  0.00    +0.005 A 
ATOM      4  C   UNL     1      -0.005  -2.046  -1.256  0.00  0.00    +0.028 A 
ATOM      5  C   UNL     1       0.025  -2.782  -0.056  0.00  0.00    +0.073 A 
ATOM      6  C   UNL     1       0.021  -2.083   1.177  0.00  0.00    +0.013 A 
ATOM      7  C   UNL     1      -0.008  -0.684   1.184  0.00  0.00    +0.014 A 
ATOM      8  C   UNL     1       0.052  -2.853   2.421  0.00  0.00    +0.048 A 
ATOM      9  C   UNL     1       0.085  -4.235   2.315  0.00  0.00    +0.045 A 
ATOM     10  C   UNL     1       0.086  -4.829   1.041  0.00  0.00    +0.107 A 
ATOM     11  N   UNL     1       0.057  -4.115  -0.068  0.00  0.00    -0.244 NA
ENDROOT
BRANCH  10  12
ATOM     12  C   UNL     1       0.120  -6.300   0.941  0.00  0.00    +0.153 A 
ATOM     13  C   UNL     1       0.131  -7.023  -0.213  0.00  0.00    +0.051 A 
ATOM     14  C   UNL     1       0.165  -8.380   0.159  0.00  0.00    +0.042 A 
ATOM     15  C   UNL     1       0.174  -8.420   1.507  0.00  0.00    +0.196 A 
ATOM     16  O   UNL     1       0.152  -7.163   1.976  0.00  0.00    -0.461 OA
ENDBRANCH  10  12
BRANCH   8  17
ATOM     17  C   UNL     1       0.051  -2.183   3.740  0.00  0.00    +0.245 C 
ATOM     18  O   UNL     1       0.127  -0.972   3.807  0.00  0.00    -0.270 OA
ATOM     19  N   UNL     1      -0.035  -2.916   4.868  0.00  0.00    -0.300 N 
ATOM     20  H   UNL     1      -0.096  -3.882   4.815  0.00  0.00    +0.150 HD
BRANCH  19  21
ATOM     21  C   UNL     1      -0.037  -2.252   6.174  0.00  0.00    +0.159 C 
ATOM     22  C   UNL     1      -0.732  -3.146   7.204  0.00  0.00    +0.032 C 
ATOM     23  C   UNL     1      -1.287  -2.317   8.348  0.00  0.00    +0.004 C 
ATOM     24  C   UNL     1      -0.219  -1.659   9.203  0.00  0.00    +0.019 C 
ATOM     25  C   UNL     1       0.533  -0.590   8.408  0.00  0.00    +0.104 C 
ATOM     26  N   UNL     1       1.638  -1.235   7.679  0.00  0.00    -0.314 N 
ATOM     27  C   UNL     1       1.388  -2.011   6.625  0.00  0.00    +0.233 C 
ATOM     28  O   UNL     1       2.307  -2.531   6.027  0.00  0.00    -0.274 OA
ATOM     29  H   UNL     1       2.553  -1.092   7.966  0.00  0.00    +0.149 HD
ENDBRANCH  19  21
ENDBRANCH   8  17
TORSDOF 3
