REMARK  Name = ZINC50080994
REMARK  9 active torsions:
REMARK  status: ('A' for Active; 'I' for Inactive)
REMARK    1  A    between atoms: C_1  and  C_2
REMARK    2  A    between atoms: N_5  and  C_11
REMARK    3  A    between atoms: C_7  and  C_10
REMARK    4  A    between atoms: C_14  and  N_17
REMARK    5  A    between atoms: N_20  and  C_21
REMARK    6  A    between atoms: C_21  and  C_22
REMARK    7  A    between atoms: C_27  and  N_28
REMARK    8  A    between atoms: N_28  and  C_29
REMARK    9  A    between atoms: N_28  and  C_30
REMARK                            x       y       z     vdW  Elec       q    Type
REMARK                         _______ _______ _______ _____ _____    ______ ____
ROOT
ATOM      1  N   UNL     1      -4.219  -5.238  -3.274  0.00  0.00    -0.269 N 
ATOM      2  C   UNL     1      -5.394  -4.865  -3.819  0.00  0.00    +0.304 C 
ATOM      3  O   UNL     1      -5.813  -3.737  -3.645  0.00  0.00    -0.252 OA
ATOM      4  N   UNL     1      -6.103  -5.743  -4.556  0.00  0.00    -0.295 N 
ATOM      5  H   UNL     1      -3.852  -6.115  -3.466  0.00  0.00    +0.156 HD
ATOM      6  H   UNL     1      -5.769  -6.642  -4.694  0.00  0.00    +0.151 HD
ENDROOT
BRANCH   1  10
ATOM      7  C   UNL     1      -2.162  -2.621  -0.760  0.00  0.00    +0.030 A 
ATOM      8  C   UNL     1      -2.862  -2.128  -1.853  0.00  0.00    +0.025 A 
ATOM      9  C   UNL     1      -3.543  -2.994  -2.685  0.00  0.00    +0.025 A 
ATOM     10  C   UNL     1      -3.527  -4.359  -2.429  0.00  0.00    +0.035 A 
ATOM     11  C   UNL     1      -2.828  -4.852  -1.336  0.00  0.00    +0.025 A 
ATOM     12  C   UNL     1      -2.142  -3.987  -0.507  0.00  0.00    +0.025 A 
BRANCH   7  16
ATOM     13  C   UNL     1      -0.460  -1.693   3.728  0.00  0.00    +0.039 C 
ATOM     14  C   UNL     1      -1.267  -1.338   2.478  0.00  0.00    +0.133 C 
ATOM     15  C   UNL     1      -0.821  -2.227   1.311  0.00  0.00    +0.136 C 
ATOM     16  N   UNL     1      -1.472  -1.743   0.084  0.00  0.00    -0.325 N 
ATOM     17  C   UNL     1      -1.377  -0.309  -0.231  0.00  0.00    +0.136 C 
ATOM     18  C   UNL     1      -1.796   0.487   1.011  0.00  0.00    +0.133 C 
ATOM     19  O   UNL     1      -1.043   0.033   2.138  0.00  0.00    -0.371 OA
ATOM     20  C   UNL     1      -1.524   1.975   0.779  0.00  0.00    +0.039 C 
ENDBRANCH   7  16
ENDBRANCH   1  10
BRANCH   4  21
ATOM     21  C   UNL     1      -7.380  -5.337  -5.148  0.00  0.00    +0.144 C 
BRANCH  21  22
ATOM     22  C   UNL     1      -7.967  -6.493  -5.917  0.00  0.00    +0.008 A 
ATOM     23  C   UNL     1      -7.894  -6.526  -7.298  0.00  0.00    +0.010 A 
ATOM     24  C   UNL     1      -8.447  -7.610  -7.965  0.00  0.00    +0.018 A 
ATOM     25  C   UNL     1      -9.051  -8.616  -7.237  0.00  0.00    +0.084 A 
ATOM     26  N   UNL     1      -9.107  -8.558  -5.920  0.00  0.00    -0.349 N 
ATOM     27  C   UNL     1      -8.585  -7.544  -5.247  0.00  0.00    +0.103 A 
ATOM     28  H   UNL     1      -9.537  -9.278  -5.432  0.00  0.00    +0.167 HD
BRANCH  27  29
ATOM     29  N   UNL     1      -8.661  -7.526  -3.859  0.00  0.00    -0.323 N 
ATOM     30  C   UNL     1      -9.846  -6.975  -3.197  0.00  0.00    +0.130 C 
ATOM     31  C   UNL     1      -7.556  -8.059  -3.058  0.00  0.00    +0.130 C 
ENDBRANCH  27  29
ENDBRANCH  21  22
ENDBRANCH   4  21
TORSDOF 5
