REMARK  Name = ZINC12438109
REMARK  8 active torsions:
REMARK  status: ('A' for Active; 'I' for Inactive)
REMARK    1  A    between atoms: N_4  and  C_6
REMARK    2  A    between atoms: C_11  and  C_12
REMARK    3  A    between atoms: C_12  and  N_68
REMARK    4  A    between atoms: C_13  and  C_14
REMARK    5  A    between atoms: C_13  and  N_68
REMARK    6  A    between atoms: C_19  and  N_70
REMARK    7  A    between atoms: C_24  and  C_25
REMARK    8  A    between atoms: C_24  and  N_68
REMARK                            x       y       z     vdW  Elec       q    Type
REMARK                         _______ _______ _______ _____ _____    ______ ____
ROOT
ATOM      1  N   UNL     1      -4.931   3.259  -4.209  0.00  0.00    +0.384 N 
ATOM      2  H   UNL     1      -5.628   3.382  -3.466  0.00  0.00    -0.081 HD
ENDROOT
BRANCH   1   3
ATOM      3  C   UNL     1      -5.590   3.435  -5.520  0.00  0.00    -0.041 C 
BRANCH   3   9
ATOM      4  C   UNL     1      -7.979   3.204  -4.792  0.00  0.00    +0.067 A 
ATOM      5  C   UNL     1      -9.187   2.519  -4.780  0.00  0.00    +0.031 A 
ATOM      6  C   UNL     1      -9.315   1.334  -5.477  0.00  0.00    +0.040 A 
ATOM      7  C   UNL     1      -8.240   0.828  -6.188  0.00  0.00    +0.124 A 
ATOM      8  C   UNL     1      -7.036   1.512  -6.205  0.00  0.00    +0.042 A 
ATOM      9  C   UNL     1      -6.902   2.695  -5.505  0.00  0.00    -0.036 A 
ATOM     10  F   UNL     1      -8.367  -0.332  -6.869  0.00  0.00    -0.205 F 
BRANCH   4  14
ATOM     11  C   UNL     1      -8.285   6.145  -2.835  0.00  0.00    +0.041 A 
ATOM     12  C   UNL     1      -6.956   6.238  -3.262  0.00  0.00    +0.135 A 
ATOM     13  N   UNL     1      -6.690   5.195  -4.006  0.00  0.00    -0.175 NA
ATOM     14  N   UNL     1      -7.846   4.407  -4.085  0.00  0.00    -0.240 N 
ATOM     15  C   UNL     1      -8.811   5.011  -3.354  0.00  0.00    +0.114 A 
ENDBRANCH   4  14
ENDBRANCH   3   9
ENDBRANCH   1   3
BRANCH   1  16
ATOM     16  C   UNL     1      -3.865   4.269  -4.039  0.00  0.00    -0.075 C 
BRANCH  16  17
ATOM     17  C   UNL     1      -2.851   4.176  -5.181  0.00  0.00    -0.031 C 
ATOM     18  C   UNL     1      -1.534   4.827  -4.750  0.00  0.00    -0.017 C 
ATOM     19  C   UNL     1      -0.544   4.784  -5.916  0.00  0.00    -0.078 C 
ATOM     20  C   UNL     1      -2.351   4.865  -7.529  0.00  0.00    -0.078 C 
ATOM     21  C   UNL     1      -3.395   4.910  -6.411  0.00  0.00    -0.017 C 
ATOM     22  N   UNL     1      -1.116   5.528  -7.059  0.00  0.00    +0.382 N 
ATOM     23  H   UNL     1      -1.345   6.481  -6.755  0.00  0.00    -0.081 HD
BRANCH  22  24
ATOM     24  C   UNL     1      -0.132   5.598  -8.159  0.00  0.00    -0.069 C 
ATOM     25  C   UNL     1       1.109   6.384  -7.687  0.00  0.00    -0.015 C 
ATOM     26  C   UNL     1       1.527   7.214  -8.926  0.00  0.00    -0.002 C 
ATOM     27  C   UNL     1       0.165   7.628  -9.536  0.00  0.00    -0.002 C 
ATOM     28  C   UNL     1      -0.732   6.389  -9.334  0.00  0.00    -0.015 C 
ENDBRANCH  22  24
ENDBRANCH  16  17
ENDBRANCH   1  16
BRANCH   1  29
ATOM     29  C   UNL     1      -4.358   1.900  -4.110  0.00  0.00    -0.046 C 
BRANCH  29  30
ATOM     30  C   UNL     1      -4.114   1.577  -2.635  0.00  0.00    +0.102 C 
ATOM     31  C   UNL     1      -3.665   0.110  -2.487  0.00  0.00    +0.032 C 
ATOM     32  C   UNL     1      -2.281   0.205  -1.798  0.00  0.00    +0.030 C 
ATOM     33  C   UNL     1      -2.336   1.612  -1.151  0.00  0.00    +0.160 C 
ATOM     34  O   UNL     1      -3.054   2.402  -2.123  0.00  0.00    -0.378 OA
ENDBRANCH  29  30
ENDBRANCH   1  29
TORSDOF 8
