REMARK  Name = ZINC16923758
REMARK  7 active torsions:
REMARK  status: ('A' for Active; 'I' for Inactive)
REMARK    1  A    between atoms: C_1  and  C_2
REMARK    2  A    between atoms: C_5  and  N_9
REMARK    3  A    between atoms: C_6  and  C_8
REMARK    4  A    between atoms: C_12  and  C_17
REMARK    5  A    between atoms: C_17  and  C_18
REMARK    6  A    between atoms: N_20  and  C_21
REMARK    7  A    between atoms: C_26  and  O_27
REMARK                            x       y       z     vdW  Elec       q    Type
REMARK                         _______ _______ _______ _____ _____    ______ ____
ROOT
ATOM      1  N   UNL     1      -2.443   3.844   0.007  0.00  0.00    -0.200 N 
ATOM      2  C   UNL     1      -3.008   4.161  -1.146  0.00  0.00    +0.241 C 
ATOM      3  O   UNL     1      -2.504   3.884  -2.213  0.00  0.00    -0.274 OA
ATOM      4  C   UNL     1      -4.338   4.895  -1.041  0.00  0.00    +0.151 C 
ATOM      5  S   UNL     1      -4.501   4.990   0.787  0.00  0.00    -0.054 S 
ATOM      6  C   UNL     1      -2.982   4.146   1.203  0.00  0.00    +0.286 C 
ATOM      7  O   UNL     1      -2.539   3.902   2.308  0.00  0.00    -0.262 OA
ENDROOT
BRANCH   1  12
ATOM      8  C   UNL     1       2.517   1.087  -0.093  0.00  0.00    +0.044 C 
ATOM      9  C   UNL     1       1.200   1.819  -0.066  0.00  0.00    -0.050 A 
ATOM     10  C   UNL     1       0.014   1.107  -0.052  0.00  0.00    +0.005 A 
ATOM     11  C   UNL     1      -1.194   1.774  -0.034  0.00  0.00    +0.024 A 
ATOM     12  C   UNL     1      -1.218   3.163  -0.018  0.00  0.00    +0.048 A 
ATOM     13  C   UNL     1      -0.027   3.875  -0.032  0.00  0.00    -0.028 A 
ATOM     14  C   UNL     1       1.179   3.201  -0.056  0.00  0.00    +0.008 A 
ATOM     15  C   UNL     1      -0.049   5.382  -0.021  0.00  0.00    +0.046 C 
ENDBRANCH   1  12
BRANCH   4  16
ATOM     16  C   UNL     1      -5.478   4.084  -1.660  0.00  0.00    +0.120 C 
BRANCH  16  17
ATOM     17  C   UNL     1      -6.779   4.818  -1.467  0.00  0.00    +0.219 C 
ATOM     18  O   UNL     1      -6.794   5.885  -0.890  0.00  0.00    -0.275 OA
ATOM     19  N   UNL     1      -7.927   4.289  -1.935  0.00  0.00    -0.283 N 
ATOM     20  H   UNL     1      -7.908   3.468  -2.452  0.00  0.00    +0.155 HD
BRANCH  19  21
ATOM     21  C   UNL     1      -9.149   4.924  -1.674  0.00  0.00    +0.075 A 
ATOM     22  C   UNL     1      -9.214   6.309  -1.617  0.00  0.00    +0.027 A 
ATOM     23  C   UNL     1     -10.420   6.933  -1.360  0.00  0.00    +0.002 A 
ATOM     24  C   UNL     1     -11.563   6.181  -1.160  0.00  0.00    +0.004 A 
ATOM     25  C   UNL     1     -11.506   4.801  -1.216  0.00  0.00    +0.047 A 
ATOM     26  C   UNL     1     -10.302   4.167  -1.478  0.00  0.00    +0.138 A 
BRANCH  26  27
ATOM     27  O   UNL     1     -10.244   2.810  -1.538  0.00  0.00    -0.505 OA
ATOM     28  H   UNL     1     -10.059   2.386  -0.689  0.00  0.00    +0.292 HD
ENDBRANCH  26  27
ENDBRANCH  19  21
ENDBRANCH  16  17
ENDBRANCH   4  16
TORSDOF 5
