REMARK  Name = ZINC25400784
REMARK  6 active torsions:
REMARK  status: ('A' for Active; 'I' for Inactive)
REMARK    1  A    between atoms: C_1  and  C_2
REMARK    2  A    between atoms: C_8  and  C_14
REMARK    3  A    between atoms: C_11  and  C_13
REMARK    4  A    between atoms: N_22  and  C_23
REMARK    5  A    between atoms: C_23  and  C_24
REMARK    6  A    between atoms: C_23  and  C_25
REMARK                            x       y       z     vdW  Elec       q    Type
REMARK                         _______ _______ _______ _____ _____    ______ ____
ROOT
ATOM      1  C   UNL     1      -0.099   5.345   0.078  0.00  0.00    +0.267 C 
ATOM      2  O   UNL     1       0.968   5.928   0.067  0.00  0.00    -0.267 OA
ATOM      3  N   UNL     1      -0.136   4.004  -0.052  0.00  0.00    -0.269 N 
ATOM      4  C   UNL     1      -1.340   3.360  -0.145  0.00  0.00    +0.096 A 
ATOM      5  C   UNL     1      -1.395   2.021  -0.282  0.00  0.00    +0.018 A 
ATOM      6  C   UNL     1      -0.213   1.258  -0.320  0.00  0.00    +0.005 A 
ATOM      7  C   UNL     1       0.992   1.875  -0.230  0.00  0.00    +0.044 A 
ATOM      8  C   UNL     1       1.041   3.284  -0.092  0.00  0.00    +0.114 A 
ATOM      9  N   UNL     1       2.198   3.901  -0.004  0.00  0.00    -0.368 N 
ATOM     10  H   UNL     1       2.237   5.000  -0.001  0.00  0.00    +0.161 HD
ENDROOT
BRANCH   1  17
ATOM     11  C   UNL     1      -3.430   7.831   3.868  0.00  0.00    +0.016 C 
ATOM     12  C   UNL     1      -3.724   6.609   2.995  0.00  0.00    +0.060 C 
ATOM     13  C   UNL     1      -3.214   6.817   1.582  0.00  0.00    +0.001 A 
ATOM     14  C   UNL     1      -3.707   7.539   0.518  0.00  0.00    +0.007 A 
ATOM     15  C   UNL     1      -3.034   7.550  -0.693  0.00  0.00    +0.001 A 
ATOM     16  C   UNL     1      -1.861   6.842  -0.836  0.00  0.00    +0.017 A 
ATOM     17  C   UNL     1      -1.352   6.105   0.235  0.00  0.00    +0.082 A 
ATOM     18  C   UNL     1      -2.034   6.094   1.466  0.00  0.00    +0.137 A 
ATOM     19  O   UNL     1      -1.721   5.470   2.631  0.00  0.00    -0.487 OA
ATOM     20  C   UNL     1      -2.895   5.387   3.457  0.00  0.00    +0.178 C 
ATOM     21  C   UNL     1      -2.526   5.510   4.936  0.00  0.00    +0.052 C 
ENDBRANCH   1  17
BRANCH   9  22
ATOM     22  C   UNL     1       3.437   3.124   0.090  0.00  0.00    +0.074 C 
ATOM     23  C   UNL     1       4.397   3.558  -1.019  0.00  0.00    +0.030 C 
ATOM     24  C   UNL     1       4.089   3.367   1.453  0.00  0.00    +0.030 C 
ENDBRANCH   9  22
TORSDOF 2
