REMARK  Name = ZINC26511767
REMARK  7 active torsions:
REMARK  status: ('A' for Active; 'I' for Inactive)
REMARK    1  A    between atoms: C_1  and  C_2
REMARK    2  A    between atoms: C_4  and  C_27
REMARK    3  A    between atoms: C_6  and  S_8
REMARK    4  A    between atoms: S_8  and  C_9
REMARK    5  A    between atoms: C_9  and  C_10
REMARK    6  A    between atoms: C_16  and  C_18
REMARK    7  A    between atoms: C_23  and  C_24
REMARK                            x       y       z     vdW  Elec       q    Type
REMARK                         _______ _______ _______ _____ _____    ______ ____
ROOT
ATOM      1  C   UNL     1       7.131   1.218   0.114  0.00  0.00    +0.061 A 
ATOM      2  C   UNL     1       6.942  -0.119  -0.003  0.00  0.00    +0.072 A 
ATOM      3  S   UNL     1       5.158  -0.197  -0.066  0.00  0.00    -0.060 S 
ATOM      4  C   UNL     1       4.852   1.508   0.065  0.00  0.00    +0.165 A 
ATOM      5  N   UNL     1       6.072   2.003   0.140  0.00  0.00    -0.229 NA
ATOM      6  N   UNL     1       3.636   2.178   0.080  0.00  0.00    -0.261 N 
ATOM      7  C   UNL     1       2.484   1.485  -0.014  0.00  0.00    +0.250 C 
ATOM      8  O   UNL     1       2.509   0.274  -0.113  0.00  0.00    -0.270 OA
ATOM      9  H   UNL     1       3.613   3.274   0.170  0.00  0.00    +0.157 HD
ENDROOT
BRANCH   7  10
ATOM     10  C   UNL     1       1.188   2.198   0.003  0.00  0.00    +0.051 A 
ATOM     11  C   UNL     1       1.155   3.590  -0.014  0.00  0.00    +0.014 A 
ATOM     12  C   UNL     1      -0.058   4.252   0.001  0.00  0.00    +0.001 A 
ATOM     13  C   UNL     1      -1.244   3.541   0.033  0.00  0.00    +0.001 A 
ATOM     14  C   UNL     1      -1.231   2.159   0.044  0.00  0.00    +0.016 A 
ATOM     15  C   UNL     1      -0.018   1.474   0.035  0.00  0.00    +0.075 A 
BRANCH  15  16
ATOM     16  C   UNL     1       0.002  -0.004   0.053  0.00  0.00    +0.387 C 
ATOM     17  O   UNL     1       0.625  -0.592   0.913  0.00  0.00    -0.241 OA
ATOM     18  O   UNL     1      -0.672  -0.698  -0.884  0.00  0.00    -0.241 OA
ENDBRANCH  15  16
ENDBRANCH   7  10
BRANCH   1  19
ATOM     19  C   UNL     1       8.521   1.795   0.206  0.00  0.00    +0.133 C 
BRANCH  19  20
ATOM     20  S   UNL     1       9.131   2.166  -1.458  0.00  0.00    -0.080 S 
BRANCH  20  26
ATOM     21  C   UNL     1      12.704   3.426   1.983  0.00  0.00    +0.066 C 
ATOM     22  C   UNL     1      12.287   3.351   0.537  0.00  0.00    +0.043 A 
ATOM     23  C   UNL     1      13.145   3.781  -0.463  0.00  0.00    +0.046 A 
ATOM     24  C   UNL     1      12.723   3.695  -1.781  0.00  0.00    +0.043 A 
ATOM     25  N   UNL     1      11.521   3.209  -2.043  0.00  0.00    -0.227 NA
ATOM     26  C   UNL     1      10.724   2.807  -1.063  0.00  0.00    +0.189 A 
ATOM     27  N   UNL     1      11.096   2.881   0.207  0.00  0.00    -0.227 NA
ATOM     28  C   UNL     1      13.622   4.150  -2.901  0.00  0.00    +0.066 C 
ENDBRANCH  20  26
ENDBRANCH  19  20
ENDBRANCH   1  19
TORSDOF 5
