REMARK  Name = ZINC14019416
REMARK  9 active torsions:
REMARK  status: ('A' for Active; 'I' for Inactive)
REMARK    1  A    between atoms: C_1  and  C_2
REMARK    2  A    between atoms: C_7  and  C_9
REMARK    3  A    between atoms: C_7  and  C_10
REMARK    4  A    between atoms: N_13  and  C_17
REMARK    5  A    between atoms: C_17  and  N_18
REMARK    6  A    between atoms: N_21  and  S_24
REMARK    7  A    between atoms: S_24  and  C_27
REMARK    8  A    between atoms: C_31  and  C_33
REMARK    9  A    between atoms: C_33  and  C_35
REMARK                            x       y       z     vdW  Elec       q    Type
REMARK                         _______ _______ _______ _____ _____    ______ ____
ROOT
ATOM      1  N   UNL     1       0.958  -4.621  -4.539  0.00  0.00    -0.284 NA
ATOM      2  C   UNL     1       2.410  -4.646  -4.320  0.00  0.00    +0.103 C 
ATOM      3  C   UNL     1       2.862  -6.090  -4.076  0.00  0.00    +0.125 C 
ATOM      4  N   UNL     1       2.387  -6.923  -5.191  0.00  0.00    -0.174 NA
ATOM      5  C   UNL     1       0.966  -6.847  -5.560  0.00  0.00    +0.125 C 
ATOM      6  C   UNL     1       0.588  -5.374  -5.746  0.00  0.00    +0.103 C 
ENDROOT
BRANCH   4   7
ATOM      7  S   UNL     1       3.426  -7.919  -6.010  0.00  0.00    +0.061 S 
ATOM      8  O   UNL     1       2.859  -8.129  -7.295  0.00  0.00    -0.153 OA
ATOM      9  O   UNL     1       4.730  -7.382  -5.830  0.00  0.00    -0.153 OA
BRANCH   7  10
ATOM     10  C   UNL     1       3.407  -9.479  -5.190  0.00  0.00    +0.106 A 
ATOM     11  C   UNL     1       4.297  -9.728  -4.159  0.00  0.00    +0.028 A 
ATOM     12  C   UNL     1       4.289 -10.949  -3.509  0.00  0.00    +0.003 A 
ATOM     13  C   UNL     1       3.394 -11.929  -3.884  0.00  0.00    +0.011 A 
ATOM     14  C   UNL     1       2.492 -11.685  -4.924  0.00  0.00    +0.019 A 
ATOM     15  C   UNL     1       2.502 -10.445  -5.572  0.00  0.00    +0.040 A 
BRANCH  14  16
ATOM     16  C   UNL     1       1.534 -12.725  -5.331  0.00  0.00    +0.160 C 
ATOM     17  O   UNL     1       0.753 -12.510  -6.234  0.00  0.00    -0.292 OA
ATOM     18  C   UNL     1       1.523 -14.057  -4.627  0.00  0.00    +0.091 C 
ENDBRANCH  14  16
ENDBRANCH   7  10
ENDBRANCH   4   7
BRANCH   1  19
ATOM     19  C   UNL     1       0.458  -3.241  -4.606  0.00  0.00    +0.205 C 
BRANCH  19  31
ATOM     20  C   UNL     1      -0.061   1.649   0.498  0.00  0.00    +0.007 C 
ATOM     21  C   UNL     1      -0.046   0.132   0.299  0.00  0.00    -0.011 C 
ATOM     22  C   UNL     1       0.612  -0.200  -1.042  0.00  0.00    +0.038 C 
ATOM     23  C   UNL     1       0.646  -1.713  -1.232  0.00  0.00    +0.113 C 
ATOM     24  C   UNL     1       1.417  -2.381  -0.099  0.00  0.00    +0.041 C 
ATOM     25  C   UNL     1       0.756  -2.041   1.240  0.00  0.00    -0.032 C 
ATOM     26  C   UNL     1       0.748  -0.523   1.431  0.00  0.00    +0.009 C 
ATOM     27  C   UNL     1       1.542  -2.695   2.378  0.00  0.00    +0.011 C 
ATOM     28  C   UNL     1      -0.682  -2.564   1.246  0.00  0.00    +0.011 C 
ATOM     29  C   UNL     1       1.261  -2.063  -2.567  0.00  0.00    +0.248 C 
ATOM     30  O   UNL     1       2.385  -1.813  -2.946  0.00  0.00    -0.273 OA
ATOM     31  N   UNL     1       0.296  -2.715  -3.249  0.00  0.00    -0.211 N 
ATOM     32  C   UNL     1      -0.829  -2.819  -2.531  0.00  0.00    +0.310 C 
ATOM     33  O   UNL     1      -1.838  -3.366  -2.931  0.00  0.00    -0.252 OA
ATOM     34  N   UNL     1      -0.717  -2.252  -1.315  0.00  0.00    -0.285 N 
ATOM     35  H   UNL     1      -1.402  -2.208  -0.629  0.00  0.00    +0.151 HD
ENDBRANCH  19  31
ENDBRANCH   1  19
TORSDOF 5
