REMARK  Name = ZINC00485611
REMARK  6 active torsions:
REMARK  status: ('A' for Active; 'I' for Inactive)
REMARK    1  A    between atoms: C_1  and  C_2
REMARK    2  A    between atoms: C_5  and  C_7
REMARK    3  A    between atoms: C_14  and  O_23
REMARK    4  A    between atoms: C_15  and  O_21
REMARK    5  A    between atoms: C_18  and  C_20
REMARK    6  A    between atoms: O_21  and  C_22
REMARK                            x       y       z     vdW  Elec       q    Type
REMARK                         _______ _______ _______ _____ _____    ______ ____
ROOT
ATOM      1  C   UNL     1       3.239  -0.409  -1.109  0.00  0.00    +0.282 C 
ATOM      2  O   UNL     1       3.216  -1.622  -1.211  0.00  0.00    -0.267 OA
ATOM      3  N   UNL     1       2.380   0.213  -0.277  0.00  0.00    -0.288 N 
ATOM      4  C   UNL     1       1.357  -0.537   0.469  0.00  0.00    +0.113 C 
ATOM      5  C   UNL     1      -0.015  -0.077  -0.022  0.00  0.00    +0.054 C 
ATOM      6  C   UNL     1      -0.089   1.426  -0.074  0.00  0.00    -0.037 A 
ATOM      7  C   UNL     1      -1.353   2.006  -0.093  0.00  0.00    +0.053 A 
ATOM      8  C   UNL     1      -1.496   3.380  -0.144  0.00  0.00    +0.159 A 
ATOM      9  C   UNL     1      -0.364   4.190  -0.187  0.00  0.00    +0.162 A 
ATOM     10  C   UNL     1       0.890   3.610  -0.170  0.00  0.00    +0.055 A 
ATOM     11  C   UNL     1       1.029   2.229  -0.109  0.00  0.00    -0.020 A 
ATOM     12  C   UNL     1       2.428   1.665  -0.078  0.00  0.00    +0.104 C 
ATOM     13  C   UNL     1       3.070   1.973   1.276  0.00  0.00    +0.033 C 
ENDROOT
BRANCH   1  18
ATOM     14  C   UNL     1       5.888   3.471  -2.839  0.00  0.00    +0.086 C 
ATOM     15  C   UNL     1       5.363   2.071  -2.655  0.00  0.00    +0.103 A 
ATOM     16  C   UNL     1       5.769   0.981  -3.343  0.00  0.00    +0.045 A 
ATOM     17  C   UNL     1       5.029  -0.111  -2.862  0.00  0.00    +0.055 A 
ATOM     18  C   UNL     1       4.199   0.374  -1.893  0.00  0.00    +0.190 A 
ATOM     19  O   UNL     1       4.413   1.702  -1.785  0.00  0.00    -0.455 OA
ENDBRANCH   1  18
BRANCH   9  20
ATOM     20  O   UNL     1      -0.492   5.542  -0.246  0.00  0.00    -0.491 OA
ATOM     21  C   UNL     1       0.714   6.307  -0.288  0.00  0.00    +0.277 C 
ENDBRANCH   9  20
BRANCH   8  22
ATOM     22  O   UNL     1      -2.736   3.938  -0.156  0.00  0.00    -0.503 OA
ATOM     23  H   UNL     1      -3.102   4.062  -1.043  0.00  0.00    +0.292 HD
ENDBRANCH   8  22
TORSDOF 3
