REMARK  Name = ZINC05332530
REMARK  4 active torsions:
REMARK  status: ('A' for Active; 'I' for Inactive)
REMARK    1  A    between atoms: C_3  and  S_18
REMARK    2  A    between atoms: C_6  and  N_7
REMARK    3  A    between atoms: N_10  and  C_11
REMARK    4  A    between atoms: S_18  and  N_21
REMARK                            x       y       z     vdW  Elec       q    Type
REMARK                         _______ _______ _______ _____ _____    ______ ____
ROOT
ATOM      1  C   UNL     1      -0.203   1.476  -0.607  0.00  0.00    +0.025 A 
ATOM      2  C   UNL     1      -0.265   0.105  -0.765  0.00  0.00    +0.030 A 
ATOM      3  C   UNL     1       0.873  -0.664  -0.604  0.00  0.00    +0.109 A 
ATOM      4  C   UNL     1       2.077  -0.063  -0.285  0.00  0.00    +0.030 A 
ATOM      5  C   UNL     1       2.146   1.307  -0.126  0.00  0.00    +0.025 A 
ATOM      6  C   UNL     1       1.005   2.082  -0.286  0.00  0.00    +0.035 A 
ENDROOT
BRANCH   6   7
ATOM      7  N   UNL     1       1.072   3.470  -0.125  0.00  0.00    -0.269 N 
ATOM      8  C   UNL     1       0.016   4.142   0.375  0.00  0.00    +0.308 C 
ATOM      9  O   UNL     1      -0.958   3.534   0.774  0.00  0.00    -0.252 OA
ATOM     10  N   UNL     1       0.040   5.489   0.433  0.00  0.00    -0.269 N 
ATOM     11  H   UNL     1       1.878   3.949  -0.373  0.00  0.00    +0.156 HD
ATOM     12  H   UNL     1       0.784   5.977   0.047  0.00  0.00    +0.156 HD
BRANCH  10  13
ATOM     13  C   UNL     1      -1.008   6.181   1.051  0.00  0.00    +0.035 A 
ATOM     14  C   UNL     1      -1.386   7.432   0.581  0.00  0.00    +0.025 A 
ATOM     15  C   UNL     1      -2.424   8.111   1.189  0.00  0.00    +0.022 A 
ATOM     16  C   UNL     1      -3.079   7.552   2.272  0.00  0.00    +0.041 A 
ATOM     17  C   UNL     1      -2.700   6.308   2.745  0.00  0.00    +0.022 A 
ATOM     18  C   UNL     1      -1.666   5.622   2.137  0.00  0.00    +0.025 A 
ATOM     19 CL   UNL     1      -4.378   8.411   3.038  0.00  0.00    -0.084 Cl
ENDBRANCH  10  13
ENDBRANCH   6   7
BRANCH   3  20
ATOM     20  S   UNL     1       0.788  -2.412  -0.806  0.00  0.00    +0.074 S 
ATOM     21  O   UNL     1       1.872  -2.959  -0.067  0.00  0.00    -0.150 OA
ATOM     22  O   UNL     1      -0.562  -2.784  -0.566  0.00  0.00    -0.150 OA
BRANCH  20  23
ATOM     23  N   UNL     1       1.092  -2.736  -2.402  0.00  0.00    -0.194 N 
ATOM     24  C   UNL     1       2.337  -2.451  -2.942  0.00  0.00    +0.177 A 
ATOM     25  N   UNL     1       3.394  -1.923  -2.355  0.00  0.00    -0.232 NA
ATOM     26  C   UNL     1       4.515  -1.720  -3.022  0.00  0.00    +0.120 A 
ATOM     27  C   UNL     1       4.556  -2.058  -4.333  0.00  0.00    +0.068 A 
ATOM     28  S   UNL     1       2.902  -2.692  -4.566  0.00  0.00    -0.059 S 
ATOM     29  H   UNL     1       0.399  -3.124  -2.958  0.00  0.00    +0.176 HD
ENDBRANCH  20  23
ENDBRANCH   3  20
TORSDOF 4
