REMARK  Name = ZINC37828753
REMARK  6 active torsions:
REMARK  status: ('A' for Active; 'I' for Inactive)
REMARK    1  A    between atoms: C_1  and  C_2
REMARK    2  A    between atoms: C_2  and  C_4
REMARK    3  A    between atoms: N_9  and  C_12
REMARK    4  A    between atoms: C_12  and  C_13
REMARK    5  A    between atoms: N_15  and  C_16
REMARK    6  A    between atoms: N_15  and  C_17
REMARK                            x       y       z     vdW  Elec       q    Type
REMARK                         _______ _______ _______ _____ _____    ______ ____
ROOT
ATOM      1  C   UNL     1       0.731  -0.503   1.223  0.00  0.00    +0.233 C 
ATOM      2  O   UNL     1       1.826  -0.062   1.498  0.00  0.00    -0.274 OA
ATOM      3  N   UNL     1       0.169  -1.447   2.004  0.00  0.00    -0.298 N 
ATOM      4  C   UNL     1      -1.099  -2.086   1.622  0.00  0.00    +0.123 C 
ATOM      5  C   UNL     1      -0.919  -3.606   1.694  0.00  0.00    +0.104 C 
ATOM      6  N   UNL     1      -0.414  -3.974   3.024  0.00  0.00    -0.291 NA
ATOM      7  C   UNL     1       0.913  -3.394   3.268  0.00  0.00    +0.104 C 
ATOM      8  C   UNL     1       0.812  -1.870   3.258  0.00  0.00    +0.123 C 
ENDROOT
BRANCH   1  10
ATOM      9  C   UNL     1       0.110   1.528  -0.057  0.00  0.00    +0.034 C 
ATOM     10  C   UNL     1      -0.002   0.003   0.008  0.00  0.00    +0.163 C 
ATOM     11 CL   UNL     1       0.725  -0.717  -1.477  0.00  0.00    -0.112 Cl
ENDBRANCH   1  10
BRANCH   6  12
ATOM     12  C   UNL     1      -0.391  -5.433   3.193  0.00  0.00    +0.180 C 
BRANCH  12  13
ATOM     13  C   UNL     1      -0.105  -5.767   4.635  0.00  0.00    +0.229 C 
ATOM     14  O   UNL     1       0.062  -4.877   5.441  0.00  0.00    -0.274 OA
ATOM     15  N   UNL     1      -0.036  -7.055   5.027  0.00  0.00    -0.307 N 
ATOM     16  C   UNL     1       0.241  -7.379   6.428  0.00  0.00    +0.131 C 
ATOM     17  C   UNL     1      -0.238  -8.129   4.052  0.00  0.00    +0.131 C 
ENDBRANCH  12  13
ENDBRANCH   6  12
TORSDOF 3
