REMARK  Name = ZINC20267664
REMARK  7 active torsions:
REMARK  status: ('A' for Active; 'I' for Inactive)
REMARK    1  A    between atoms: C_1  and  C_2
REMARK    2  A    between atoms: C_5  and  N_9
REMARK    3  A    between atoms: C_7  and  C_8
REMARK    4  A    between atoms: C_13  and  N_14
REMARK    5  A    between atoms: N_14  and  C_15
REMARK    6  A    between atoms: C_15  and  C_16
REMARK    7  A    between atoms: C_16  and  N_17
REMARK                            x       y       z     vdW  Elec       q    Type
REMARK                         _______ _______ _______ _____ _____    ______ ____
ROOT
ATOM      1  N   UNL     1       0.043  -4.174  -0.017  0.00  0.00    -0.190 N 
ATOM      2  C   UNL     1      -0.064  -4.827  -1.192  0.00  0.00    +0.265 C 
ATOM      3  O   UNL     1      -0.206  -4.217  -2.236  0.00  0.00    -0.269 OA
ATOM      4  C   UNL     1      -0.004  -6.300  -1.179  0.00  0.00    +0.113 C 
ATOM      5  C   UNL     1      -0.106  -7.037  -2.345  0.00  0.00    +0.085 C 
ATOM      6  C   UNL     1       0.171  -6.952   0.131  0.00  0.00    +0.258 C 
ATOM      7  O   UNL     1       0.230  -8.164   0.222  0.00  0.00    -0.270 OA
ATOM      8  N   UNL     1       0.264  -6.170   1.226  0.00  0.00    -0.235 N 
ATOM      9  C   UNL     1       0.206  -4.833   1.139  0.00  0.00    +0.320 C 
ATOM     10  O   UNL     1       0.302  -4.185   2.162  0.00  0.00    -0.251 OA
ATOM     11  H   UNL     1       0.379  -6.583   2.095  0.00  0.00    +0.159 HD
ENDROOT
BRANCH   1  16
ATOM     12  C   UNL     1      -0.176   1.497   0.031  0.00  0.00    +0.044 C 
ATOM     13  C   UNL     1      -0.118  -0.009   0.018  0.00  0.00    -0.047 A 
ATOM     14  C   UNL     1       1.072  -0.656   0.300  0.00  0.00    +0.005 A 
ATOM     15  C   UNL     1       1.128  -2.036   0.289  0.00  0.00    +0.024 A 
ATOM     16  C   UNL     1      -0.011  -2.774  -0.005  0.00  0.00    +0.046 A 
ATOM     17  C   UNL     1      -1.203  -2.121  -0.287  0.00  0.00    +0.027 A 
ATOM     18  C   UNL     1      -1.255  -0.741  -0.270  0.00  0.00    -0.046 A 
ATOM     19  C   UNL     1      -2.550  -0.032  -0.571  0.00  0.00    +0.044 C 
ENDBRANCH   1  16
BRANCH   5  20
ATOM     20  N   UNL     1      -0.185  -8.381  -2.287  0.00  0.00    -0.351 N 
ATOM     21  H   UNL     1      -0.250  -8.827  -1.428  0.00  0.00    +0.145 HD
BRANCH  20  22
ATOM     22  C   UNL     1      -0.172  -9.169  -3.522  0.00  0.00    +0.082 C 
BRANCH  22  23
ATOM     23  C   UNL     1      -0.272 -10.657  -3.179  0.00  0.00    -0.060 C 
BRANCH  23  24
ATOM     24  N   UNL     1      -0.259 -11.447  -4.417  0.00  0.00    +0.381 N 
ATOM     25  C   UNL     1      -1.459 -11.140  -5.204  0.00  0.00    -0.079 C 
ATOM     26  C   UNL     1      -1.411 -11.899  -6.532  0.00  0.00    -0.019 C 
ATOM     27  C   UNL     1      -1.353 -13.403  -6.252  0.00  0.00    -0.004 C 
ATOM     28  C   UNL     1      -0.139 -13.702  -5.368  0.00  0.00    -0.019 C 
ATOM     29  C   UNL     1      -0.234 -12.876  -4.084  0.00  0.00    -0.079 C 
ATOM     30  H   UNL     1       0.562 -11.214  -4.955  0.00  0.00    -0.082 HD
ENDBRANCH  23  24
ENDBRANCH  22  23
ENDBRANCH  20  22
ENDBRANCH   5  20
TORSDOF 5
