REMARK  Name = ZINC33261793
REMARK  6 active torsions:
REMARK  status: ('A' for Active; 'I' for Inactive)
REMARK    1  A    between atoms: C_5  and  S_7
REMARK    2  A    between atoms: S_7  and  C_8
REMARK    3  A    between atoms: N_13  and  C_18
REMARK    4  A    between atoms: C_18  and  C_19
REMARK    5  A    between atoms: N_21  and  C_22
REMARK    6  A    between atoms: C_22  and  C_23
REMARK                            x       y       z     vdW  Elec       q    Type
REMARK                         _______ _______ _______ _____ _____    ______ ____
ROOT
ATOM      1  C   UNL     1       3.311   2.726  -0.037  0.00  0.00    +0.123 A 
ATOM      2  C   UNL     1       2.893   4.077  -0.009  0.00  0.00    +0.040 A 
ATOM      3  C   UNL     1       1.574   4.380  -0.013  0.00  0.00    +0.053 A 
ATOM      4  C   UNL     1       0.622   3.328  -0.045  0.00  0.00    +0.179 A 
ATOM      5  N   UNL     1      -0.690   3.324  -0.055  0.00  0.00    -0.147 NA
ATOM      6  N   UNL     1      -1.116   1.989  -0.095  0.00  0.00    -0.202 N 
ATOM      7  C   UNL     1      -0.013   1.210  -0.098  0.00  0.00    +0.368 A 
ATOM      8  O   UNL     1       0.005  -0.009  -0.126  0.00  0.00    -0.243 OA
ATOM      9  N   UNL     1       1.064   2.019  -0.071  0.00  0.00    -0.160 N 
ATOM     10  N   UNL     1       2.439   1.751  -0.066  0.00  0.00    -0.154 NA
ENDROOT
BRANCH   1  11
ATOM     11  S   UNL     1       5.032   2.350  -0.032  0.00  0.00    -0.068 S 
BRANCH  11  16
ATOM     12  C   UNL     1       5.077  -1.383   1.466  0.00  0.00    +0.004 A 
ATOM     13  C   UNL     1       5.168  -2.164   0.328  0.00  0.00    +0.038 A 
ATOM     14  C   UNL     1       5.218  -1.569  -0.922  0.00  0.00    +0.124 A 
ATOM     15  C   UNL     1       5.177  -0.191  -1.035  0.00  0.00    +0.053 A 
ATOM     16  C   UNL     1       5.085   0.595   0.107  0.00  0.00    +0.017 A 
ATOM     17  C   UNL     1       5.040  -0.007   1.359  0.00  0.00    +0.015 A 
ATOM     18  F   UNL     1       5.308  -2.336  -2.031  0.00  0.00    -0.205 F 
ENDBRANCH  11  16
ENDBRANCH   1  11
BRANCH   6  19
ATOM     19  C   UNL     1      -2.504   1.523  -0.124  0.00  0.00    +0.244 C 
BRANCH  19  20
ATOM     20  C   UNL     1      -2.999   1.331   1.287  0.00  0.00    +0.235 C 
ATOM     21  O   UNL     1      -2.264   1.560   2.224  0.00  0.00    -0.274 OA
ATOM     22  N   UNL     1      -4.259   0.904   1.507  0.00  0.00    -0.310 N 
ATOM     23  H   UNL     1      -4.925   0.696   0.657  0.00  0.00    +0.149 HD
BRANCH  22  24
ATOM     24  C   UNL     1      -4.740   0.717   2.878  0.00  0.00    +0.139 C 
BRANCH  24  25
ATOM     25  C   UNL     1      -6.168   0.238   2.848  0.00  0.00    -0.027 A 
ATOM     26  C   UNL     1      -7.203   1.154   2.861  0.00  0.00    +0.009 A 
ATOM     27  C   UNL     1      -8.515   0.720   2.828  0.00  0.00    +0.050 A 
ATOM     28  C   UNL     1      -8.796  -0.636   2.794  0.00  0.00    +0.166 A 
ATOM     29  C   UNL     1      -7.753  -1.560   2.786  0.00  0.00    +0.167 A 
ATOM     30  C   UNL     1      -6.441  -1.117   2.813  0.00  0.00    +0.054 A 
ATOM     31  O   UNL     1      -8.284  -2.817   2.750  0.00  0.00    -0.453 OA
ATOM     32  C   UNL     1      -9.659  -2.665   3.149  0.00  0.00    +0.466 C 
ATOM     33  O   UNL     1      -9.980  -1.315   2.764  0.00  0.00    -0.453 OA
ENDBRANCH  24  25
ENDBRANCH  22  24
ENDBRANCH  19  20
ENDBRANCH   6  19
TORSDOF 6
