REMARK  Name = ZINC44319011
REMARK  12 active torsions:
REMARK  status: ('A' for Active; 'I' for Inactive)
REMARK    1  A    between atoms: C_1  and  C_2
REMARK    2  A    between atoms: C_9  and  C_25
REMARK    3  A    between atoms: C_10  and  C_11
REMARK    4  A    between atoms: C_11  and  CA_12
REMARK    5  A    between atoms: CA_12  and  C_14
REMARK    6  A    between atoms: CA_12  and  N_17
REMARK    7  A    between atoms: C_18  and  O_20
REMARK    8  A    between atoms: O_20  and  C_21
REMARK    9  A    between atoms: C_21  and  C_22
REMARK   10  A    between atoms: C_21  and  C_23
REMARK   11  A    between atoms: C_21  and  C_24
REMARK   12  A    between atoms: C_28  and  N_31
REMARK                            x       y       z     vdW  Elec       q    Type
REMARK                         _______ _______ _______ _____ _____    ______ ____
ROOT
ATOM      1  C   UNL     1      -0.156   1.520   0.122  0.00  0.00    +0.044 C 
ATOM      2  C   UNL     1      -0.078   0.016   0.079  0.00  0.00    -0.046 A 
ATOM      3  C   UNL     1       0.006  -0.651  -1.155  0.00  0.00    +0.021 A 
ATOM      4  C   UNL     1       0.076  -1.998  -1.198  0.00  0.00    +0.093 A 
ATOM      5  N   UNL     1       0.068  -2.731  -0.046  0.00  0.00    -0.303 N 
ATOM      6  C   UNL     1      -0.013  -2.109   1.173  0.00  0.00    +0.139 A 
ATOM      7  C   UNL     1      -0.082  -0.702   1.234  0.00  0.00    +0.050 A 
ATOM      8  N   UNL     1      -0.004  -3.039   2.116  0.00  0.00    -0.228 NA
ATOM      9  C   UNL     1       0.081  -4.249   1.540  0.00  0.00    +0.093 A 
ATOM     10  C   UNL     1       0.126  -4.076   0.189  0.00  0.00    +0.053 A 
ENDROOT
BRANCH   9  11
ATOM     11  C   UNL     1       0.117  -5.550   2.252  0.00  0.00    +0.002 A 
ATOM     12  C   UNL     1       0.907  -5.703   3.390  0.00  0.00    +0.012 A 
ATOM     13  C   UNL     1       0.938  -6.915   4.048  0.00  0.00    +0.033 A 
ATOM     14  C   UNL     1       0.187  -7.978   3.580  0.00  0.00    +0.126 A 
ATOM     15  C   UNL     1      -0.599  -7.833   2.450  0.00  0.00    +0.033 A 
ATOM     16  C   UNL     1      -0.642  -6.623   1.788  0.00  0.00    +0.012 A 
BRANCH  14  17
ATOM     17  N   UNL     1       0.224  -9.277   4.289  0.00  0.00    +0.056 N 
ATOM     18  O   UNL     1       0.910  -9.407   5.276  0.00  0.00    -0.126 OA
ATOM     19  O   UNL     1      -0.431 -10.208   3.882  0.00  0.00    -0.126 OA
ENDBRANCH  14  17
ENDBRANCH   9  11
BRANCH  10  20
ATOM     20  C   UNL     1       0.223  -5.164  -0.850  0.00  0.00    +0.090 C 
BRANCH  20  21
ATOM     21  CA  UNL     1       1.689  -5.554  -1.045  0.00  0.00    +0.195 C 
BRANCH  21  22
ATOM     22  N   UNL     1       2.426  -4.418  -1.604  0.00  0.00    -0.267 N 
ATOM     23  C   UNL     1       3.755  -4.313  -1.406  0.00  0.00    +0.401 C 
ATOM     24  O   UNL     1       4.342  -5.161  -0.764  0.00  0.00    -0.226 OA
ATOM     25  H   UNL     1       1.957  -3.740  -2.117  0.00  0.00    +0.153 HD
BRANCH  23  26
ATOM     26  O   UNL     1       4.432  -3.269  -1.920  0.00  0.00    -0.445 OA
BRANCH  26  27
ATOM     27  C   UNL     1       5.838  -3.222  -1.671  0.00  0.00    +0.107 C 
ATOM     28  C   UNL     1       6.502  -4.470  -2.256  0.00  0.00    +0.055 C 
ATOM     29  C   UNL     1       6.431  -1.974  -2.328  0.00  0.00    +0.055 C 
ATOM     30  C   UNL     1       6.088  -3.172  -0.163  0.00  0.00    +0.055 C 
ENDBRANCH  26  27
ENDBRANCH  23  26
ENDBRANCH  21  22
BRANCH  21  31
ATOM     31  C   UNL     1       1.776  -6.723  -1.992  0.00  0.00    +0.376 C 
ATOM     32  O   UNL     1       2.235  -6.569  -3.111  0.00  0.00    -0.244 OA
ATOM     33  OXT UNL     1       1.388  -7.824  -1.638  0.00  0.00    -0.244 OA
ENDBRANCH  21  31
ENDBRANCH  20  21
ENDBRANCH  10  20
TORSDOF 8
