REMARK  Name = ZINC63122438
REMARK  7 active torsions:
REMARK  status: ('A' for Active; 'I' for Inactive)
REMARK    1  A    between atoms: C_1  and  O_2
REMARK    2  A    between atoms: O_2  and  C_3
REMARK    3  A    between atoms: C_3  and  C_5
REMARK    4  A    between atoms: C_5  and  C_7
REMARK    5  A    between atoms: C_5  and  N_17
REMARK    6  A    between atoms: C_7  and  C_8
REMARK    7  A    between atoms: C_18  and  C_20
REMARK                            x       y       z     vdW  Elec       q    Type
REMARK                         _______ _______ _______ _____ _____    ______ ____
ROOT
ATOM      1  C   UNL     1      -1.244  -2.135   0.003  0.00  0.00    +0.186 C 
ENDROOT
BRANCH   1   2
ATOM      2  N   UNL     1      -2.643  -2.570   0.013  0.00  0.00    -0.298 N 
ATOM      3  C   UNL     1      -3.328  -2.666  -1.143  0.00  0.00    +0.245 C 
ATOM      4  O   UNL     1      -2.784  -2.393  -2.196  0.00  0.00    -0.270 OA
ATOM      5  H   UNL     1      -3.076  -2.788   0.853  0.00  0.00    +0.150 HD
BRANCH   3   6
ATOM      6  C   UNL     1      -4.737  -3.104  -1.132  0.00  0.00    +0.042 A 
ATOM      7  C   UNL     1      -5.447  -3.210  -2.331  0.00  0.00    +0.062 A 
ATOM      8  C   UNL     1      -6.768  -3.622  -2.317  0.00  0.00    +0.164 A 
ATOM      9  C   UNL     1      -7.388  -3.932  -1.110  0.00  0.00    +0.180 A 
ATOM     10  C   UNL     1      -6.681  -3.824   0.083  0.00  0.00    +0.087 A 
ATOM     11  C   UNL     1      -5.364  -3.419   0.076  0.00  0.00    +0.037 A 
ATOM     12 CL   UNL     1      -7.460  -4.208   1.587  0.00  0.00    -0.080 Cl
ATOM     13  O   UNL     1      -8.683  -4.345  -1.080  0.00  0.00    -0.483 OA
ATOM     14  C   UNL     1      -9.470  -4.083  -2.247  0.00  0.00    +0.270 C 
ATOM     15  C   UNL     1      -8.652  -4.490  -3.480  0.00  0.00    +0.270 C 
ATOM     16  O   UNL     1      -7.447  -3.717  -3.494  0.00  0.00    -0.485 OA
ENDBRANCH   3   6
ENDBRANCH   1   2
BRANCH   1  17
ATOM     17  C   UNL     1      -1.185  -0.630   0.010  0.00  0.00    +0.328 C 
ATOM     18  O   UNL     1      -2.208   0.015   0.023  0.00  0.00    -0.249 OA
BRANCH  17  20
ATOM     19  C   UNL     1      -0.017   1.425   0.010  0.00  0.00    +0.280 C 
ATOM     20  O   UNL     1       0.002  -0.004   0.002  0.00  0.00    -0.467 OA
ENDBRANCH  17  20
ENDBRANCH   1  17
BRANCH   1  21
ATOM     21  C   UNL     1      -0.531  -2.680   1.242  0.00  0.00    +0.067 C 
BRANCH  21  22
ATOM     22  C   UNL     1      -0.482  -4.184   1.173  0.00  0.00    -0.039 C 
ATOM     23  C   UNL     1       0.535  -4.944   0.706  0.00  0.00    -0.001 A 
ATOM     24  C   UNL     1       1.848  -4.610   0.142  0.00  0.00    +0.010 A 
ATOM     25  C   UNL     1       2.668  -5.612  -0.249  0.00  0.00    +0.001 A 
ATOM     26  C   UNL     1       2.297  -6.958  -0.129  0.00  0.00    +0.002 A 
ATOM     27  C   UNL     1       1.107  -7.343   0.379  0.00  0.00    +0.026 A 
ATOM     28  C   UNL     1       0.166  -6.373   0.822  0.00  0.00    +0.043 A 
ATOM     29  N   UNL     1      -1.032  -6.492   1.341  0.00  0.00    -0.380 N 
ATOM     30  C   UNL     1      -1.556  -5.151   1.619  0.00  0.00    +0.144 C 
ATOM     31  H   UNL     1      -1.492  -7.328   1.516  0.00  0.00    +0.160 HD
ENDBRANCH  21  22
ENDBRANCH   1  21
TORSDOF 6
