REMARK  Name = ZINC59877929
REMARK  8 active torsions:
REMARK  status: ('A' for Active; 'I' for Inactive)
REMARK    1  A    between atoms: C_1  and  C_2
REMARK    2  A    between atoms: C_3  and  C_14
REMARK    3  A    between atoms: C_4  and  C_13
REMARK    4  A    between atoms: C_8  and  C_11
REMARK    5  A    between atoms: C_14  and  C_15
REMARK    6  A    between atoms: C_15  and  C_16
REMARK    7  A    between atoms: N_18  and  N_19
REMARK    8  A    between atoms: N_19  and  C_20
REMARK                            x       y       z     vdW  Elec       q    Type
REMARK                         _______ _______ _______ _____ _____    ______ ____
ROOT
ATOM      1  C   UNL     1      -2.520   0.011   0.015  0.00  0.00    +0.048 C 
ENDROOT
BRANCH   1   4
ATOM      2  C   UNL     1      -0.018   1.503   0.010  0.00  0.00    +0.066 C 
ATOM      3  C   UNL     1       0.002  -0.004   0.002  0.00  0.00    +0.046 A 
ATOM      4  C   UNL     1      -1.202  -0.719   0.004  0.00  0.00    -0.005 A 
ATOM      5  C   UNL     1      -1.170  -2.076  -0.004  0.00  0.00    +0.047 A 
ATOM      6  N   UNL     1       0.036  -2.712  -0.013  0.00  0.00    -0.217 N 
ATOM      7  C   UNL     1       1.190  -1.978  -0.014  0.00  0.00    +0.173 A 
ATOM      8  N   UNL     1       1.150  -0.644  -0.012  0.00  0.00    -0.232 NA
ATOM      9  C   UNL     1       2.255  -2.898  -0.025  0.00  0.00    +0.115 A 
ATOM     10  C   UNL     1       1.687  -4.183  -0.029  0.00  0.00    +0.156 A 
ATOM     11  N   UNL     1       0.384  -4.067  -0.022  0.00  0.00    -0.172 NA
ATOM     12  C   UNL     1      -2.451  -2.869  -0.001  0.00  0.00    +0.066 C 
BRANCH   9  13
ATOM     13  C   UNL     1       3.652  -2.584  -0.029  0.00  0.00    +0.104 C 
ATOM     14  N   UNL     1       4.760  -2.334  -0.033  0.00  0.00    -0.191 NA
ENDBRANCH   9  13
ENDBRANCH   1   4
BRANCH   1  15
ATOM     15  C   UNL     1      -2.898   0.360   1.456  0.00  0.00    +0.102 C 
BRANCH  15  16
ATOM     16  C   UNL     1      -4.216   1.090   1.466  0.00  0.00    +0.229 C 
ATOM     17  O   UNL     1      -4.796   1.309   0.424  0.00  0.00    -0.274 OA
ATOM     18  N   UNL     1      -4.751   1.498   2.634  0.00  0.00    -0.236 N 
ATOM     19  H   UNL     1      -4.287   1.323   3.468  0.00  0.00    +0.173 HD
BRANCH  18  20
ATOM     20  N   UNL     1      -5.976   2.177   2.644  0.00  0.00    -0.264 N 
ATOM     21  H   UNL     1      -6.440   2.353   1.811  0.00  0.00    +0.170 HD
BRANCH  20  22
ATOM     22  C   UNL     1      -6.531   2.601   3.855  0.00  0.00    +0.044 A 
ATOM     23  C   UNL     1      -5.865   2.355   5.049  0.00  0.00    +0.025 A 
ATOM     24  C   UNL     1      -6.415   2.775   6.244  0.00  0.00    +0.017 A 
ATOM     25  C   UNL     1      -7.628   3.439   6.253  0.00  0.00    +0.018 A 
ATOM     26  C   UNL     1      -8.294   3.686   5.065  0.00  0.00    +0.017 A 
ATOM     27  C   UNL     1      -7.746   3.274   3.866  0.00  0.00    +0.025 A 
ATOM     28 BR   UNL     1      -8.379   4.012   7.891  0.00  0.00    -0.050 Br
ENDBRANCH  20  22
ENDBRANCH  18  20
ENDBRANCH  15  16
ENDBRANCH   1  15
TORSDOF 6
