REMARK  Name = ZINC09737311
REMARK  9 active torsions:
REMARK  status: ('A' for Active; 'I' for Inactive)
REMARK    1  A    between atoms: C_1  and  O_2
REMARK    2  A    between atoms: O_2  and  C_3
REMARK    3  A    between atoms: C_6  and  C_9
REMARK    4  A    between atoms: C_12  and  C_31
REMARK    5  A    between atoms: C_15  and  C_17
REMARK    6  A    between atoms: C_17  and  S_18
REMARK    7  A    between atoms: S_18  and  C_19
REMARK    8  A    between atoms: N_23  and  C_24
REMARK    9  A    between atoms: C_27  and  O_30
REMARK                            x       y       z     vdW  Elec       q    Type
REMARK                         _______ _______ _______ _____ _____    ______ ____
ROOT
ATOM      1  C   UNL     1       1.503  -0.355  -0.014  0.00  0.00    +0.137 C 
ATOM      2  C   UNL     1       0.002  -0.004   0.002  0.00  0.00    +0.087 C 
ATOM      3  C   UNL     1      -0.018   1.508   0.010  0.00  0.00    +0.069 C 
ATOM      4  N   UNL     1       1.190   1.955   0.001  0.00  0.00    -0.181 NA
ATOM      5  N   UNL     1       2.165   0.960  -0.013  0.00  0.00    -0.184 N 
ATOM      6  C   UNL     1       3.496   1.167  -0.025  0.00  0.00    +0.246 C 
ATOM      7  O   UNL     1       4.257   0.222  -0.037  0.00  0.00    -0.273 OA
ENDROOT
BRANCH   1  11
ATOM      8  C   UNL     1       2.567  -2.576   3.478  0.00  0.00    +0.120 A 
ATOM      9  C   UNL     1       2.349  -3.233   2.276  0.00  0.00    +0.046 A 
ATOM     10  C   UNL     1       2.005  -2.513   1.149  0.00  0.00    +0.009 A 
ATOM     11  C   UNL     1       1.878  -1.138   1.218  0.00  0.00    -0.024 A 
ATOM     12  C   UNL     1       2.100  -0.480   2.413  0.00  0.00    +0.009 A 
ATOM     13  C   UNL     1       2.438  -1.196   3.545  0.00  0.00    +0.046 A 
BRANCH   8  15
ATOM     14  C   UNL     1       3.114  -2.539   5.792  0.00  0.00    +0.277 C 
ATOM     15  O   UNL     1       2.906  -3.282   4.589  0.00  0.00    -0.495 OA
ENDBRANCH   8  15
ENDBRANCH   1  11
BRANCH   3  16
ATOM     16  C   UNL     1      -1.234   2.342   0.021  0.00  0.00    -0.002 A 
ATOM     17  C   UNL     1      -2.497   1.744   0.018  0.00  0.00    +0.010 A 
ATOM     18  C   UNL     1      -3.629   2.530   0.034  0.00  0.00    +0.001 A 
ATOM     19  C   UNL     1      -3.518   3.909   0.041  0.00  0.00    +0.000 A 
ATOM     20  C   UNL     1      -2.271   4.509   0.038  0.00  0.00    +0.001 A 
ATOM     21  C   UNL     1      -1.130   3.735   0.028  0.00  0.00    +0.010 A 
ENDBRANCH   3  16
BRANCH   6  22
ATOM     22  C   UNL     1       4.040   2.572  -0.023  0.00  0.00    +0.175 C 
BRANCH  22  23
ATOM     23  S   UNL     1       5.849   2.519  -0.040  0.00  0.00    -0.075 S 
BRANCH  23  24
ATOM     24  C   UNL     1       6.206   4.245  -0.034  0.00  0.00    +0.214 A 
ATOM     25  N   UNL     1       5.328   5.225  -0.026  0.00  0.00    -0.101 NA
ATOM     26  N   UNL     1       5.924   6.363  -0.022  0.00  0.00    -0.022 NA
ATOM     27  N   UNL     1       7.203   6.200  -0.034  0.00  0.00    -0.038 NA
ATOM     28  N   UNL     1       7.437   4.814  -0.043  0.00  0.00    -0.187 N 
BRANCH  28  29
ATOM     29  C   UNL     1       8.679   4.160  -0.057  0.00  0.00    +0.070 A 
ATOM     30  C   UNL     1       8.842   2.965   0.630  0.00  0.00    +0.031 A 
ATOM     31  C   UNL     1      10.061   2.318   0.611  0.00  0.00    +0.047 A 
ATOM     32  C   UNL     1      11.127   2.869  -0.086  0.00  0.00    +0.117 A 
ATOM     33  C   UNL     1      10.967   4.066  -0.768  0.00  0.00    +0.047 A 
ATOM     34  C   UNL     1       9.746   4.710  -0.754  0.00  0.00    +0.031 A 
BRANCH  32  35
ATOM     35  O   UNL     1      12.330   2.235  -0.100  0.00  0.00    -0.507 OA
ATOM     36  H   UNL     1      12.921   2.496   0.620  0.00  0.00    +0.292 HD
ENDBRANCH  32  35
ENDBRANCH  28  29
ENDBRANCH  23  24
ENDBRANCH  22  23
ENDBRANCH   6  22
TORSDOF 8
