REMARK  Name = ZINC62825540
REMARK  6 active torsions:
REMARK  status: ('A' for Active; 'I' for Inactive)
REMARK    1  A    between atoms: C_1  and  N_2
REMARK    2  A    between atoms: C_3  and  C_5
REMARK    3  A    between atoms: C_5  and  N_6
REMARK    4  A    between atoms: N_6  and  C_7
REMARK    5  A    between atoms: N_10  and  C_11
REMARK    6  A    between atoms: C_12  and  C_19
REMARK                            x       y       z     vdW  Elec       q    Type
REMARK                         _______ _______ _______ _____ _____    ______ ____
ROOT
ATOM      1  N   UNL     1      -2.530  -3.338  -0.190  0.00  0.00    -0.280 N 
ATOM      2  C   UNL     1      -3.362  -2.876  -1.304  0.00  0.00    +0.134 C 
ATOM      3  C   UNL     1      -3.089  -3.577   1.013  0.00  0.00    +0.307 C 
ATOM      4  O   UNL     1      -2.399  -3.960   1.938  0.00  0.00    -0.252 OA
ATOM      5  N   UNL     1      -4.412  -3.392   1.191  0.00  0.00    -0.268 N 
ATOM      6  H   UNL     1      -4.948  -3.011   0.478  0.00  0.00    +0.156 HD
ENDROOT
BRANCH   5   7
ATOM      7  C   UNL     1      -5.009  -3.749   2.397  0.00  0.00    +0.063 A 
ATOM      8  C   UNL     1      -6.111  -4.620   2.409  0.00  0.00    +0.086 A 
ATOM      9  C   UNL     1      -6.700  -4.970   3.628  0.00  0.00    +0.032 A 
ATOM     10  C   UNL     1      -6.199  -4.461   4.806  0.00  0.00    +0.020 A 
ATOM     11  C   UNL     1      -5.111  -3.601   4.790  0.00  0.00    +0.032 A 
ATOM     12  C   UNL     1      -4.514  -3.250   3.595  0.00  0.00    +0.041 A 
ATOM     13 BR   UNL     1      -3.027  -2.082   3.590  0.00  0.00    -0.048 Br
ATOM     14 BR   UNL     1      -6.998  -4.936   6.452  0.00  0.00    -0.050 Br
BRANCH   8  15
ATOM     15  C   UNL     1      -6.641  -5.160   1.147  0.00  0.00    +0.388 C 
ATOM     16  O   UNL     1      -7.662  -5.834   1.152  0.00  0.00    -0.241 OA
ATOM     17  O   UNL     1      -6.061  -4.934   0.094  0.00  0.00    -0.241 OA
ENDBRANCH   8  15
ENDBRANCH   5   7
BRANCH   1  18
ATOM     18  C   UNL     1      -1.092  -3.539  -0.383  0.00  0.00    +0.204 C 
BRANCH  18  21
ATOM     19  C   UNL     1       1.695  -0.964   0.126  0.00  0.00    +0.128 C 
ATOM     20  N   UNL     1       0.983  -2.208  -0.179  0.00  0.00    -0.317 N 
ATOM     21  C   UNL     1      -0.360  -2.260  -0.070  0.00  0.00    +0.230 C 
ATOM     22  O   UNL     1      -0.978  -1.277   0.281  0.00  0.00    -0.274 OA
ATOM     23  H   UNL     1       1.477  -2.994  -0.459  0.00  0.00    +0.148 HD
ENDBRANCH  18  21
ENDBRANCH   1  18
TORSDOF 4
