REMARK  Name = ZINC17080289
REMARK  8 active torsions:
REMARK  status: ('A' for Active; 'I' for Inactive)
REMARK    1  A    between atoms: C_1  and  C_2
REMARK    2  A    between atoms: C_4  and  O_10
REMARK    3  A    between atoms: C_6  and  C_9
REMARK    4  A    between atoms: O_10  and  C_11
REMARK    5  A    between atoms: C_11  and  C_12
REMARK    6  A    between atoms: N_14  and  N_15
REMARK    7  A    between atoms: C_16  and  C_18
REMARK    8  A    between atoms: C_25  and  C_27
REMARK                            x       y       z     vdW  Elec       q    Type
REMARK                         _______ _______ _______ _____ _____    ______ ____
ROOT
ATOM      1  C   UNL     1       3.436  -2.309   1.791  0.00  0.00    +0.267 C 
ATOM      2  O   UNL     1       2.967  -1.867   2.818  0.00  0.00    -0.271 OA
ATOM      3  N   UNL     1       2.635  -2.560   0.737  0.00  0.00    -0.232 N 
ATOM      4  H   UNL     1       3.010  -2.913  -0.085  0.00  0.00    +0.173 HD
ENDROOT
BRANCH   3   5
ATOM      5  N   UNL     1       1.259  -2.311   0.829  0.00  0.00    -0.234 N 
ATOM      6  C   UNL     1       0.457  -2.562  -0.225  0.00  0.00    +0.234 C 
ATOM      7  O   UNL     1       0.926  -3.004  -1.253  0.00  0.00    -0.274 OA
ATOM      8  H   UNL     1       0.884  -1.958   1.650  0.00  0.00    +0.173 HD
BRANCH   6   9
ATOM      9  C   UNL     1      -1.023  -2.294  -0.127  0.00  0.00    +0.098 C 
ATOM     10  C   UNL     1      -1.809  -3.147  -1.172  0.00  0.00    +0.025 C 
ATOM     11  C   UNL     1      -1.637  -2.255  -2.455  0.00  0.00    +0.016 C 
ATOM     12  C   UNL     1      -2.277  -0.991  -1.773  0.00  0.00    +0.027 C 
ATOM     13  C   UNL     1      -1.339  -0.834  -0.534  0.00  0.00    +0.121 C 
ATOM     14  C   UNL     1      -3.552  -1.621  -1.198  0.00  0.00    -0.027 C 
ATOM     15  C   UNL     1      -3.282  -2.864  -0.852  0.00  0.00    -0.027 C 
BRANCH  13  16
ATOM     16  C   UNL     1      -0.077  -0.104  -0.914  0.00  0.00    +0.360 C 
ATOM     17  O   UNL     1       0.282  -0.079  -2.067  0.00  0.00    -0.246 OA
ATOM     18  O   UNL     1       0.649   0.518   0.029  0.00  0.00    -0.246 OA
ENDBRANCH  13  16
ENDBRANCH   6   9
ENDBRANCH   3   5
BRANCH   1  19
ATOM     19  C   UNL     1       4.916  -2.578   1.693  0.00  0.00    +0.326 C 
BRANCH  19  20
ATOM     20  O   UNL     1       5.546  -2.234   2.929  0.00  0.00    -0.483 OA
BRANCH  20  24
ATOM     21  C   UNL     1       9.666  -1.952   5.529  0.00  0.00    +0.045 C 
ATOM     22  C   UNL     1       8.932  -2.292   4.258  0.00  0.00    -0.028 A 
ATOM     23  C   UNL     1       7.566  -2.105   4.179  0.00  0.00    +0.050 A 
ATOM     24  C   UNL     1       6.890  -2.417   3.008  0.00  0.00    +0.122 A 
ATOM     25  C   UNL     1       7.588  -2.923   1.921  0.00  0.00    +0.050 A 
ATOM     26  C   UNL     1       8.955  -3.104   2.002  0.00  0.00    -0.028 A 
ATOM     27  C   UNL     1       9.627  -2.791   3.171  0.00  0.00    +0.047 A 
ATOM     28 CL   UNL     1      11.344  -3.026   3.272  0.00  0.00    -0.083 Cl
ATOM     29  C   UNL     1       9.714  -3.648   0.820  0.00  0.00    +0.045 C 
ENDBRANCH  20  24
ENDBRANCH  19  20
ENDBRANCH   1  19
TORSDOF 6
