REMARK  Name = ZINC08156095
REMARK  5 active torsions:
REMARK  status: ('A' for Active; 'I' for Inactive)
REMARK    1  A    between atoms: C_1  and  C_2
REMARK    2  A    between atoms: C_2  and  C_4
REMARK    3  A    between atoms: C_2  and  N_14
REMARK    4  A    between atoms: C_15  and  C_17
REMARK    5  A    between atoms: C_17  and  N_18
REMARK                            x       y       z     vdW  Elec       q    Type
REMARK                         _______ _______ _______ _____ _____    ______ ____
ROOT
ATOM      1  N   UNL     1      -4.657  -0.137  -0.860  0.00  0.00    -0.307 N 
ATOM      2  C   UNL     1      -5.660  -0.844  -1.419  0.00  0.00    +0.231 C 
ATOM      3  O   UNL     1      -5.762  -2.031  -1.195  0.00  0.00    -0.274 OA
ATOM      4  H   UNL     1      -4.575   0.813  -1.039  0.00  0.00    +0.149 HD
ENDROOT
BRANCH   1   6
ATOM      5  C   UNL     1      -4.250  -0.858   1.441  0.00  0.00    +0.033 C 
ATOM      6  C   UNL     1      -3.692  -0.803   0.018  0.00  0.00    +0.100 C 
BRANCH   6   7
ATOM      7  C   UNL     1      -2.397  -0.033   0.016  0.00  0.00    -0.024 A 
ATOM      8  C   UNL     1      -2.415   1.349   0.025  0.00  0.00    +0.009 A 
ATOM      9  C   UNL     1      -1.229   2.059   0.019  0.00  0.00    +0.050 A 
ATOM     10  C   UNL     1      -0.017   1.385   0.010  0.00  0.00    +0.162 A 
ATOM     11  C   UNL     1       0.002  -0.004   0.002  0.00  0.00    +0.162 A 
ATOM     12  C   UNL     1      -1.192  -0.710   0.004  0.00  0.00    +0.055 A 
ATOM     13  O   UNL     1       1.181  -0.685  -0.007  0.00  0.00    -0.485 OA
ATOM     14  C   UNL     1       2.347   0.053  -0.387  0.00  0.00    +0.270 C 
ATOM     15  C   UNL     1       2.334   1.392   0.364  0.00  0.00    +0.270 C 
ATOM     16  O   UNL     1       1.143   2.098   0.002  0.00  0.00    -0.485 OA
ENDBRANCH   6   7
ENDBRANCH   1   6
BRANCH   2  17
ATOM     17  C   UNL     1      -6.653  -0.158  -2.322  0.00  0.00    +0.213 C 
BRANCH  17  18
ATOM     18  N   UNL     1      -7.635  -1.135  -2.798  0.00  0.00    -0.215 N 
ATOM     19  C   UNL     1      -8.793  -1.419  -2.163  0.00  0.00    +0.247 C 
ATOM     20  O   UNL     1      -9.203  -0.935  -1.130  0.00  0.00    -0.273 OA
ATOM     21  C   UNL     1      -9.465  -2.467  -3.013  0.00  0.00    +0.113 C 
ATOM     22  C   UNL     1     -10.832  -1.980  -3.510  0.00  0.00    +0.035 C 
ATOM     23  C   UNL     1     -11.707  -3.260  -3.519  0.00  0.00    +0.003 C 
ATOM     24  C   UNL     1     -11.220  -4.019  -2.259  0.00  0.00    +0.003 C 
ATOM     25  C   UNL     1      -9.698  -3.758  -2.223  0.00  0.00    +0.035 C 
ATOM     26  N   UNL     1      -8.542  -2.683  -4.128  0.00  0.00    -0.285 N 
ATOM     27  C   UNL     1      -7.500  -1.853  -3.920  0.00  0.00    +0.310 C 
ATOM     28  O   UNL     1      -6.543  -1.770  -4.665  0.00  0.00    -0.252 OA
ATOM     29  H   UNL     1      -8.659  -3.296  -4.871  0.00  0.00    +0.151 HD
ENDBRANCH  17  18
ENDBRANCH   2  17
TORSDOF 4
