REMARK  Name = ZINC01561267
REMARK  7 active torsions:
REMARK  status: ('A' for Active; 'I' for Inactive)
REMARK    1  A    between atoms: C_1  and  C_2
REMARK    2  A    between atoms: C_2  and  C_3
REMARK    3  A    between atoms: C_3  and  N_4
REMARK    4  A    between atoms: N_4  and  C_5
REMARK    5  A    between atoms: N_4  and  C_14
REMARK    6  A    between atoms: C_5  and  C_6
REMARK    7  A    between atoms: C_20  and  N_25
REMARK                            x       y       z     vdW  Elec       q    Type
REMARK                         _______ _______ _______ _____ _____    ______ ____
ROOT
ATOM      1  C   UNL     1       3.651   3.606  -2.054  0.00  0.00    +0.031 A 
ATOM      2  C   UNL     1       4.047   3.848  -3.373  0.00  0.00    +0.025 A 
ATOM      3  C   UNL     1       3.641   4.970  -4.031  0.00  0.00    +0.030 A 
ATOM      4  C   UNL     1       2.824   5.904  -3.379  0.00  0.00    +0.078 A 
ATOM      5  C   UNL     1       2.424   5.667  -2.041  0.00  0.00    +0.042 A 
ATOM      6  C   UNL     1       2.847   4.506  -1.385  0.00  0.00    +0.036 A 
ATOM      7  C   UNL     1       1.599   6.629  -1.406  0.00  0.00    +0.129 A 
ATOM      8  N   UNL     1       1.241   7.703  -2.094  0.00  0.00    -0.199 NA
ATOM      9  C   UNL     1       1.639   7.886  -3.350  0.00  0.00    +0.215 A 
ATOM     10  N   UNL     1       2.406   7.024  -3.989  0.00  0.00    -0.215 NA
ATOM     11  N   UNL     1       1.231   9.029  -4.015  0.00  0.00    -0.327 N 
ATOM     12  H   UNL     1       0.666   9.676  -3.564  0.00  0.00    +0.145 HD
ATOM     13  H   UNL     1       1.509   9.183  -4.931  0.00  0.00    +0.145 HD
ENDROOT
BRANCH   7  14
ATOM     14  N   UNL     1       1.179   6.450  -0.105  0.00  0.00    -0.343 N 
ATOM     15  H   UNL     1       1.448   5.659   0.388  0.00  0.00    +0.144 HD
ATOM     16  H   UNL     1       0.614   7.116   0.318  0.00  0.00    +0.144 HD
ENDBRANCH   7  14
BRANCH   1  17
ATOM     17  N   UNL     1       4.078   2.443  -1.405  0.00  0.00    -0.326 N 
BRANCH  17  18
ATOM     18  C   UNL     1       4.931   1.482  -2.109  0.00  0.00    +0.105 C 
BRANCH  18  20
ATOM     19  C   UNL     1       4.947  -0.550  -3.563  0.00  0.00    +0.005 C 
ATOM     20  C   UNL     1       4.056   0.453  -2.827  0.00  0.00    +0.015 C 
ENDBRANCH  18  20
ENDBRANCH  17  18
BRANCH  17  21
ATOM     21  C   UNL     1       3.672   2.185  -0.021  0.00  0.00    +0.140 C 
BRANCH  21  22
ATOM     22  C   UNL     1       2.378   1.412  -0.013  0.00  0.00    -0.029 A 
ATOM     23  C   UNL     1       1.171   2.087   0.002  0.00  0.00    +0.007 A 
ATOM     24  C   UNL     1      -0.017   1.379   0.010  0.00  0.00    +0.022 A 
ATOM     25  C   UNL     1       0.002  -0.004   0.002  0.00  0.00    +0.059 A 
ATOM     26  C   UNL     1       1.211  -0.679  -0.013  0.00  0.00    +0.060 A 
ATOM     27  C   UNL     1       2.398   0.030  -0.021  0.00  0.00    +0.026 A 
ATOM     28 CL   UNL     1       1.236  -2.415  -0.022  0.00  0.00    -0.082 Cl
ATOM     29 CL   UNL     1      -1.489  -0.893   0.011  0.00  0.00    -0.082 Cl
ENDBRANCH  21  22
ENDBRANCH  17  21
ENDBRANCH   1  17
TORSDOF 6
