REMARK  Name = ZINC13681605
REMARK  6 active torsions:
REMARK  status: ('A' for Active; 'I' for Inactive)
REMARK    1  A    between atoms: C_1  and  S_2
REMARK    2  A    between atoms: S_2  and  N_5
REMARK    3  A    between atoms: N_5  and  C_6
REMARK    4  A    between atoms: N_5  and  C_15
REMARK    5  A    between atoms: C_6  and  C_7
REMARK    6  A    between atoms: C_18  and  C_21
REMARK                            x       y       z     vdW  Elec       q    Type
REMARK                         _______ _______ _______ _____ _____    ______ ____
ROOT
ATOM      1  C   UNL     1       1.028  -0.583   0.313  0.00  0.00    +0.051 A 
ATOM      2  C   UNL     1      -0.137  -0.116   0.916  0.00  0.00    +0.025 A 
ATOM      3  C   UNL     1      -0.345   1.237   1.057  0.00  0.00    +0.015 A 
ATOM      4  C   UNL     1       0.614   2.143   0.594  0.00  0.00    +0.037 A 
ATOM      5  C   UNL     1       1.783   1.670  -0.011  0.00  0.00    +0.015 A 
ATOM      6  C   UNL     1       1.985   0.316  -0.148  0.00  0.00    +0.025 A 
ENDROOT
BRANCH   4   7
ATOM      7  C   UNL     1       0.394   3.594   0.743  0.00  0.00    +0.251 C 
ATOM      8  O   UNL     1      -0.721   4.058   0.596  0.00  0.00    -0.270 OA
ATOM      9  N   UNL     1       1.427   4.405   1.043  0.00  0.00    -0.257 N 
ATOM     10  C   UNL     1       2.798   3.882   1.143  0.00  0.00    +0.210 C 
ATOM     11  C   UNL     1       3.477   4.506   2.335  0.00  0.00    +0.235 C 
ATOM     12  O   UNL     1       4.346   3.893   2.918  0.00  0.00    -0.274 OA
ATOM     13  N   UNL     1       3.131   5.736   2.760  0.00  0.00    -0.283 N 
ATOM     14  C   UNL     1       2.097   6.443   2.137  0.00  0.00    +0.055 A 
ATOM     15  C   UNL     1       1.231   5.776   1.265  0.00  0.00    +0.058 A 
ATOM     16  C   UNL     1       0.200   6.460   0.652  0.00  0.00    +0.025 A 
ATOM     17  C   UNL     1       0.034   7.813   0.893  0.00  0.00    +0.002 A 
ATOM     18  C   UNL     1       0.893   8.478   1.748  0.00  0.00    +0.002 A 
ATOM     19  C   UNL     1       1.924   7.798   2.371  0.00  0.00    +0.025 A 
ATOM     20  H   UNL     1       3.603   6.135   3.508  0.00  0.00    +0.155 HD
ENDBRANCH   4   7
BRANCH   1  21
ATOM     21  N   UNL     1       1.235  -1.951   0.172  0.00  0.00    -0.203 N 
BRANCH  21  23
ATOM     22  C   UNL     1      -1.095  -3.364   0.560  0.00  0.00    +0.218 C 
ATOM     23  S   UNL     1       0.546  -3.007   1.245  0.00  0.00    +0.043 S 
ATOM     24  O   UNL     1       1.364  -4.168   1.187  0.00  0.00    -0.155 OA
ATOM     25  O   UNL     1       0.422  -2.269   2.453  0.00  0.00    -0.155 OA
ENDBRANCH  21  23
BRANCH  21  26
ATOM     26  C   UNL     1       2.063  -2.457  -0.925  0.00  0.00    +0.169 C 
BRANCH  26  27
ATOM     27  C   UNL     1       1.207  -2.658  -2.149  0.00  0.00    +0.008 A 
ATOM     28  C   UNL     1       0.597  -3.880  -2.373  0.00  0.00    +0.047 A 
ATOM     29  C   UNL     1      -0.193  -4.063  -3.495  0.00  0.00    +0.020 A 
ATOM     30  C   UNL     1      -0.365  -3.028  -4.395  0.00  0.00    +0.003 A 
ATOM     31  C   UNL     1       0.248  -1.809  -4.174  0.00  0.00    +0.020 A 
ATOM     32  C   UNL     1       1.034  -1.624  -3.051  0.00  0.00    +0.047 A 
ATOM     33 CL   UNL     1       1.804  -0.093  -2.773  0.00  0.00    -0.083 Cl
ATOM     34 CL   UNL     1       0.819  -5.181  -1.246  0.00  0.00    -0.083 Cl
ENDBRANCH  26  27
ENDBRANCH  21  26
ENDBRANCH   1  21
TORSDOF 5
