REMARK  Name = ZINC13496060
REMARK  7 active torsions:
REMARK  status: ('A' for Active; 'I' for Inactive)
REMARK    1  A    between atoms: C_1  and  C_2
REMARK    2  A    between atoms: C_4  and  C_37
REMARK    3  A    between atoms: C_9  and  C_14
REMARK    4  A    between atoms: C_14  and  C_16
REMARK    5  A    between atoms: C_14  and  N_66
REMARK    6  A    between atoms: N_20  and  C_21
REMARK    7  A    between atoms: C_21  and  C_22
REMARK                            x       y       z     vdW  Elec       q    Type
REMARK                         _______ _______ _______ _____ _____    ______ ____
ROOT
ATOM      1  C   UNL     1      -1.742  -1.518   1.719  0.00  0.00    +0.039 C 
ENDROOT
BRANCH   1  10
ATOM      2  C   UNL     1      -4.171  -6.981  -2.739  0.00  0.00    +0.044 C 
ATOM      3  C   UNL     1      -4.107  -6.319  -1.387  0.00  0.00    -0.050 A 
ATOM      4  C   UNL     1      -4.788  -6.878  -0.314  0.00  0.00    +0.008 A 
ATOM      5  C   UNL     1      -4.744  -6.289   0.931  0.00  0.00    -0.026 A 
ATOM      6  C   UNL     1      -4.009  -5.123   1.117  0.00  0.00    +0.052 A 
ATOM      7  C   UNL     1      -3.319  -4.559   0.027  0.00  0.00    -0.001 A 
ATOM      8  C   UNL     1      -3.379  -5.174  -1.228  0.00  0.00    +0.013 A 
ATOM      9  C   UNL     1      -2.553  -3.329   0.232  0.00  0.00    +0.017 A 
ATOM     10  C   UNL     1      -2.526  -2.781   1.472  0.00  0.00    +0.011 A 
ATOM     11  C   UNL     1      -3.236  -3.386   2.532  0.00  0.00    +0.251 A 
ATOM     12  O   UNL     1      -3.202  -2.875   3.638  0.00  0.00    -0.268 OA
ATOM     13  N   UNL     1      -3.946  -4.513   2.352  0.00  0.00    -0.322 N 
ATOM     14  H   UNL     1      -4.423  -4.903   3.102  0.00  0.00    +0.169 HD
ATOM     15  C   UNL     1      -5.488  -6.907   2.087  0.00  0.00    +0.046 C 
ENDBRANCH   1  10
BRANCH   1  22
ATOM     16  C   UNL     1      -0.163  -0.462   3.235  0.00  0.00    -0.077 C 
ATOM     17  C   UNL     1       0.996  -0.666   4.172  0.00  0.00    -0.019 C 
ATOM     18  C   UNL     1       2.293  -0.728   3.339  0.00  0.00    -0.002 C 
ATOM     19  C   UNL     1       2.477  -2.026   2.700  0.00  0.00    -0.002 C 
ATOM     20  C   UNL     1       1.334  -2.361   1.720  0.00  0.00    -0.019 C 
ATOM     21  C   UNL     1       0.144  -2.827   2.514  0.00  0.00    -0.077 C 
ATOM     22  N   UNL     1      -0.843  -1.749   2.861  0.00  0.00    +0.389 N 
ATOM     23  H   UNL     1      -1.401  -2.066   3.663  0.00  0.00    -0.080 HD
ENDBRANCH   1  22
BRANCH   1  24
ATOM     24  C   UNL     1      -2.689  -0.400   2.073  0.00  0.00    +0.143 A 
ATOM     25  N   UNL     1      -3.269  -0.204   3.232  0.00  0.00    -0.115 NA
ATOM     26  N   UNL     1      -4.005   0.849   3.135  0.00  0.00    -0.023 NA
ATOM     27  N   UNL     1      -3.905   1.333   1.946  0.00  0.00    -0.044 NA
ATOM     28  N   UNL     1      -3.099   0.592   1.262  0.00  0.00    -0.226 N 
BRANCH  28  29
ATOM     29  C   UNL     1      -2.710   0.791  -0.137  0.00  0.00    +0.182 C 
BRANCH  29  30
ATOM     30  C   UNL     1      -1.482   1.662  -0.197  0.00  0.00    -0.022 A 
ATOM     31  C   UNL     1      -1.614   3.036  -0.273  0.00  0.00    +0.009 A 
ATOM     32  C   UNL     1      -0.490   3.839  -0.336  0.00  0.00    +0.050 A 
ATOM     33  C   UNL     1       0.772   3.268  -0.316  0.00  0.00    +0.166 A 
ATOM     34  C   UNL     1       0.905   1.884  -0.232  0.00  0.00    +0.167 A 
ATOM     35  C   UNL     1      -0.226   1.086  -0.170  0.00  0.00    +0.055 A 
ATOM     36  O   UNL     1       2.234   1.573  -0.228  0.00  0.00    -0.453 OA
ATOM     37  C   UNL     1       2.905   2.747  -0.722  0.00  0.00    +0.466 C 
ATOM     38  O   UNL     1       2.018   3.824  -0.364  0.00  0.00    -0.453 OA
ENDBRANCH  29  30
ENDBRANCH  28  29
ENDBRANCH   1  24
TORSDOF 5
