REMARK  Name = ZINC58520919
REMARK  8 active torsions:
REMARK  status: ('A' for Active; 'I' for Inactive)
REMARK    1  A    between atoms: C_1  and  C_2
REMARK    2  A    between atoms: C_6  and  C_8
REMARK    3  A    between atoms: C_12  and  C_15
REMARK    4  A    between atoms: C_15  and  N_16
REMARK    5  A    between atoms: N_19  and  C_20
REMARK    6  A    between atoms: C_23  and  N_26
REMARK    7  A    between atoms: N_26  and  C_27
REMARK    8  A    between atoms: N_26  and  C_28
REMARK                            x       y       z     vdW  Elec       q    Type
REMARK                         _______ _______ _______ _____ _____    ______ ____
ROOT
ATOM      1  C   UNL     1      -4.211  -5.468  -3.197  0.00  0.00    +0.142 C 
ENDROOT
BRANCH   1  13
ATOM      2  C   UNL     1      -0.017   1.574  -0.065  0.00  0.00    +0.039 C 
ATOM      3  C   UNL     1      -0.009   0.044  -0.051  0.00  0.00    +0.133 C 
ATOM      4  C   UNL     1      -1.451  -0.476  -0.043  0.00  0.00    +0.137 C 
ATOM      5  N   UNL     1      -1.418  -1.933   0.160  0.00  0.00    -0.312 N 
ATOM      6  C   UNL     1      -0.622  -2.457   1.281  0.00  0.00    +0.137 C 
ATOM      7  C   UNL     1       0.780  -1.841   1.209  0.00  0.00    +0.133 C 
ATOM      8  O   UNL     1       0.665  -0.419   1.123  0.00  0.00    -0.371 OA
ATOM      9  C   UNL     1       1.568  -2.215   2.466  0.00  0.00    +0.039 C 
ATOM     10  C   UNL     1      -2.119  -2.788  -0.682  0.00  0.00    +0.099 A 
ATOM     11  C   UNL     1      -2.950  -2.260  -1.665  0.00  0.00    +0.042 A 
ATOM     12  C   UNL     1      -3.641  -3.123  -2.496  0.00  0.00    +0.010 A 
ATOM     13  C   UNL     1      -3.477  -4.491  -2.315  0.00  0.00    -0.014 A 
ATOM     14  C   UNL     1      -2.636  -4.945  -1.319  0.00  0.00    +0.089 A 
ATOM     15  N   UNL     1      -1.985  -4.098  -0.545  0.00  0.00    -0.349 N 
ATOM     16  H   UNL     1      -1.397  -4.444   0.145  0.00  0.00    +0.167 HD
ENDBRANCH   1  13
BRANCH   1  17
ATOM     17  N   UNL     1      -3.392  -5.776  -4.372  0.00  0.00    -0.295 N 
ATOM     18  C   UNL     1      -3.848  -6.634  -5.306  0.00  0.00    +0.304 C 
ATOM     19  O   UNL     1      -4.940  -7.152  -5.173  0.00  0.00    -0.252 OA
ATOM     20  N   UNL     1      -3.094  -6.917  -6.387  0.00  0.00    -0.269 N 
ATOM     21  H   UNL     1      -2.521  -5.362  -4.478  0.00  0.00    +0.151 HD
ATOM     22  H   UNL     1      -2.192  -6.568  -6.454  0.00  0.00    +0.156 HD
BRANCH  20  23
ATOM     23  C   UNL     1      -3.615  -7.716  -7.414  0.00  0.00    +0.035 A 
ATOM     24  C   UNL     1      -2.784  -8.588  -8.104  0.00  0.00    +0.025 A 
ATOM     25  C   UNL     1      -3.296  -9.376  -9.116  0.00  0.00    +0.025 A 
ATOM     26  C   UNL     1      -4.644  -9.295  -9.444  0.00  0.00    +0.029 A 
ATOM     27  C   UNL     1      -5.475  -8.422  -8.754  0.00  0.00    +0.025 A 
ATOM     28  C   UNL     1      -4.963  -7.638  -7.739  0.00  0.00    +0.025 A 
BRANCH  26  29
ATOM     29  N   UNL     1      -5.163 -10.092 -10.470  0.00  0.00    -0.336 N 
ATOM     30  C   UNL     1      -4.266 -10.922 -11.277  0.00  0.00    +0.129 C 
ATOM     31  C   UNL     1      -6.604 -10.096 -10.736  0.00  0.00    +0.129 C 
ENDBRANCH  26  29
ENDBRANCH  20  23
ENDBRANCH   1  17
TORSDOF 4
