REMARK  Name = ZINC03931014
REMARK  7 active torsions:
REMARK  status: ('A' for Active; 'I' for Inactive)
REMARK    1  A    between atoms: C_1  and  C_2
REMARK    2  A    between atoms: C_4  and  O_40
REMARK    3  A    between atoms: C_15  and  C_26
REMARK    4  A    between atoms: C_17  and  C_20
REMARK    5  A    between atoms: C_26  and  C_28
REMARK    6  A    between atoms: C_28  and  O_29
REMARK    7  A    between atoms: C_38  and  C_39
REMARK                            x       y       z     vdW  Elec       q    Type
REMARK                         _______ _______ _______ _____ _____    ______ ____
ROOT
ATOM      1  C   UNL     1       3.035   1.226  -3.772  0.00  0.00    +0.015 C 
ATOM      2  C   UNL     1       4.013   0.903  -2.640  0.00  0.00    +0.012 C 
ATOM      3  C   UNL     1       3.663  -0.439  -2.025  0.00  0.00    +0.042 C 
ATOM      4  C   UNL     1       2.186  -0.376  -1.607  0.00  0.00    +0.120 C 
ATOM      5  C   UNL     1       1.924   0.771  -0.635  0.00  0.00    +0.035 C 
ATOM      6  C   UNL     1       2.409   2.115  -1.202  0.00  0.00    -0.000 C 
ATOM      7  C   UNL     1       3.887   1.968  -1.518  0.00  0.00    +0.004 C 
ATOM      8  C   UNL     1       4.550   3.186  -2.171  0.00  0.00    +0.039 C 
ATOM      9  C   UNL     1       5.784   2.575  -2.888  0.00  0.00    +0.161 C 
ATOM     10  C   UNL     1       5.445   1.074  -3.130  0.00  0.00    +0.164 C 
ATOM     11  O   UNL     1       6.353   0.353  -2.276  0.00  0.00    -0.334 OA
ATOM     12  C   UNL     1       7.474   1.246  -2.101  0.00  0.00    +0.255 C 
ATOM     13  O   UNL     1       6.878   2.552  -1.949  0.00  0.00    -0.344 OA
ATOM     14  C   UNL     1       2.208   3.215  -0.158  0.00  0.00    +0.008 C 
ATOM     15  C   UNL     1       0.713   3.387   0.128  0.00  0.00    +0.032 C 
ATOM     16  C   UNL     1       0.155   2.038   0.541  0.00  0.00    -0.056 C 
ATOM     17  C   UNL     1      -0.544   1.949   1.664  0.00  0.00    +0.051 C 
ATOM     18  C   UNL     1      -1.084   0.654   2.108  0.00  0.00    +0.179 C 
ATOM     19  O   UNL     1      -1.759   0.575   3.117  0.00  0.00    -0.288 OA
ATOM     20  C   UNL     1      -0.788  -0.543   1.303  0.00  0.00    +0.047 C 
ATOM     21  C   UNL     1      -0.094  -0.429   0.182  0.00  0.00    -0.012 C 
ATOM     22  C   UNL     1       0.422   0.863  -0.352  0.00  0.00    +0.013 C 
ATOM     23  C   UNL     1      -0.270   1.126  -1.691  0.00  0.00    +0.020 C 
ENDROOT
BRANCH  12  24
ATOM     24  C   UNL     1       8.266   0.869  -0.847  0.00  0.00    +0.045 C 
ATOM     25  C   UNL     1       7.356   0.965   0.379  0.00  0.00    +0.008 C 
ATOM     26  C   UNL     1       8.147   0.588   1.633  0.00  0.00    +0.000 C 
ATOM     27  C   UNL     1       9.328   1.546   1.798  0.00  0.00    +0.000 C 
ATOM     28  C   UNL     1      10.238   1.450   0.572  0.00  0.00    +0.000 C 
ATOM     29  C   UNL     1       9.447   1.828  -0.682  0.00  0.00    +0.008 C 
ENDBRANCH  12  24
BRANCH  10  30
ATOM     30  C   UNL     1       5.593   0.670  -4.574  0.00  0.00    +0.193 C 
ATOM     31  O   UNL     1       4.691   0.865  -5.352  0.00  0.00    -0.292 OA
BRANCH  30  32
ATOM     32  C   UNL     1       6.869   0.021  -5.048  0.00  0.00    +0.233 C 
BRANCH  32  33
ATOM     33  O   UNL     1       6.767  -0.267  -6.444  0.00  0.00    -0.387 OA
ATOM     34  H   UNL     1       7.554  -0.686  -6.817  0.00  0.00    +0.210 HD
ENDBRANCH  32  33
ENDBRANCH  30  32
ENDBRANCH  10  30
BRANCH   4  35
ATOM     35  O   UNL     1       1.378  -0.195  -2.771  0.00  0.00    -0.391 OA
ATOM     36  H   UNL     1       1.488  -0.886  -3.438  0.00  0.00    +0.210 HD
ENDBRANCH   4  35
TORSDOF 5
