REMARK  Name = ZINC46666177
REMARK  5 active torsions:
REMARK  status: ('A' for Active; 'I' for Inactive)
REMARK    1  A    between atoms: C_1  and  C_2
REMARK    2  A    between atoms: C_4  and  C_21
REMARK    3  A    between atoms: C_6  and  N_8
REMARK    4  A    between atoms: C_9  and  C_11
REMARK    5  A    between atoms: C_12  and  N_16
REMARK                            x       y       z     vdW  Elec       q    Type
REMARK                         _______ _______ _______ _____ _____    ______ ____
ROOT
ATOM      1  N   UNL     1       0.050  -2.797   2.392  0.00  0.00    -0.281 N 
ATOM      2  C   UNL     1       0.148  -2.134   3.561  0.00  0.00    +0.257 C 
ATOM      3  O   UNL     1       0.133  -0.917   3.574  0.00  0.00    -0.269 OA
ATOM      4  H   UNL     1      -0.015  -3.765   2.387  0.00  0.00    +0.155 HD
ENDROOT
BRANCH   1  10
ATOM      5  C   UNL     1      -1.513  -2.363  -2.249  0.00  0.00    +0.044 C 
ATOM      6  C   UNL     1      -0.708  -1.856  -1.080  0.00  0.00    -0.048 A 
ATOM      7  C   UNL     1       0.025  -0.690  -1.201  0.00  0.00    +0.006 A 
ATOM      8  C   UNL     1       0.766  -0.221  -0.131  0.00  0.00    -0.048 A 
ATOM      9  C   UNL     1       0.776  -0.918   1.061  0.00  0.00    +0.026 A 
ATOM     10  C   UNL     1       0.041  -2.089   1.186  0.00  0.00    +0.034 A 
ATOM     11  C   UNL     1      -0.706  -2.554   0.112  0.00  0.00    +0.026 A 
ATOM     12  C   UNL     1       1.563   1.050  -0.268  0.00  0.00    +0.044 C 
ENDBRANCH   1  10
BRANCH   2  13
ATOM     13  C   UNL     1       0.273  -2.877   4.814  0.00  0.00    +0.100 A 
ATOM     14  C   UNL     1       0.381  -2.392   6.116  0.00  0.00    +0.088 A 
ATOM     15  C   UNL     1       0.486  -3.354   7.101  0.00  0.00    +0.036 A 
ATOM     16  C   UNL     1       0.478  -4.661   6.748  0.00  0.00    +0.048 A 
ATOM     17  S   UNL     1       0.321  -4.640   5.075  0.00  0.00    -0.090 S 
BRANCH  14  18
ATOM     18  N   UNL     1       0.382  -1.023   6.405  0.00  0.00    -0.199 N 
ATOM     19  C   UNL     1       0.485  -0.441   7.621  0.00  0.00    +0.250 A 
ATOM     20  N   UNL     1       0.443   0.853   7.436  0.00  0.00    -0.116 NA
ATOM     21  N   UNL     1       0.320   1.129   6.188  0.00  0.00    -0.023 NA
ATOM     22  N   UNL     1       0.282   0.043   5.494  0.00  0.00    -0.039 NA
ENDBRANCH  14  18
ENDBRANCH   2  13
TORSDOF 3
