REMARK  Name = ZINC27034920
REMARK  10 active torsions:
REMARK  status: ('A' for Active; 'I' for Inactive)
REMARK    1  A    between atoms: C_1  and  C_2
REMARK    2  A    between atoms: C_2  and  C_3
REMARK    3  A    between atoms: C_3  and  C_4
REMARK    4  A    between atoms: C_4  and  C_5
REMARK    5  A    between atoms: C_7  and  C_10
REMARK    6  A    between atoms: C_10  and  C_12
REMARK    7  A    between atoms: C_10  and  N_13
REMARK    8  A    between atoms: N_13  and  C_14
REMARK    9  A    between atoms: C_14  and  C_16
REMARK   10  A    between atoms: C_14  and  C_17
REMARK                            x       y       z     vdW  Elec       q    Type
REMARK                         _______ _______ _______ _____ _____    ______ ____
ROOT
ATOM      1  N   UNL     1      -7.115  -3.135   1.242  0.00  0.00    +0.391 N 
ATOM      2  H   UNL     1      -7.061  -2.159   0.993  0.00  0.00    -0.084 HD
ATOM      3  H   UNL     1      -7.384  -3.674   0.433  0.00  0.00    -0.084 HD
ENDROOT
BRANCH   1   4
ATOM      4  C   UNL     1      -5.803  -3.591   1.721  0.00  0.00    +0.016 C 
ATOM      5  C   UNL     1      -4.793  -3.535   0.574  0.00  0.00    -0.004 C 
BRANCH   4   8
ATOM      6  C   UNL     1      -4.518  -2.039   4.735  0.00  0.00    +0.172 A 
ATOM      7  N   UNL     1      -4.815  -3.095   3.969  0.00  0.00    -0.198 NA
ATOM      8  C   UNL     1      -5.340  -2.698   2.843  0.00  0.00    +0.213 A 
ATOM      9  O   UNL     1      -5.395  -1.360   2.855  0.00  0.00    -0.340 OA
ATOM     10  N   UNL     1      -4.858  -0.952   4.104  0.00  0.00    -0.061 NA
BRANCH   6  11
ATOM     11  C   UNL     1      -3.898  -2.098   6.107  0.00  0.00    +0.080 C 
BRANCH  11  12
ATOM     12  C   UNL     1      -5.002  -2.186   7.162  0.00  0.00    +0.008 C 
BRANCH  12  14
ATOM     13  C   UNL     1      -5.476  -2.333   9.611  0.00  0.00    +0.004 C 
ATOM     14  C   UNL     1      -4.372  -2.246   8.555  0.00  0.00    -0.003 C 
ENDBRANCH  12  14
ENDBRANCH  11  12
ENDBRANCH   6  11
ENDBRANCH   4   8
ENDBRANCH   1   4
BRANCH   1  15
ATOM     15  C   UNL     1      -8.114  -3.315   2.304  0.00  0.00    -0.043 C 
ATOM     16  C   UNL     1      -8.304  -4.808   2.578  0.00  0.00    -0.009 C 
BRANCH  15  17
ATOM     17  C   UNL     1      -9.425  -2.714   1.867  0.00  0.00    -0.060 A 
ATOM     18  C   UNL     1      -9.854  -2.870   0.562  0.00  0.00    +0.006 A 
ATOM     19  C   UNL     1     -11.057  -2.323   0.153  0.00  0.00    +0.048 A 
ATOM     20  C   UNL     1     -11.834  -1.615   1.054  0.00  0.00    +0.142 A 
ATOM     21  C   UNL     1     -11.400  -1.456   2.370  0.00  0.00    +0.076 A 
ATOM     22  C   UNL     1     -10.198  -2.012   2.774  0.00  0.00    +0.029 A 
ATOM     23  N   UNL     1     -12.196  -0.735   3.271  0.00  0.00    -0.280 N 
ATOM     24  C   UNL     1     -13.484  -0.484   2.952  0.00  0.00    +0.255 C 
ATOM     25  O   UNL     1     -14.182   0.165   3.702  0.00  0.00    -0.272 OA
ATOM     26  C   UNL     1     -14.051  -1.013   1.659  0.00  0.00    +0.325 C 
ATOM     27  O   UNL     1     -13.019  -1.071   0.670  0.00  0.00    -0.481 OA
ATOM     28  H   UNL     1     -11.827  -0.422   4.112  0.00  0.00    +0.155 HD
ENDBRANCH  15  17
ENDBRANCH   1  15
TORSDOF 7
