REMARK  Name = ZINC20574775
REMARK  5 active torsions:
REMARK  status: ('A' for Active; 'I' for Inactive)
REMARK    1  A    between atoms: C_6  and  C_7
REMARK    2  A    between atoms: C_7  and  N_8
REMARK    3  A    between atoms: N_12  and  S_14
REMARK    4  A    between atoms: S_14  and  C_17
REMARK    5  A    between atoms: C_20  and  C_22
REMARK                            x       y       z     vdW  Elec       q    Type
REMARK                         _______ _______ _______ _____ _____    ______ ____
ROOT
ATOM      1  S   UNL     1      -3.361  -3.707  -3.437  0.00  0.00    +0.068 S 
ATOM      2  O   UNL     1      -3.587  -4.577  -2.336  0.00  0.00    -0.152 OA
ATOM      3  O   UNL     1      -4.252  -3.627  -4.541  0.00  0.00    -0.152 OA
ENDROOT
BRANCH   1   8
ATOM      4  N   UNL     1      -1.727  -1.018  -1.372  0.00  0.00    -0.284 NA
ATOM      5  C   UNL     1      -2.072   0.242  -2.045  0.00  0.00    +0.087 C 
ATOM      6  C   UNL     1      -2.348  -0.026  -3.526  0.00  0.00    +0.032 C 
ATOM      7  C   UNL     1      -3.526  -1.000  -3.648  0.00  0.00    +0.112 C 
ATOM      8  N   UNL     1      -3.242  -2.177  -2.813  0.00  0.00    -0.162 NA
ATOM      9  C   UNL     1      -2.852  -1.964  -1.413  0.00  0.00    +0.195 C 
BRANCH   4  10
ATOM     10  C   UNL     1      -1.293  -0.775   0.010  0.00  0.00    +0.120 C 
BRANCH  10  16
ATOM     11  C   UNL     1      -0.017   1.378   0.010  0.00  0.00    +0.008 A 
ATOM     12  C   UNL     1       1.170   2.086   0.002  0.00  0.00    +0.038 A 
ATOM     13  C   UNL     1       2.379   1.410  -0.013  0.00  0.00    +0.123 A 
ATOM     14  C   UNL     1       2.396   0.026  -0.021  0.00  0.00    +0.038 A 
ATOM     15  C   UNL     1       1.208  -0.680  -0.013  0.00  0.00    +0.008 A 
ATOM     16  C   UNL     1       0.002  -0.004   0.002  0.00  0.00    -0.033 A 
ATOM     17  F   UNL     1       3.540   2.101  -0.021  0.00  0.00    -0.205 F 
ENDBRANCH  10  16
ENDBRANCH   4  10
ENDBRANCH   1   8
BRANCH   1  18
ATOM     18  C   UNL     1      -1.780  -4.125  -4.093  0.00  0.00    +0.143 A 
ATOM     19  C   UNL     1      -0.735  -4.736  -3.479  0.00  0.00    +0.037 A 
ATOM     20  C   UNL     1       0.420  -4.968  -4.192  0.00  0.00    +0.020 A 
ATOM     21  C   UNL     1       0.476  -4.574  -5.502  0.00  0.00    +0.041 A 
ATOM     22  S   UNL     1      -1.145  -3.863  -5.741  0.00  0.00    -0.067 S 
BRANCH  21  23
ATOM     23  C   UNL     1       1.585  -4.707  -6.469  0.00  0.00    +0.098 A 
ATOM     24  C   UNL     1       1.433  -4.220  -7.790  0.00  0.00    +0.036 A 
ATOM     25  C   UNL     1       2.478  -4.361  -8.654  0.00  0.00    +0.073 A 
ATOM     26  C   UNL     1       3.652  -4.986  -8.176  0.00  0.00    +0.265 A 
ATOM     27  O   UNL     1       4.613  -5.133  -8.913  0.00  0.00    -0.266 OA
ATOM     28  N   UNL     1       3.703  -5.417  -6.902  0.00  0.00    -0.243 N 
ATOM     29  H   UNL     1       4.512  -5.845  -6.581  0.00  0.00    +0.192 HD
ATOM     30  N   UNL     1       2.712  -5.272  -6.098  0.00  0.00    -0.170 NA
ENDBRANCH  21  23
ENDBRANCH   1  18
TORSDOF 5
