REMARK  Name = ZINC20663114
REMARK  5 active torsions:
REMARK  status: ('A' for Active; 'I' for Inactive)
REMARK    1  A    between atoms: C_5  and  C_7
REMARK    2  A    between atoms: N_9  and  C_10
REMARK    3  A    between atoms: C_10  and  C_21
REMARK    4  A    between atoms: C_11  and  C_12
REMARK    5  A    between atoms: C_16  and  N_18
REMARK                            x       y       z     vdW  Elec       q    Type
REMARK                         _______ _______ _______ _____ _____    ______ ____
ROOT
ATOM      1  C   UNL     1      -1.273   6.030  -0.126  0.00  0.00    +0.097 C 
ATOM      2  C   UNL     1      -0.178   5.237  -0.098  0.00  0.00    +0.036 C 
ENDROOT
BRANCH   1   3
ATOM      3  C   UNL     1      -1.122   7.491  -0.193  0.00  0.00    +0.261 C 
ATOM      4  O   UNL     1      -1.119   8.053  -1.272  0.00  0.00    -0.269 OA
ATOM      5  N   UNL     1      -0.988   8.207   0.941  0.00  0.00    -0.296 N 
ATOM      6  C   UNL     1      -0.940   9.674   0.901  0.00  0.00    +0.113 C 
ATOM      7  C   UNL     1       0.250  10.190   1.688  0.00  0.00    +0.027 C 
ATOM      8  C   UNL     1       0.312   9.556   3.078  0.00  0.00    +0.018 C 
ATOM      9  C   UNL     1       0.416   8.038   2.911  0.00  0.00    +0.054 C 
ATOM     10  C   UNL     1      -0.878   7.536   2.246  0.00  0.00    +0.117 C 
ATOM     11  C   UNL     1       1.564   7.703   1.988  0.00  0.00    +0.027 A 
ATOM     12  C   UNL     1       2.137   6.477   2.125  0.00  0.00    +0.022 A 
ATOM     13  C   UNL     1       3.162   6.069   1.265  0.00  0.00    +0.007 A 
ATOM     14  C   UNL     1       3.563   6.914   0.272  0.00  0.00    +0.070 A 
ATOM     15  C   UNL     1       2.955   8.171   0.160  0.00  0.00    +0.251 A 
ATOM     16  O   UNL     1       3.274   8.916  -0.753  0.00  0.00    -0.268 OA
ATOM     17  N   UNL     1       2.017   8.571   1.054  0.00  0.00    -0.312 N 
ATOM     18  C   UNL     1       1.560   9.957   0.957  0.00  0.00    +0.130 C 
ENDBRANCH   1   3
BRANCH   2  19
ATOM     19  C   UNL     1      -0.323   3.777  -0.202  0.00  0.00    -0.021 A 
ATOM     20  C   UNL     1      -1.470   3.224  -0.782  0.00  0.00    +0.008 A 
ATOM     21  C   UNL     1      -1.596   1.855  -0.881  0.00  0.00    +0.003 A 
ATOM     22  C   UNL     1      -0.598   1.027  -0.397  0.00  0.00    +0.033 A 
ATOM     23  C   UNL     1       0.540   1.566   0.178  0.00  0.00    +0.127 A 
ATOM     24  C   UNL     1       0.684   2.934   0.279  0.00  0.00    +0.040 A 
BRANCH  23  25
ATOM     25  N   UNL     1       1.604   0.672   0.686  0.00  0.00    +0.056 N 
ATOM     26  O   UNL     1       1.479  -0.536   0.597  0.00  0.00    -0.126 OA
ATOM     27  O   UNL     1       2.606   1.145   1.193  0.00  0.00    -0.126 OA
ENDBRANCH  23  25
ENDBRANCH   2  19
BRANCH   1  30
ATOM     28  C   UNL     1      -3.446   5.756  -1.051  0.00  0.00    +0.251 C 
ATOM     29  O   UNL     1      -3.120   6.451  -1.994  0.00  0.00    -0.270 OA
ATOM     30  N   UNL     1      -2.549   5.460  -0.090  0.00  0.00    -0.277 N 
ATOM     31  H   UNL     1      -2.821   4.770   0.723  0.00  0.00    +0.155 HD
BRANCH  28  36
ATOM     32  C   UNL     1      -6.525   4.050   0.255  0.00  0.00    +0.001 A 
ATOM     33  C   UNL     1      -7.414   4.261  -0.786  0.00  0.00    +0.003 A 
ATOM     34  C   UNL     1      -7.017   4.955  -1.913  0.00  0.00    +0.039 A 
ATOM     35  C   UNL     1      -5.727   5.446  -2.008  0.00  0.00    +0.135 A 
ATOM     36  C   UNL     1      -4.826   5.237  -0.959  0.00  0.00    +0.072 A 
ATOM     37  C   UNL     1      -5.235   4.529   0.173  0.00  0.00    +0.016 A 
ATOM     38  F   UNL     1      -5.339   6.125  -3.110  0.00  0.00    -0.205 F 
ENDBRANCH  28  36
ENDBRANCH   1  30
TORSDOF 5
