REMARK  Name = ZINC00390702
REMARK  7 active torsions:
REMARK  status: ('A' for Active; 'I' for Inactive)
REMARK    1  A    between atoms: C_1  and  C_2
REMARK    2  A    between atoms: C_3  and  O_17
REMARK    3  A    between atoms: C_4  and  C_8
REMARK    4  A    between atoms: C_11  and  O_16
REMARK    5  A    between atoms: C_12  and  O_15
REMARK    6  A    between atoms: C_13  and  O_14
REMARK    7  A    between atoms: O_17  and  C_18
REMARK                            x       y       z     vdW  Elec       q    Type
REMARK                         _______ _______ _______ _____ _____    ______ ____
ROOT
ATOM      1  C   UNL     1      -0.018   1.503   0.010  0.00  0.00    +0.069 C 
ATOM      2  C   UNL     1       0.002  -0.004   0.002  0.00  0.00    +0.076 A 
ATOM      3  C   UNL     1       0.008  -0.796  -1.097  0.00  0.00    +0.176 A 
ATOM      4  C   UNL     1       0.029  -2.138  -0.661  0.00  0.00    +0.138 A 
ATOM      5  N   UNL     1       0.035  -2.140   0.655  0.00  0.00    -0.170 NA
ATOM      6  N   UNL     1       0.024  -0.811   1.096  0.00  0.00    -0.278 N 
ATOM      7  H   UNL     1       0.029  -0.517   2.020  0.00  0.00    +0.189 HD
ENDROOT
BRANCH   4   8
ATOM      8  C   UNL     1       0.041  -3.337  -1.534  0.00  0.00    +0.051 A 
ATOM      9  C   UNL     1       0.037  -3.192  -2.920  0.00  0.00    +0.017 A 
ATOM     10  C   UNL     1       0.049  -4.307  -3.732  0.00  0.00    +0.050 A 
ATOM     11  C   UNL     1       0.064  -5.577  -3.174  0.00  0.00    +0.162 A 
ATOM     12  C   UNL     1       0.067  -5.733  -1.792  0.00  0.00    +0.201 A 
ATOM     13  C   UNL     1       0.061  -4.615  -0.969  0.00  0.00    +0.171 A 
BRANCH  13  14
ATOM     14  O   UNL     1       0.070  -4.763   0.382  0.00  0.00    -0.503 OA
ATOM     15  H   UNL     1      -0.811  -4.818   0.778  0.00  0.00    +0.292 HD
ENDBRANCH  13  14
BRANCH  12  16
ATOM     16  O   UNL     1       0.082  -6.980  -1.247  0.00  0.00    -0.501 OA
ATOM     17  H   UNL     1       0.969  -7.330  -1.090  0.00  0.00    +0.292 HD
ENDBRANCH  12  16
BRANCH  11  18
ATOM     18  O   UNL     1       0.076  -6.673  -3.979  0.00  0.00    -0.503 OA
ATOM     19  H   UNL     1       0.963  -6.980  -4.213  0.00  0.00    +0.292 HD
ENDBRANCH  11  18
ENDBRANCH   4   8
BRANCH   3  20
ATOM     20  O   UNL     1      -0.004  -0.372  -2.391  0.00  0.00    -0.452 OA
BRANCH  20  21
ATOM     21  C   UNL     1       1.190  -0.157  -3.003  0.00  0.00    +0.129 A 
ATOM     22  C   UNL     1       2.373  -0.375  -2.313  0.00  0.00    +0.049 A 
ATOM     23  C   UNL     1       3.586  -0.156  -2.937  0.00  0.00    +0.042 A 
ATOM     24  C   UNL     1       3.621   0.281  -4.250  0.00  0.00    +0.124 A 
ATOM     25  C   UNL     1       2.441   0.498  -4.940  0.00  0.00    +0.042 A 
ATOM     26  C   UNL     1       1.226   0.275  -4.321  0.00  0.00    +0.049 A 
ATOM     27  F   UNL     1       4.808   0.495  -4.859  0.00  0.00    -0.205 F 
ENDBRANCH  20  21
ENDBRANCH   3  20
TORSDOF 6
