REMARK  Name = ZINC29193858
REMARK  8 active torsions:
REMARK  status: ('A' for Active; 'I' for Inactive)
REMARK    1  A    between atoms: C_1  and  C_2
REMARK    2  A    between atoms: C_3  and  C_12
REMARK    3  A    between atoms: C_12  and  C_14
REMARK    4  A    between atoms: C_14  and  C_16
REMARK    5  A    between atoms: C_14  and  N_17
REMARK    6  A    between atoms: N_20  and  S_23
REMARK    7  A    between atoms: S_23  and  C_26
REMARK    8  A    between atoms: C_29  and  C_32
REMARK                            x       y       z     vdW  Elec       q    Type
REMARK                         _______ _______ _______ _____ _____    ______ ____
ROOT
ATOM      1  N   UNL     1       1.141  -2.653  -4.561  0.00  0.00    +0.388 N 
ATOM      2  C   UNL     1       2.389  -2.232  -3.912  0.00  0.00    -0.060 C 
ATOM      3  C   UNL     1       2.523  -2.942  -2.561  0.00  0.00    +0.091 C 
ATOM      4  N   UNL     1       1.301  -2.695  -1.780  0.00  0.00    -0.180 NA
ATOM      5  C   UNL     1       0.003  -2.970  -2.413  0.00  0.00    +0.091 C 
ATOM      6  C   UNL     1      -0.032  -2.253  -3.772  0.00  0.00    -0.060 C 
ATOM      7  H   UNL     1       1.147  -3.752  -4.618  0.00  0.00    -0.081 HD
ENDROOT
BRANCH   4   8
ATOM      8  S   UNL     1       1.386  -2.129  -0.226  0.00  0.00    +0.061 S 
ATOM      9  O   UNL     1       2.665  -2.497   0.271  0.00  0.00    -0.153 OA
ATOM     10  O   UNL     1       0.179  -2.518   0.415  0.00  0.00    -0.153 OA
BRANCH   8  11
ATOM     11  C   UNL     1       1.365  -0.369  -0.311  0.00  0.00    +0.106 A 
ATOM     12  C   UNL     1       0.160   0.308  -0.275  0.00  0.00    +0.030 A 
ATOM     13  C   UNL     1       0.136   1.686  -0.341  0.00  0.00    +0.021 A 
ATOM     14  C   UNL     1       1.334   2.397  -0.444  0.00  0.00    +0.052 A 
ATOM     15  C   UNL     1       2.547   1.707  -0.480  0.00  0.00    +0.021 A 
ATOM     16  C   UNL     1       2.556   0.329  -0.413  0.00  0.00    +0.030 A 
BRANCH  14  17
ATOM     17  C   UNL     1       1.317   3.827  -0.513  0.00  0.00    +0.099 C 
ATOM     18  N   UNL     1       1.304   4.962  -0.567  0.00  0.00    -0.191 NA
ENDBRANCH  14  17
ENDBRANCH   8  11
ENDBRANCH   4   8
BRANCH   1  19
ATOM     19  C   UNL     1       1.057  -2.129  -5.931  0.00  0.00    +0.001 C 
ATOM     20  C   UNL     1       0.894  -0.608  -5.886  0.00  0.00    -0.005 C 
BRANCH  19  21
ATOM     21  C   UNL     1      -0.129  -2.741  -6.631  0.00  0.00    +0.152 C 
ATOM     22  O   UNL     1      -1.139  -2.088  -6.797  0.00  0.00    -0.294 OA
BRANCH  21  25
ATOM     23  C   UNL     1       0.783  -3.598  -9.467  0.00  0.00    +0.064 C 
ATOM     24  C   UNL     1       0.334  -4.501  -8.347  0.00  0.00    +0.024 A 
ATOM     25  C   UNL     1      -0.064  -4.078  -7.097  0.00  0.00    +0.044 A 
ATOM     26  C   UNL     1      -0.404  -5.298  -6.339  0.00  0.00    +0.010 A 
ATOM     27  C   UNL     1      -0.870  -5.537  -5.050  0.00  0.00    +0.011 A 
ATOM     28  C   UNL     1      -1.104  -6.830  -4.637  0.00  0.00    +0.001 A 
ATOM     29  C   UNL     1      -0.883  -7.891  -5.503  0.00  0.00    +0.002 A 
ATOM     30  C   UNL     1      -0.428  -7.668  -6.784  0.00  0.00    +0.026 A 
ATOM     31  C   UNL     1      -0.186  -6.369  -7.219  0.00  0.00    +0.047 A 
ATOM     32  N   UNL     1       0.261  -5.844  -8.415  0.00  0.00    -0.358 N 
ATOM     33  H   UNL     1       0.542  -6.364  -9.342  0.00  0.00    +0.166 HD
ENDBRANCH  21  25
ENDBRANCH  19  21
ENDBRANCH   1  19
TORSDOF 6
