REMARK  Name = ZINC64052823
REMARK  9 active torsions:
REMARK  status: ('A' for Active; 'I' for Inactive)
REMARK    1  A    between atoms: C_1  and  C_2
REMARK    2  A    between atoms: C_2  and  C_4
REMARK    3  A    between atoms: C_2  and  N_32
REMARK    4  A    between atoms: C_8  and  S_17
REMARK    5  A    between atoms: N_9  and  C_10
REMARK    6  A    between atoms: S_17  and  C_18
REMARK    7  A    between atoms: C_18  and  C_19
REMARK    8  A    between atoms: C_19  and  C_20
REMARK    9  A    between atoms: C_20  and  N_21
REMARK                            x       y       z     vdW  Elec       q    Type
REMARK                         _______ _______ _______ _____ _____    ______ ____
ROOT
ATOM      1  C   UNL     1      -1.419  -0.420   0.093  0.00  0.00    +0.168 C 
ATOM      2  N   UNL     1      -1.559  -1.886   0.069  0.00  0.00    -0.248 N 
ATOM      3  N   UNL     1      -2.347  -2.184  -1.050  0.00  0.00    -0.162 NA
ATOM      4  C   UNL     1      -2.690  -1.115  -1.685  0.00  0.00    +0.179 C 
ATOM      5  N   UNL     1      -2.184   0.031  -1.082  0.00  0.00    -0.260 N 
ATOM      6  H   UNL     1      -1.182  -2.518   0.701  0.00  0.00    +0.170 HD
ENDROOT
BRANCH   5   7
ATOM      7  C   UNL     1      -2.363   1.352  -1.506  0.00  0.00    +0.038 A 
ATOM      8  C   UNL     1      -1.815   1.777  -2.710  0.00  0.00    +0.026 A 
ATOM      9  C   UNL     1      -1.994   3.081  -3.126  0.00  0.00    +0.040 A 
ATOM     10  C   UNL     1      -2.719   3.966  -2.345  0.00  0.00    +0.124 A 
ATOM     11  C   UNL     1      -3.265   3.545  -1.145  0.00  0.00    +0.040 A 
ATOM     12  C   UNL     1      -3.095   2.239  -0.727  0.00  0.00    +0.026 A 
ATOM     13  F   UNL     1      -2.892   5.241  -2.755  0.00  0.00    -0.205 F 
ENDBRANCH   5   7
BRANCH   1  15
ATOM     14  C   UNL     1       0.605  -0.537  -1.367  0.00  0.00    -0.010 C 
ATOM     15  C   UNL     1       0.052  -0.019  -0.038  0.00  0.00    -0.031 C 
BRANCH  15  16
ATOM     16  N   UNL     1       0.166   1.445   0.003  0.00  0.00    +0.384 N 
ATOM     17  C   UNL     1       1.578   1.827  -0.116  0.00  0.00    -0.078 C 
ATOM     18  C   UNL     1       1.696   3.353  -0.155  0.00  0.00    -0.019 C 
ATOM     19  C   UNL     1       1.114   3.937   1.135  0.00  0.00    -0.004 C 
ATOM     20  C   UNL     1      -0.337   3.471   1.286  0.00  0.00    -0.019 C 
ATOM     21  C   UNL     1      -0.379   1.941   1.272  0.00  0.00    -0.078 C 
ATOM     22  H   UNL     1      -0.354   1.843  -0.764  0.00  0.00    -0.081 HD
ENDBRANCH  15  16
ENDBRANCH   1  15
BRANCH   4  23
ATOM     23  S   UNL     1      -3.681  -1.107  -3.142  0.00  0.00    -0.089 S 
BRANCH  23  24
ATOM     24  C   UNL     1      -4.034  -2.861  -3.442  0.00  0.00    +0.079 C 
BRANCH  24  25
ATOM     25  C   UNL     1      -4.900  -3.000  -4.696  0.00  0.00    +0.033 C 
BRANCH  25  26
ATOM     26  C   UNL     1      -5.197  -4.479  -4.948  0.00  0.00    +0.128 C 
BRANCH  26  27
ATOM     27  N   UNL     1      -6.026  -4.612  -6.149  0.00  0.00    -0.292 N 
ATOM     28  C   UNL     1      -7.419  -4.602  -6.183  0.00  0.00    +0.070 A 
ATOM     29  C   UNL     1      -8.394  -4.476  -5.206  0.00  0.00    +0.028 A 
ATOM     30  C   UNL     1      -9.729  -4.504  -5.559  0.00  0.00    +0.002 A 
ATOM     31  C   UNL     1     -10.097  -4.657  -6.884  0.00  0.00    +0.002 A 
ATOM     32  C   UNL     1      -9.133  -4.783  -7.865  0.00  0.00    +0.028 A 
ATOM     33  C   UNL     1      -7.791  -4.756  -7.521  0.00  0.00    +0.067 A 
ATOM     34  N   UNL     1      -6.612  -4.855  -8.257  0.00  0.00    -0.306 N 
ATOM     35  H   UNL     1      -6.552  -4.969  -9.218  0.00  0.00    +0.170 HD
ATOM     36  C   UNL     1      -5.572  -4.760  -7.408  0.00  0.00    +0.328 A 
ATOM     37  O   UNL     1      -4.399  -4.804  -7.729  0.00  0.00    -0.247 OA
ENDBRANCH  26  27
ENDBRANCH  25  26
ENDBRANCH  24  25
ENDBRANCH  23  24
ENDBRANCH   4  23
TORSDOF 8
