REMARK  Name = ZINC12775304
REMARK  11 active torsions:
REMARK  status: ('A' for Active; 'I' for Inactive)
REMARK    1  A    between atoms: C_1  and  C_2
REMARK    2  A    between atoms: C_4  and  C_34
REMARK    3  A    between atoms: C_5  and  C_9
REMARK    4  A    between atoms: C_6  and  C_8
REMARK    5  A    between atoms: C_15  and  C_17
REMARK    6  A    between atoms: C_17  and  N_18
REMARK    7  A    between atoms: N_18  and  C_19
REMARK    8  A    between atoms: N_18  and  C_20
REMARK    9  A    between atoms: C_20  and  C_21
REMARK   10  A    between atoms: N_23  and  C_24
REMARK   11  A    between atoms: C_29  and  C_30
REMARK                            x       y       z     vdW  Elec       q    Type
REMARK                         _______ _______ _______ _____ _____    ______ ____
ROOT
ATOM      1  C   UNL     1       0.681  -9.739  -3.094  0.00  0.00    +0.019 C 
ENDROOT
BRANCH   1   8
ATOM      2  C   UNL     1       0.189  -4.573   0.034  0.00  0.00    +0.081 A 
ATOM      3  C   UNL     1       0.061  -5.244   1.218  0.00  0.00    +0.076 A 
ATOM      4  S   UNL     1       0.166  -6.937   0.652  0.00  0.00    -0.060 S 
ATOM      5  C   UNL     1       0.369  -6.579  -1.087  0.00  0.00    +0.165 A 
ATOM      6  N   UNL     1       0.335  -5.260  -1.090  0.00  0.00    -0.225 NA
ATOM      7  N   UNL     1       0.517  -7.457  -2.154  0.00  0.00    -0.266 N 
ATOM      8  C   UNL     1       0.520  -8.787  -1.937  0.00  0.00    +0.202 C 
ATOM      9  O   UNL     1       0.392  -9.218  -0.811  0.00  0.00    -0.277 OA
ATOM     10  H   UNL     1       0.619  -7.112  -3.055  0.00  0.00    +0.157 HD
BRANCH   2  15
ATOM     11  C   UNL     1       0.077   1.183  -0.073  0.00  0.00    +0.044 C 
ATOM     12  C   UNL     1       0.107  -0.323  -0.045  0.00  0.00    -0.050 A 
ATOM     13  C   UNL     1       0.949  -0.980   0.834  0.00  0.00    +0.007 A 
ATOM     14  C   UNL     1       0.980  -2.359   0.864  0.00  0.00    -0.041 A 
ATOM     15  C   UNL     1       0.160  -3.091   0.007  0.00  0.00    +0.007 A 
ATOM     16  C   UNL     1      -0.687  -2.424  -0.876  0.00  0.00    -0.041 A 
ATOM     17  C   UNL     1      -0.713  -1.044  -0.894  0.00  0.00    +0.007 A 
ATOM     18  C   UNL     1      -1.577  -3.207  -1.806  0.00  0.00    +0.044 C 
ATOM     19  C   UNL     1       1.900  -3.073   1.821  0.00  0.00    +0.044 C 
ENDBRANCH   2  15
ENDBRANCH   1   8
BRANCH   1  20
ATOM     20  N   UNL     1       0.650 -11.121  -2.599  0.00  0.00    +0.389 N 
ATOM     21  C   UNL     1       1.815 -11.358  -1.736  0.00  0.00    -0.095 C 
ATOM     22  H   UNL     1      -0.196 -11.271  -2.070  0.00  0.00    -0.081 HD
BRANCH  20  23
ATOM     23  C   UNL     1       0.687 -12.050  -3.736  0.00  0.00    +0.019 C 
BRANCH  23  24
ATOM     24  C   UNL     1       0.532 -13.463  -3.236  0.00  0.00    +0.201 C 
ATOM     25  O   UNL     1       0.404 -13.676  -2.049  0.00  0.00    -0.278 OA
ATOM     26  N   UNL     1       0.536 -14.491  -4.109  0.00  0.00    -0.287 N 
ATOM     27  H   UNL     1       0.556 -14.317  -5.063  0.00  0.00    +0.155 HD
BRANCH  26  28
ATOM     28  C   UNL     1       0.512 -15.808  -3.638  0.00  0.00    +0.045 A 
ATOM     29  C   UNL     1       0.989 -16.102  -2.367  0.00  0.00    +0.024 A 
ATOM     30  C   UNL     1       0.964 -17.403  -1.905  0.00  0.00    +0.002 A 
ATOM     31  C   UNL     1       0.465 -18.413  -2.706  0.00  0.00    +0.001 A 
ATOM     32  C   UNL     1      -0.011 -18.125  -3.972  0.00  0.00    +0.014 A 
ATOM     33  C   UNL     1       0.005 -16.824  -4.437  0.00  0.00    +0.076 A 
BRANCH  33  34
ATOM     34  C   UNL     1      -0.520 -16.509  -5.814  0.00  0.00    +0.419 C 
ATOM     35  F   UNL     1      -0.972 -17.685  -6.421  0.00  0.00    -0.166 F 
ATOM     36  F   UNL     1      -1.578 -15.600  -5.713  0.00  0.00    -0.166 F 
ATOM     37  F   UNL     1       0.504 -15.949  -6.587  0.00  0.00    -0.166 F 
ENDBRANCH  33  34
ENDBRANCH  26  28
ENDBRANCH  23  24
ENDBRANCH  20  23
ENDBRANCH   1  20
TORSDOF 7
