REMARK  Name = ZINC09129674
REMARK  9 active torsions:
REMARK  status: ('A' for Active; 'I' for Inactive)
REMARK    1  A    between atoms: C_1  and  C_2
REMARK    2  A    between atoms: C_12  and  C_21
REMARK    3  A    between atoms: C_15  and  C_17
REMARK    4  A    between atoms: C_17  and  C_18
REMARK    5  A    between atoms: C_18  and  C_19
REMARK    6  A    between atoms: C_18  and  C_20
REMARK    7  A    between atoms: N_23  and  C_24
REMARK    8  A    between atoms: C_27  and  O_30
REMARK    9  A    between atoms: O_30  and  C_31
REMARK                            x       y       z     vdW  Elec       q    Type
REMARK                         _______ _______ _______ _____ _____    ______ ____
ROOT
ATOM      1  C   UNL     1       5.060  -0.101   2.559  0.00  0.00    +0.046 C 
ATOM      2  C   UNL     1       4.203  -0.257   1.329  0.00  0.00    -0.028 A 
ATOM      3  C   UNL     1       4.461  -1.276   0.435  0.00  0.00    +0.025 A 
ATOM      4  C   UNL     1       3.680  -1.427  -0.697  0.00  0.00    +0.042 A 
ATOM      5  C   UNL     1       2.635  -0.550  -0.934  0.00  0.00    +0.024 A 
ATOM      6  C   UNL     1       2.376   0.469  -0.046  0.00  0.00    -0.026 A 
ATOM      7  C   UNL     1       3.154   0.629   1.097  0.00  0.00    +0.039 A 
ATOM      8  N   UNL     1       2.700   1.721   1.840  0.00  0.00    -0.286 N 
ATOM      9  C   UNL     1       1.644   2.325   1.264  0.00  0.00    +0.211 C 
ATOM     10  O   UNL     1       1.047   3.293   1.684  0.00  0.00    -0.277 OA
ATOM     11  C   UNL     1       1.347   1.567  -0.005  0.00  0.00    +0.049 C 
ATOM     12  C   UNL     1       1.481   2.486  -1.229  0.00  0.00    +0.076 C 
ATOM     13  C   UNL     1       0.006   2.857  -1.544  0.00  0.00    -0.004 C 
ATOM     14  C   UNL     1      -0.734   1.545  -1.179  0.00  0.00    -0.069 C 
ATOM     15 CL   UNL     1       4.009  -2.713  -1.816  0.00  0.00    -0.084 Cl
ATOM     16  H   UNL     1       3.100   2.011   2.675  0.00  0.00    +0.155 HD
ATOM     17  N   UNL     1      -0.013   1.029   0.001  0.00  0.00    +0.394 N 
ATOM     18  H   UNL     1      -0.497   1.323   0.857  0.00  0.00    -0.083 HD
ATOM     19  H   UNL     1       0.022   0.003  -0.038  0.00  0.00    -0.083 HD
ENDROOT
BRANCH  12  20
ATOM     20  C   UNL     1       2.104   1.747  -2.386  0.00  0.00    +0.220 C 
ATOM     21  O   UNL     1       1.410   1.082  -3.125  0.00  0.00    -0.275 OA
ATOM     22  N   UNL     1       3.433   1.826  -2.598  0.00  0.00    -0.285 N 
ATOM     23  H   UNL     1       3.999   2.293  -1.963  0.00  0.00    +0.155 HD
BRANCH  22  24
ATOM     24  C   UNL     1       3.997   1.233  -3.735  0.00  0.00    +0.034 A 
ATOM     25  C   UNL     1       5.264   0.669  -3.668  0.00  0.00    +0.027 A 
ATOM     26  C   UNL     1       5.817   0.080  -4.788  0.00  0.00    +0.047 A 
ATOM     27  C   UNL     1       5.112   0.061  -5.982  0.00  0.00    +0.120 A 
ATOM     28  C   UNL     1       3.848   0.630  -6.051  0.00  0.00    +0.047 A 
ATOM     29  C   UNL     1       3.292   1.215  -4.931  0.00  0.00    +0.027 A 
BRANCH  27  30
ATOM     30  O   UNL     1       5.659  -0.514  -7.086  0.00  0.00    -0.495 OA
ATOM     31  C   UNL     1       6.963  -1.080  -6.944  0.00  0.00    +0.277 C 
ENDBRANCH  27  30
ENDBRANCH  22  24
ENDBRANCH  12  20
BRANCH  14  32
ATOM     32  C   UNL     1      -2.195   1.837  -0.831  0.00  0.00    -0.013 C 
BRANCH  32  33
ATOM     33  C   UNL     1      -2.916   0.525  -0.518  0.00  0.00    -0.019 C 
ATOM     34  C   UNL     1      -4.341   0.825  -0.050  0.00  0.00    +0.007 C 
ATOM     35  C   UNL     1      -2.966  -0.343  -1.778  0.00  0.00    +0.007 C 
ENDBRANCH  32  33
ENDBRANCH  14  32
TORSDOF 5
