REMARK  Name = ZINC20116918
REMARK  11 active torsions:
REMARK  status: ('A' for Active; 'I' for Inactive)
REMARK    1  A    between atoms: C_1  and  C_2
REMARK    2  A    between atoms: C_2  and  O_3
REMARK    3  A    between atoms: O_3  and  C_4
REMARK    4  A    between atoms: C_7  and  N_10
REMARK    5  A    between atoms: C_11  and  C_13
REMARK    6  A    between atoms: C_13  and  N_14
REMARK    7  A    between atoms: C_21  and  S_25
REMARK    8  A    between atoms: C_22  and  C_24
REMARK    9  A    between atoms: S_25  and  N_28
REMARK   10  A    between atoms: C_30  and  C_37
REMARK   11  A    between atoms: C_33  and  C_36
REMARK                            x       y       z     vdW  Elec       q    Type
REMARK                         _______ _______ _______ _____ _____    ______ ____
ROOT
ATOM      1  N   UNL     1       3.815  -4.670  -0.368  0.00  0.00    -0.290 N 
ATOM      2  C   UNL     1       4.376  -4.796  -1.599  0.00  0.00    +0.203 A 
ATOM      3  N   UNL     1       5.603  -5.220  -1.741  0.00  0.00    -0.230 NA
ATOM      4  C   UNL     1       6.341  -5.551  -0.686  0.00  0.00    +0.117 A 
ATOM      5  C   UNL     1       5.844  -5.460   0.627  0.00  0.00    +0.099 A 
ATOM      6  C   UNL     1       4.497  -4.987   0.748  0.00  0.00    +0.264 A 
ATOM      7  O   UNL     1       3.977  -4.872   1.845  0.00  0.00    -0.267 OA
ATOM      8  C   UNL     1       6.776  -5.860   1.665  0.00  0.00    +0.130 A 
ATOM      9  C   UNL     1       8.004  -6.277   1.318  0.00  0.00    +0.016 A 
ATOM     10  S   UNL     1       7.993  -6.157  -0.461  0.00  0.00    -0.072 S 
ATOM     11  C   UNL     1       9.123  -6.736   2.216  0.00  0.00    +0.053 C 
ENDROOT
BRANCH   8  12
ATOM     12  S   UNL     1       6.301  -5.801   3.361  0.00  0.00    +0.062 S 
ATOM     13  O   UNL     1       4.896  -6.015   3.397  0.00  0.00    -0.153 OA
ATOM     14  O   UNL     1       7.216  -6.626   4.068  0.00  0.00    -0.153 OA
BRANCH  12  15
ATOM     15  N   UNL     1       6.557  -4.252   3.887  0.00  0.00    -0.176 NA
ATOM     16  C   UNL     1       7.848  -3.863   4.471  0.00  0.00    +0.112 C 
ATOM     17  C   UNL     1       8.375  -2.633   3.716  0.00  0.00    +0.002 C 
ATOM     18  C   UNL     1       7.315  -1.530   3.745  0.00  0.00    +0.009 C 
ATOM     19  C   UNL     1       6.047  -2.020   3.042  0.00  0.00    +0.002 C 
ATOM     20  C   UNL     1       5.495  -3.241   3.784  0.00  0.00    +0.112 C 
ATOM     21  C   UNL     1       6.381  -2.406   1.599  0.00  0.00    +0.009 C 
ATOM     22  C   UNL     1       9.653  -2.131   4.391  0.00  0.00    +0.009 C 
ENDBRANCH  12  15
ENDBRANCH   8  12
BRANCH   1  23
ATOM     23  C   UNL     1       2.437  -4.186  -0.255  0.00  0.00    +0.222 C 
BRANCH  23  25
ATOM     24  N   UNL     1       1.278  -2.014  -0.010  0.00  0.00    -0.284 N 
ATOM     25  C   UNL     1       2.442  -2.684  -0.129  0.00  0.00    +0.237 C 
ATOM     26  O   UNL     1       3.492  -2.078  -0.133  0.00  0.00    -0.274 OA
ATOM     27  H   UNL     1       0.332  -2.567   0.081  0.00  0.00    +0.155 HD
BRANCH  24  31
ATOM     28  C   UNL     1       1.265   2.156   0.008  0.00  0.00    +0.121 A 
ATOM     29  C   UNL     1       2.204   1.469  -0.747  0.00  0.00    +0.047 A 
ATOM     30  C   UNL     1       2.209   0.088  -0.753  0.00  0.00    +0.027 A 
ATOM     31  C   UNL     1       1.274  -0.613  -0.004  0.00  0.00    +0.034 A 
ATOM     32  C   UNL     1       0.333   0.075   0.751  0.00  0.00    +0.027 A 
ATOM     33  C   UNL     1       0.330   1.456   0.756  0.00  0.00    +0.047 A 
BRANCH  28  34
ATOM     34  O   UNL     1       1.260   3.515   0.014  0.00  0.00    -0.492 OA
BRANCH  34  36
ATOM     35  C   UNL     1       0.417   5.675   0.694  0.00  0.00    +0.048 C 
ATOM     36  C   UNL     1       0.265   4.157   0.813  0.00  0.00    +0.225 C 
ENDBRANCH  34  36
ENDBRANCH  28  34
ENDBRANCH  24  31
ENDBRANCH  23  25
ENDBRANCH   1  23
TORSDOF 7
