REMARK  Name = ZINC09346491
REMARK  8 active torsions:
REMARK  status: ('A' for Active; 'I' for Inactive)
REMARK    1  A    between atoms: C_1  and  C_2
REMARK    2  A    between atoms: N_5  and  S_11
REMARK    3  A    between atoms: C_7  and  C_10
REMARK    4  A    between atoms: S_11  and  C_14
REMARK    5  A    between atoms: C_17  and  C_20
REMARK    6  A    between atoms: C_26  and  C_28
REMARK    7  A    between atoms: C_32  and  S_34
REMARK    8  A    between atoms: S_34  and  C_35
REMARK                            x       y       z     vdW  Elec       q    Type
REMARK                         _______ _______ _______ _____ _____    ______ ____
ROOT
ATOM      1  C   UNL     1      -3.381  13.226   0.101  0.00  0.00    +0.106 A 
ATOM      2  C   UNL     1      -2.002  13.345   0.087  0.00  0.00    +0.029 A 
ATOM      3  C   UNL     1      -1.210  12.216   0.074  0.00  0.00    +0.015 A 
ATOM      4  C   UNL     1      -1.801  10.951   0.074  0.00  0.00    +0.037 A 
ATOM      5  C   UNL     1      -3.193  10.839   0.082  0.00  0.00    +0.015 A 
ATOM      6  C   UNL     1      -3.974  11.976   0.101  0.00  0.00    +0.029 A 
ENDROOT
BRANCH   4   7
ATOM      7  C   UNL     1      -0.959   9.737   0.059  0.00  0.00    +0.252 C 
ATOM      8  O   UNL     1       0.253   9.839   0.047  0.00  0.00    -0.270 OA
ATOM      9  N   UNL     1      -1.533   8.518   0.059  0.00  0.00    -0.234 N 
ATOM     10  C   UNL     1      -0.743   7.381   0.046  0.00  0.00    +0.315 A 
ATOM     11  N   UNL     1       0.568   7.347   0.033  0.00  0.00    -0.092 NA
ATOM     12  N   UNL     1       0.964   6.123   0.023  0.00  0.00    -0.106 NA
ATOM     13  C   UNL     1      -0.078   5.328   0.029  0.00  0.00    +0.250 A 
ATOM     14  O   UNL     1      -1.181   6.108   0.038  0.00  0.00    -0.405 OA
ATOM     15  H   UNL     1      -2.499   8.437   0.069  0.00  0.00    +0.160 HD
BRANCH  13  16
ATOM     16  C   UNL     1      -0.052   3.850   0.022  0.00  0.00    +0.040 A 
ATOM     17  C   UNL     1      -1.247   3.128   0.030  0.00  0.00    +0.013 A 
ATOM     18  C   UNL     1      -1.220   1.748   0.017  0.00  0.00    +0.002 A 
ATOM     19  C   UNL     1      -0.013   1.076   0.008  0.00  0.00    +0.015 A 
ATOM     20  C   UNL     1       1.183   1.785   0.000  0.00  0.00    +0.008 A 
ATOM     21  C   UNL     1       1.167   3.172   0.007  0.00  0.00    +0.028 A 
BRANCH  20  22
ATOM     22  S   UNL     1       2.720   0.922  -0.019  0.00  0.00    -0.129 S 
ATOM     23  C   UNL     1       2.240  -0.827  -0.024  0.00  0.00    +0.090 C 
ENDBRANCH  20  22
ENDBRANCH  13  16
ENDBRANCH   4   7
BRANCH   1  24
ATOM     24  S   UNL     1      -4.386  14.673   0.118  0.00  0.00    +0.061 S 
ATOM     25  O   UNL     1      -5.635  14.294   0.680  0.00  0.00    -0.153 OA
ATOM     26  O   UNL     1      -3.589  15.715   0.665  0.00  0.00    -0.153 OA
BRANCH  24  30
ATOM     27  C   UNL     1      -4.524  12.723  -3.246  0.00  0.00    +0.039 C 
ATOM     28  C   UNL     1      -5.380  13.963  -3.508  0.00  0.00    +0.131 C 
ATOM     29  C   UNL     1      -5.853  14.550  -2.173  0.00  0.00    +0.140 C 
ATOM     30  N   UNL     1      -4.681  15.082  -1.459  0.00  0.00    -0.172 NA
ATOM     31  C   UNL     1      -3.784  15.994  -2.186  0.00  0.00    +0.140 C 
ATOM     32  C   UNL     1      -3.409  15.332  -3.522  0.00  0.00    +0.131 C 
ATOM     33  O   UNL     1      -4.603  14.941  -4.203  0.00  0.00    -0.371 OA
ATOM     34  C   UNL     1      -2.632  16.330  -4.384  0.00  0.00    +0.039 C 
ENDBRANCH  24  30
ENDBRANCH   1  24
TORSDOF 5
