REMARK  Name = ZINC10185001
REMARK  9 active torsions:
REMARK  status: ('A' for Active; 'I' for Inactive)
REMARK    1  A    between atoms: C_1  and  C_2
REMARK    2  A    between atoms: C_2  and  N_3
REMARK    3  A    between atoms: C_7  and  C_9
REMARK    4  A    between atoms: C_9  and  C_11
REMARK    5  A    between atoms: C_9  and  N_17
REMARK    6  A    between atoms: N_17  and  C_18
REMARK    7  A    between atoms: C_21  and  N_26
REMARK    8  A    between atoms: C_22  and  O_24
REMARK    9  A    between atoms: O_24  and  C_25
REMARK                            x       y       z     vdW  Elec       q    Type
REMARK                         _______ _______ _______ _____ _____    ______ ____
ROOT
ATOM      1  C   UNL     1      -1.332   2.114   0.020  0.00  0.00    +0.188 C 
ENDROOT
BRANCH   1   6
ATOM      2  N   UNL     1      -2.219   1.208  -4.617  0.00  0.00    -0.299 N 
ATOM      3  C   UNL     1      -2.083   2.104  -3.620  0.00  0.00    +0.306 C 
ATOM      4  O   UNL     1      -2.222   3.290  -3.846  0.00  0.00    -0.252 OA
ATOM      5  N   UNL     1      -1.793   1.685  -2.372  0.00  0.00    -0.238 N 
ATOM      6  C   UNL     1      -1.656   2.582  -1.375  0.00  0.00    +0.245 C 
ATOM      7  O   UNL     1      -1.795   3.765  -1.601  0.00  0.00    -0.273 OA
ATOM      8  H   UNL     1      -2.108   0.261  -4.437  0.00  0.00    +0.150 HD
ATOM      9  H   UNL     1      -1.682   0.739  -2.192  0.00  0.00    +0.159 HD
BRANCH   2  11
ATOM     10  C   UNL     1      -2.633   0.454  -6.907  0.00  0.00    +0.024 C 
ATOM     11  C   UNL     1      -2.535   1.663  -5.973  0.00  0.00    +0.102 C 
ENDBRANCH   2  11
ENDBRANCH   1   6
BRANCH   1  12
ATOM     12  C   UNL     1      -0.017   1.378   0.010  0.00  0.00    -0.018 A 
ATOM     13  C   UNL     1       1.171   2.086   0.002  0.00  0.00    +0.006 A 
ATOM     14  C   UNL     1       2.377   1.411  -0.015  0.00  0.00    +0.000 A 
ATOM     15  C   UNL     1       2.396   0.029  -0.022  0.00  0.00    +0.000 A 
ATOM     16  C   UNL     1       1.208  -0.679  -0.013  0.00  0.00    +0.000 A 
ATOM     17  C   UNL     1       0.002  -0.004   0.002  0.00  0.00    +0.006 A 
ENDBRANCH   1  12
BRANCH   1  18
ATOM     18  N   UNL     1      -1.237   3.271   0.913  0.00  0.00    -0.329 N 
ATOM     19  H   UNL     1      -1.016   4.144   0.554  0.00  0.00    +0.147 HD
BRANCH  18  20
ATOM     20  C   UNL     1      -1.466   3.116   2.285  0.00  0.00    +0.032 A 
ATOM     21  C   UNL     1      -1.783   1.865   2.799  0.00  0.00    +0.025 A 
ATOM     22  C   UNL     1      -2.010   1.710   4.152  0.00  0.00    +0.029 A 
ATOM     23  C   UNL     1      -1.921   2.803   5.002  0.00  0.00    +0.078 A 
ATOM     24  C   UNL     1      -1.603   4.058   4.489  0.00  0.00    +0.143 A 
ATOM     25  C   UNL     1      -1.371   4.212   3.132  0.00  0.00    +0.070 A 
BRANCH  23  26
ATOM     26  N   UNL     1      -2.152   2.644   6.377  0.00  0.00    -0.268 N 
ATOM     27  C   UNL     1      -3.465   2.785   7.018  0.00  0.00    +0.114 C 
ATOM     28  C   UNL     1      -3.321   2.107   8.401  0.00  0.00    +0.029 C 
ATOM     29  C   UNL     1      -1.803   2.244   8.660  0.00  0.00    +0.098 C 
ATOM     30  C   UNL     1      -1.198   2.349   7.277  0.00  0.00    +0.220 C 
ATOM     31  O   UNL     1      -0.024   2.191   7.018  0.00  0.00    -0.275 OA
ENDBRANCH  23  26
BRANCH  24  32
ATOM     32  O   UNL     1      -1.516   5.131   5.320  0.00  0.00    -0.493 OA
ATOM     33  C   UNL     1      -1.186   6.388   4.725  0.00  0.00    +0.277 C 
ENDBRANCH  24  32
ENDBRANCH  18  20
ENDBRANCH   1  18
TORSDOF 7
