REMARK  Name = ZINC13567291
REMARK  10 active torsions:
REMARK  status: ('A' for Active; 'I' for Inactive)
REMARK    1  A    between atoms: C_1  and  O_2
REMARK    2  A    between atoms: O_2  and  C_3
REMARK    3  A    between atoms: C_5  and  C_13
REMARK    4  A    between atoms: C_7  and  O_11
REMARK    5  A    between atoms: C_8  and  O_9
REMARK    6  A    between atoms: O_9  and  C_10
REMARK    7  A    between atoms: O_11  and  C_12
REMARK    8  A    between atoms: C_24  and  S_26
REMARK    9  A    between atoms: S_26  and  C_27
REMARK   10  A    between atoms: C_27  and  C_28
REMARK                            x       y       z     vdW  Elec       q    Type
REMARK                         _______ _______ _______ _____ _____    ______ ____
ROOT
ATOM      1  C   UNL     1       2.402   0.386  -4.230  0.00  0.00    +0.067 C 
ATOM      2  C   UNL     1       1.724   0.064  -5.563  0.00  0.00    +0.109 C 
ATOM      3  C   UNL     1       2.152  -1.298  -6.041  0.00  0.00    +0.219 C 
ATOM      4  O   UNL     1       1.361  -1.999  -6.635  0.00  0.00    -0.275 OA
ATOM      5  N   UNL     1       3.401  -1.747  -5.819  0.00  0.00    -0.270 N 
ATOM      6  C   UNL     1       4.315  -0.972  -5.119  0.00  0.00    +0.137 A 
ATOM      7  C   UNL     1       3.871   0.082  -4.329  0.00  0.00    +0.067 A 
ATOM      8  C   UNL     1       4.806   0.841  -3.639  0.00  0.00    +0.280 A 
ATOM      9  O   UNL     1       4.412   1.877  -2.858  0.00  0.00    -0.265 OA
ATOM     10  N   UNL     1       6.095   0.535  -3.757  0.00  0.00    -0.183 NA
ATOM     11  C   UNL     1       6.485  -0.476  -4.520  0.00  0.00    +0.194 A 
ATOM     12  N   UNL     1       5.618  -1.222  -5.191  0.00  0.00    -0.206 NA
ATOM     13  H   UNL     1       3.665  -2.620  -6.151  0.00  0.00    +0.156 HD
ENDROOT
BRANCH   1  16
ATOM     14  C   UNL     1       0.606  -0.608  -1.056  0.00  0.00    +0.165 A 
ATOM     15  C   UNL     1       1.173   0.160  -2.063  0.00  0.00    +0.054 A 
ATOM     16  C   UNL     1       1.787  -0.452  -3.139  0.00  0.00    -0.032 A 
ATOM     17  C   UNL     1       1.839  -1.831  -3.217  0.00  0.00    +0.054 A 
ATOM     18  C   UNL     1       1.275  -2.606  -2.215  0.00  0.00    +0.165 A 
ATOM     19  C   UNL     1       0.661  -1.994  -1.128  0.00  0.00    +0.204 A 
BRANCH  14  21
ATOM     20  C   UNL     1      -0.017   1.425   0.010  0.00  0.00    +0.277 C 
ATOM     21  O   UNL     1       0.002  -0.004   0.002  0.00  0.00    -0.491 OA
ENDBRANCH  14  21
BRANCH  19  22
ATOM     22  O   UNL     1       0.111  -2.751  -0.140  0.00  0.00    -0.488 OA
ATOM     23  C   UNL     1      -1.260  -3.124  -0.295  0.00  0.00    +0.277 C 
ENDBRANCH  19  22
BRANCH  18  24
ATOM     24  O   UNL     1       1.326  -3.963  -2.293  0.00  0.00    -0.491 OA
ATOM     25  C   UNL     1       1.977  -4.523  -3.435  0.00  0.00    +0.277 C 
ENDBRANCH  18  24
ENDBRANCH   1  16
BRANCH  11  26
ATOM     26  S   UNL     1       8.204  -0.841  -4.644  0.00  0.00    -0.081 S 
BRANCH  26  27
ATOM     27  C   UNL     1       8.994   0.403  -3.586  0.00  0.00    +0.112 C 
BRANCH  27  28
ATOM     28  C   UNL     1      10.488   0.202  -3.603  0.00  0.00    -0.037 A 
ATOM     29  C   UNL     1      11.083  -0.635  -2.678  0.00  0.00    +0.004 A 
ATOM     30  C   UNL     1      12.453  -0.820  -2.694  0.00  0.00    +0.000 A 
ATOM     31  C   UNL     1      13.227  -0.168  -3.635  0.00  0.00    +0.000 A 
ATOM     32  C   UNL     1      12.632   0.669  -4.561  0.00  0.00    +0.000 A 
ATOM     33  C   UNL     1      11.262   0.850  -4.548  0.00  0.00    +0.004 A 
ENDBRANCH  27  28
ENDBRANCH  26  27
ENDBRANCH  11  26
TORSDOF 7
