REMARK  Name = ZINC21952073
REMARK  3 active torsions:
REMARK  status: ('A' for Active; 'I' for Inactive)
REMARK    1  A    between atoms: C_3  and  C_8
REMARK    2  A    between atoms: C_8  and  C_10
REMARK    3  A    between atoms: C_8  and  O_20
REMARK                            x       y       z     vdW  Elec       q    Type
REMARK                         _______ _______ _______ _____ _____    ______ ____
ROOT
ATOM      1  C   UNL     1       2.188   0.438  -0.265  0.00  0.00    +0.017 C 
ATOM      2  C   UNL     1       1.609  -0.832  -0.226  0.00  0.00    -0.048 C 
ATOM      3  C   UNL     1       0.330  -0.904   0.228  0.00  0.00    +0.079 C 
ATOM      4  S   UNL     1      -0.085   0.778   0.604  0.00  0.00    -0.098 S 
ATOM      5  C   UNL     1       1.472   1.520   0.141  0.00  0.00    +0.095 C 
ATOM      6  N   UNL     1       1.854   2.863   0.183  0.00  0.00    -0.292 NA
ATOM      7  C   UNL     1      -0.518  -2.126   0.370  0.00  0.00    +0.019 C 
ATOM      8  C   UNL     1       0.141  -3.267  -0.419  0.00  0.00    +0.002 C 
ATOM      9  C   UNL     1       1.631  -3.311  -0.066  0.00  0.00    +0.004 C 
ATOM     10  C   UNL     1       2.344  -2.096  -0.662  0.00  0.00    +0.032 C 
ATOM     11  H   UNL     1       1.147   3.625   0.542  0.00  0.00    +0.187 HD
ENDROOT
BRANCH   1  12
ATOM     12  C   UNL     1       3.603   0.609  -0.756  0.00  0.00    +0.177 C 
BRANCH  12  15
ATOM     13  C   UNL     1       5.704   2.507   1.741  0.00  0.00    +0.003 A 
ATOM     14  C   UNL     1       4.880   2.222   0.668  0.00  0.00    +0.006 A 
ATOM     15  C   UNL     1       4.506   0.917   0.410  0.00  0.00    -0.012 A 
ATOM     16  C   UNL     1       4.964  -0.106   1.218  0.00  0.00    +0.044 A 
ATOM     17  C   UNL     1       5.793   0.177   2.289  0.00  0.00    +0.124 A 
ATOM     18  C   UNL     1       6.163   1.486   2.550  0.00  0.00    +0.038 A 
ATOM     19  F   UNL     1       6.242  -0.823   3.080  0.00  0.00    -0.205 F 
ENDBRANCH  12  15
BRANCH  12  20
ATOM     20  O   UNL     1       3.654   1.684  -1.696  0.00  0.00    -0.382 OA
ATOM     21  H   UNL     1       3.056   1.638  -2.618  0.00  0.00    +0.211 HD
ENDBRANCH  12  20
ENDBRANCH   1  12
TORSDOF 3
