REMARK  Name = ZINC04146685
REMARK  8 active torsions:
REMARK  status: ('A' for Active; 'I' for Inactive)
REMARK    1  A    between atoms: C_1  and  C_2
REMARK    2  A    between atoms: C_2  and  C_3
REMARK    3  A    between atoms: C_2  and  C_4
REMARK    4  A    between atoms: C_4  and  C_5
REMARK    5  A    between atoms: C_8  and  C_11
REMARK    6  A    between atoms: C_18  and  N_29
REMARK    7  A    between atoms: C_19  and  C_27
REMARK    8  A    between atoms: C_20  and  C_22
REMARK                            x       y       z     vdW  Elec       q    Type
REMARK                         _______ _______ _______ _____ _____    ______ ____
ROOT
ATOM      1  C   UNL     1      -1.522  -6.729  -0.429  0.00  0.00    +0.100 A 
ATOM      2  C   UNL     1      -0.596  -7.408   0.370  0.00  0.00    +0.057 A 
ATOM      3  C   UNL     1      -0.680  -8.738   0.076  0.00  0.00    +0.223 A 
ATOM      4  N   UNL     1      -1.627  -8.890  -0.873  0.00  0.00    -0.246 N 
ATOM      5  H   UNL     1      -1.902  -9.729  -1.274  0.00  0.00    +0.192 HD
ATOM      6  N   UNL     1      -2.146  -7.622  -1.174  0.00  0.00    -0.171 NA
ATOM      7  O   UNL     1       0.095  -9.671   0.682  0.00  0.00    -0.423 OA
ATOM      8  C   UNL     1       1.155  -9.237   1.395  0.00  0.00    +0.201 C 
ATOM      9  C   UNL     1       1.340  -7.948   1.757  0.00  0.00    +0.101 C 
ATOM     10  C   UNL     1       0.361  -6.859   1.396  0.00  0.00    +0.138 C 
ENDROOT
BRANCH   1  14
ATOM     11  C   UNL     1      -2.215  -2.534  -0.441  0.00  0.00    -0.047 A 
ATOM     12  C   UNL     1      -3.285  -3.409  -0.499  0.00  0.00    +0.004 A 
ATOM     13  C   UNL     1      -3.065  -4.772  -0.496  0.00  0.00    +0.010 A 
ATOM     14  C   UNL     1      -1.764  -5.265  -0.433  0.00  0.00    +0.003 A 
ATOM     15  C   UNL     1      -0.691  -4.379  -0.374  0.00  0.00    +0.010 A 
ATOM     16  C   UNL     1      -0.921  -3.018  -0.384  0.00  0.00    +0.004 A 
BRANCH  11  17
ATOM     17  C   UNL     1      -2.461  -1.047  -0.445  0.00  0.00    +0.038 C 
BRANCH  17  19
ATOM     18  C   UNL     1      -2.851   0.947  -1.900  0.00  0.00    +0.007 C 
ATOM     19  C   UNL     1      -2.478  -0.537  -1.888  0.00  0.00    -0.013 C 
ATOM     20  C   UNL     1      -1.093  -0.720  -2.510  0.00  0.00    +0.007 C 
ENDBRANCH  17  19
ENDBRANCH  11  17
ENDBRANCH   1  14
BRANCH  10  21
ATOM     21  C   UNL     1      -0.400  -6.431   2.624  0.00  0.00    +0.118 A 
ATOM     22  C   UNL     1      -0.352  -5.214   3.196  0.00  0.00    +0.045 A 
ATOM     23  C   UNL     1      -1.215  -5.253   4.315  0.00  0.00    +0.041 A 
ATOM     24  C   UNL     1      -1.739  -6.491   4.360  0.00  0.00    +0.195 A 
ATOM     25  O   UNL     1      -1.246  -7.198   3.330  0.00  0.00    -0.467 OA
ENDBRANCH  10  21
BRANCH   8  26
ATOM     26  N   UNL     1       2.100 -10.157   1.775  0.00  0.00    -0.328 N 
ATOM     27  H   UNL     1       1.994 -11.090   1.530  0.00  0.00    +0.145 HD
ATOM     28  H   UNL     1       2.873  -9.875   2.288  0.00  0.00    +0.145 HD
ENDBRANCH   8  26
BRANCH   9  29
ATOM     29  C   UNL     1       2.508  -7.604   2.510  0.00  0.00    +0.101 C 
ATOM     30  N   UNL     1       3.434  -7.331   3.109  0.00  0.00    -0.191 NA
ENDBRANCH   9  29
TORSDOF 6
