REMARK  Name = ZINC65180847
REMARK  7 active torsions:
REMARK  status: ('A' for Active; 'I' for Inactive)
REMARK    1  A    between atoms: C_1  and  C_2
REMARK    2  A    between atoms: C_2  and  C_3
REMARK    3  A    between atoms: C_2  and  C_4
REMARK    4  A    between atoms: C_4  and  N_5
REMARK    5  A    between atoms: N_8  and  N_9
REMARK    6  A    between atoms: C_10  and  C_12
REMARK    7  A    between atoms: C_16  and  N_17
REMARK                            x       y       z     vdW  Elec       q    Type
REMARK                         _______ _______ _______ _____ _____    ______ ____
ROOT
ATOM      1  N   UNL     1      -1.339  -4.704  -0.356  0.00  0.00    -0.229 N 
ATOM      2  C   UNL     1      -1.323  -6.046  -0.474  0.00  0.00    +0.263 C 
ATOM      3  O   UNL     1      -2.369  -6.668  -0.487  0.00  0.00    -0.269 OA
ATOM      4  H   UNL     1      -0.505  -4.208  -0.346  0.00  0.00    +0.173 HD
ENDROOT
BRANCH   2   5
ATOM      5  C   UNL     1      -0.045  -6.758  -0.587  0.00  0.00    +0.073 A 
ATOM      6  C   UNL     1       0.660  -7.237   0.588  0.00  0.00    -0.023 A 
ATOM      7  C   UNL     1       1.821  -7.872   0.315  0.00  0.00    -0.004 A 
ATOM      8  S   UNL     1       1.954  -7.823  -1.448  0.00  0.00    -0.075 S 
ATOM      9  C   UNL     1       0.536  -7.005  -1.820  0.00  0.00    +0.097 A 
ATOM     10  C   UNL     1       2.771  -8.474   1.304  0.00  0.00    +0.043 C 
ATOM     11  C   UNL     1       2.420  -7.936   2.699  0.00  0.00    +0.005 C 
ATOM     12  C   UNL     1       0.909  -8.062   2.913  0.00  0.00    +0.005 C 
ATOM     13  C   UNL     1       0.171  -7.064   2.018  0.00  0.00    +0.037 C 
BRANCH   9  14
ATOM     14  N   UNL     1       0.055  -6.654  -3.077  0.00  0.00    -0.317 N 
ATOM     15  C   UNL     1      -1.107  -5.979  -3.327  0.00  0.00    +0.092 A 
ATOM     16  C   UNL     1      -1.227  -5.828  -4.661  0.00  0.00    +0.019 A 
ATOM     17  C   UNL     1      -0.101  -6.431  -5.259  0.00  0.00    +0.019 A 
ATOM     18  C   UNL     1       0.669  -6.923  -4.269  0.00  0.00    +0.092 A 
ENDBRANCH   9  14
ENDBRANCH   2   5
BRANCH   1  22
ATOM     19  N   UNL     1      -1.416  -1.993  -0.116  0.00  0.00    -0.298 N 
ATOM     20  C   UNL     1      -2.575  -2.682  -0.130  0.00  0.00    +0.316 C 
ATOM     21  O   UNL     1      -3.634  -2.092  -0.036  0.00  0.00    -0.251 OA
ATOM     22  N   UNL     1      -2.559  -4.024  -0.248  0.00  0.00    -0.218 N 
ATOM     23  H   UNL     1      -0.572  -2.463  -0.190  0.00  0.00    +0.150 HD
ATOM     24  H   UNL     1      -3.393  -4.520  -0.258  0.00  0.00    +0.174 HD
BRANCH  19  25
ATOM     25  C   UNL     1      -1.433  -0.534   0.013  0.00  0.00    +0.108 C 
BRANCH  25  27
ATOM     26  C   UNL     1      -0.019   1.526   0.010  0.00  0.00    +0.009 C 
ATOM     27  C   UNL     1       0.002  -0.004   0.002  0.00  0.00    -0.000 C 
ATOM     28  C   UNL     1       0.742  -0.511   1.242  0.00  0.00    +0.009 C 
ENDBRANCH  25  27
ENDBRANCH  19  25
ENDBRANCH   1  22
TORSDOF 5
