REMARK  Name = ZINC15987701
REMARK  5 active torsions:
REMARK  status: ('A' for Active; 'I' for Inactive)
REMARK    1  A    between atoms: C_1  and  C_2
REMARK    2  A    between atoms: C_7  and  C_8
REMARK    3  A    between atoms: N_9  and  N_10
REMARK    4  A    between atoms: C_11  and  C_17
REMARK    5  A    between atoms: C_19  and  C_23
REMARK                            x       y       z     vdW  Elec       q    Type
REMARK                         _______ _______ _______ _____ _____    ______ ____
ROOT
ATOM      1  N   UNL     1       0.779   2.869   1.010  0.00  0.00    -0.186 N 
ATOM      2  C   UNL     1       0.571   3.286   2.313  0.00  0.00    +0.201 A 
ATOM      3  N   UNL     1       0.567   4.592   2.333  0.00  0.00    -0.150 NA
ATOM      4  N   UNL     1       0.776   5.046   1.024  0.00  0.00    -0.252 N 
ATOM      5  H   UNL     1       0.821   5.973   0.739  0.00  0.00    +0.191 HD
ATOM      6  C   UNL     1       0.908   3.962   0.232  0.00  0.00    +0.197 A 
ATOM      7  S   UNL     1       1.186   3.972  -1.457  0.00  0.00    -0.010 S 
ENDROOT
BRANCH   2   8
ATOM      8  C   UNL     1       0.386   2.406   3.481  0.00  0.00    +0.105 A 
ATOM      9  C   UNL     1       0.465   2.777   4.794  0.00  0.00    +0.061 A 
ATOM     10  C   UNL     1       0.224   1.637   5.577  0.00  0.00    +0.093 A 
ATOM     11  N   UNL     1       0.008   0.618   4.771  0.00  0.00    -0.173 NA
ATOM     12  N   UNL     1       0.098   1.071   3.449  0.00  0.00    -0.273 N 
ATOM     13  H   UNL     1      -0.026   0.516   2.627  0.00  0.00    +0.189 HD
BRANCH  10  14
ATOM     14  C   UNL     1       0.214   1.588   7.061  0.00  0.00    +0.002 A 
ATOM     15  C   UNL     1       0.465   2.742   7.799  0.00  0.00    +0.010 A 
ATOM     16  C   UNL     1       0.449   2.692   9.179  0.00  0.00    +0.001 A 
ATOM     17  C   UNL     1       0.197   1.497   9.827  0.00  0.00    +0.000 A 
ATOM     18  C   UNL     1      -0.048   0.347   9.098  0.00  0.00    +0.001 A 
ATOM     19  C   UNL     1      -0.040   0.387   7.719  0.00  0.00    +0.010 A 
ENDBRANCH  10  14
ENDBRANCH   2   8
BRANCH   1  21
ATOM     20  C   UNL     1      -0.238   0.853   0.406  0.00  0.00    +0.141 C 
ATOM     21  N   UNL     1       0.851   1.539   0.576  0.00  0.00    -0.170 NA
BRANCH  20  28
ATOM     22  C   UNL     1      -2.341  -0.985   1.160  0.00  0.00    +0.044 C 
ATOM     23  C   UNL     1      -2.550   0.504   1.260  0.00  0.00    -0.042 A 
ATOM     24  C   UNL     1      -3.752   1.005   1.715  0.00  0.00    +0.004 A 
ATOM     25  C   UNL     1      -3.945   2.372   1.808  0.00  0.00    +0.000 A 
ATOM     26  C   UNL     1      -2.935   3.246   1.445  0.00  0.00    +0.001 A 
ATOM     27  C   UNL     1      -1.726   2.760   0.993  0.00  0.00    +0.010 A 
ATOM     28  C   UNL     1      -1.526   1.381   0.892  0.00  0.00    -0.002 A 
ENDBRANCH  20  28
ENDBRANCH   1  21
TORSDOF 4
