REMARK  Name = ZINC21858775
REMARK  10 active torsions:
REMARK  status: ('A' for Active; 'I' for Inactive)
REMARK    1  A    between atoms: C_1  and  C_2
REMARK    2  A    between atoms: C_2  and  C_3
REMARK    3  A    between atoms: C_2  and  C_4
REMARK    4  A    between atoms: C_4  and  C_5
REMARK    5  A    between atoms: C_5  and  N_6
REMARK    6  A    between atoms: C_7  and  C_9
REMARK    7  A    between atoms: C_9  and  C_36
REMARK    8  A    between atoms: N_22  and  C_23
REMARK    9  A    between atoms: N_26  and  C_29
REMARK   10  A    between atoms: C_29  and  C_30
REMARK                            x       y       z     vdW  Elec       q    Type
REMARK                         _______ _______ _______ _____ _____    ______ ____
ROOT
ATOM      1  C   UNL     1       5.434   3.232   0.612  0.00  0.00    +0.129 C 
ATOM      2  C   UNL     1       3.940   3.233   0.288  0.00  0.00    +0.157 C 
ATOM      3  N   UNL     1       3.454   1.850   0.257  0.00  0.00    -0.334 N 
ATOM      4  C   UNL     1       2.214   1.355   0.544  0.00  0.00    +0.050 A 
ATOM      5  C   UNL     1       1.022   1.937   0.970  0.00  0.00    +0.026 A 
ATOM      6  C   UNL     1      -0.091   1.154   1.175  0.00  0.00    +0.002 A 
ATOM      7  C   UNL     1      -0.041  -0.218   0.961  0.00  0.00    +0.001 A 
ATOM      8  C   UNL     1       1.113  -0.813   0.544  0.00  0.00    +0.010 A 
ATOM      9  C   UNL     1       2.261  -0.039   0.330  0.00  0.00    +0.001 A 
ATOM     10  C   UNL     1       3.580  -0.354  -0.089  0.00  0.00    +0.041 A 
ATOM     11  C   UNL     1       4.283   0.792  -0.111  0.00  0.00    +0.106 A 
ATOM     12  C   UNL     1       5.694   1.037  -0.466  0.00  0.00    +0.264 C 
ATOM     13  O   UNL     1       6.386   0.175  -0.975  0.00  0.00    -0.268 OA
ATOM     14  N   UNL     1       6.179   2.271  -0.193  0.00  0.00    -0.278 N 
ATOM     15  C   UNL     1       5.618   2.888   2.091  0.00  0.00    +0.043 C 
ENDROOT
BRANCH  14  16
ATOM     16  C   UNL     1       7.491   2.652  -0.721  0.00  0.00    +0.074 C 
ATOM     17  C   UNL     1       7.486   2.522  -2.247  0.00  0.00    +0.004 C 
ATOM     18  C   UNL     1       8.877   2.862  -2.787  0.00  0.00    -0.077 C 
ATOM     19  N   UNL     1       9.867   1.949  -2.204  0.00  0.00    +0.382 N 
ATOM     20  C   UNL     1       9.924   2.090  -0.743  0.00  0.00    -0.077 C 
ATOM     21  C   UNL     1       8.565   1.726  -0.141  0.00  0.00    +0.004 C 
ATOM     22  H   UNL     1       9.549   0.920  -2.430  0.00  0.00    -0.081 HD
BRANCH  19  23
ATOM     23  C   UNL     1      11.192   2.155  -2.804  0.00  0.00    -0.043 C 
BRANCH  23  24
ATOM     24  C   UNL     1      11.150   1.766  -4.259  0.00  0.00    -0.064 A 
ATOM     25  C   UNL     1      11.444   0.468  -4.636  0.00  0.00    +0.002 A 
ATOM     26  C   UNL     1      11.401   0.110  -5.970  0.00  0.00    +0.000 A 
ATOM     27  C   UNL     1      11.075   1.051  -6.929  0.00  0.00    +0.000 A 
ATOM     28  C   UNL     1      10.786   2.349  -6.553  0.00  0.00    +0.000 A 
ATOM     29  C   UNL     1      10.825   2.707  -5.218  0.00  0.00    +0.002 A 
ENDBRANCH  23  24
ENDBRANCH  19  23
ENDBRANCH  14  16
BRANCH   1  31
ATOM     30  N   UNL     1       6.260   5.009  -0.898  0.00  0.00    -0.313 N 
ATOM     31  C   UNL     1       5.988   4.611   0.360  0.00  0.00    +0.238 C 
ATOM     32  O   UNL     1       6.189   5.362   1.291  0.00  0.00    -0.273 OA
ATOM     33  H   UNL     1       5.995   4.363  -1.748  0.00  0.00    +0.149 HD
BRANCH  30  34
ATOM     34  C   UNL     1       6.908   6.301  -1.134  0.00  0.00    +0.104 C 
BRANCH  34  35
ATOM     35  C   UNL     1       7.102   6.508  -2.637  0.00  0.00    +0.022 C 
BRANCH  35  37
ATOM     36  C   UNL     1       8.085   8.011  -4.374  0.00  0.00    +0.007 C 
ATOM     37  C   UNL     1       7.779   7.858  -2.883  0.00  0.00    -0.016 C 
ATOM     38  C   UNL     1       6.846   8.986  -2.436  0.00  0.00    +0.007 C 
ENDBRANCH  35  37
ENDBRANCH  34  35
ENDBRANCH  30  34
ENDBRANCH   1  31
TORSDOF 7
