REMARK  Name = ZINC19625674
REMARK  8 active torsions:
REMARK  status: ('A' for Active; 'I' for Inactive)
REMARK    1  A    between atoms: C_1  and  C_2
REMARK    2  A    between atoms: C_7  and  N_8
REMARK    3  A    between atoms: C_9  and  C_11
REMARK    4  A    between atoms: C_11  and  C_13
REMARK    5  A    between atoms: C_11  and  N_14
REMARK    6  A    between atoms: C_18  and  C_28
REMARK    7  A    between atoms: C_20  and  C_27
REMARK    8  A    between atoms: N_23  and  C_26
REMARK                            x       y       z     vdW  Elec       q    Type
REMARK                         _______ _______ _______ _____ _____    ______ ____
ROOT
ATOM      1  N   UNL     1       4.408  -0.186   0.261  0.00  0.00    -0.249 N 
ATOM      2  C   UNL     1       3.325  -0.993   0.207  0.00  0.00    +0.267 A 
ATOM      3  O   UNL     1       3.447  -2.201   0.166  0.00  0.00    -0.267 OA
ATOM      4  C   UNL     1       1.992  -0.366   0.198  0.00  0.00    +0.094 A 
ATOM      5  C   UNL     1       0.813  -1.128   0.142  0.00  0.00    +0.054 A 
ATOM      6  C   UNL     1      -0.402  -0.442   0.138  0.00  0.00    +0.037 A 
ATOM      7  C   UNL     1      -0.398   0.943   0.188  0.00  0.00    +0.041 A 
ATOM      8  N   UNL     1       0.725   1.630   0.240  0.00  0.00    -0.234 NA
ATOM      9  C   UNL     1       1.907   1.035   0.247  0.00  0.00    +0.150 A 
ATOM     10  N   UNL     1       3.082   1.765   0.300  0.00  0.00    -0.281 N 
ATOM     11  C   UNL     1       4.275   1.149   0.306  0.00  0.00    +0.334 A 
ATOM     12  O   UNL     1       5.280   1.831   0.354  0.00  0.00    -0.246 OA
ATOM     13  C   UNL     1       3.022   3.228   0.352  0.00  0.00    +0.155 C 
ATOM     14  C   UNL     1      -1.711   1.683   0.177  0.00  0.00    +0.065 C 
ENDROOT
BRANCH   5  15
ATOM     15  C   UNL     1       0.858  -2.609   0.091  0.00  0.00    +0.248 C 
ATOM     16  O   UNL     1       1.448  -3.229   0.953  0.00  0.00    -0.270 OA
ATOM     17  N   UNL     1       0.246  -3.267  -0.913  0.00  0.00    -0.298 N 
ATOM     18  C   UNL     1      -0.551  -2.538  -1.910  0.00  0.00    +0.108 C 
ATOM     19  C   UNL     1      -0.040  -2.909  -3.310  0.00  0.00    +0.019 C 
ATOM     20  C   UNL     1      -0.071  -4.431  -3.471  0.00  0.00    +0.003 C 
ATOM     21  C   UNL     1       0.853  -5.075  -2.436  0.00  0.00    +0.019 C 
ATOM     22  C   UNL     1       0.357  -4.728  -1.028  0.00  0.00    +0.108 C 
ENDBRANCH   5  15
BRANCH   1  23
ATOM     23  C   UNL     1       5.748  -0.778   0.271  0.00  0.00    +0.178 C 
ATOM     24  C   UNL     1       6.534  -0.280  -0.944  0.00  0.00    +0.041 C 
BRANCH  23  26
ATOM     25  N   UNL     1       7.722  -0.807   1.760  0.00  0.00    -0.284 N 
ATOM     26  C   UNL     1       6.465  -0.376   1.533  0.00  0.00    +0.240 C 
ATOM     27  O   UNL     1       5.912   0.335   2.345  0.00  0.00    -0.273 OA
ATOM     28  H   UNL     1       8.248  -1.397   0.996  0.00  0.00    +0.155 HD
BRANCH  25  35
ATOM     29  C   UNL     1       9.793  -2.537   2.661  0.00  0.00    +0.045 C 
ATOM     30  C   UNL     1       9.374  -1.320   3.446  0.00  0.00    -0.029 A 
ATOM     31  C   UNL     1      10.001  -1.018   4.639  0.00  0.00    +0.006 A 
ATOM     32  C   UNL     1       9.618   0.098   5.359  0.00  0.00    +0.020 A 
ATOM     33  C   UNL     1       8.605   0.916   4.888  0.00  0.00    +0.043 A 
ATOM     34  C   UNL     1       7.979   0.621   3.691  0.00  0.00    +0.043 A 
ATOM     35  C   UNL     1       8.358  -0.502   2.969  0.00  0.00    +0.038 A 
ATOM     36 CL   UNL     1       8.127   2.316   5.795  0.00  0.00    -0.083 Cl
ENDBRANCH  25  35
ENDBRANCH  23  26
ENDBRANCH   1  23
TORSDOF 4
