REMARK  Name = ZINC61519597
REMARK  3 active torsions:
REMARK  status: ('A' for Active; 'I' for Inactive)
REMARK    1  A    between atoms: C_1  and  C_2
REMARK    2  A    between atoms: C_5  and  O_8
REMARK    3  A    between atoms: O_8  and  C_9
REMARK                            x       y       z     vdW  Elec       q    Type
REMARK                         _______ _______ _______ _____ _____    ______ ____
ROOT
ATOM      1  C   UNL     1      -1.262  -2.894   3.519  0.00  0.00    +0.324 A 
ATOM      2  N   UNL     1      -1.865  -2.526   4.642  0.00  0.00    -0.161 NA
ATOM      3  C   UNL     1      -1.785  -3.299   5.720  0.00  0.00    +0.225 A 
ATOM      4  N   UNL     1      -1.101  -4.439   5.671  0.00  0.00    -0.184 NA
ATOM      5  C   UNL     1      -0.500  -4.802   4.549  0.00  0.00    +0.230 A 
ATOM      6  N   UNL     1      -0.584  -4.036   3.473  0.00  0.00    -0.164 NA
ATOM      7 CL   UNL     1       0.392  -6.290   4.487  0.00  0.00    -0.041 Cl
ATOM      8  N   UNL     1      -2.411  -2.920   6.890  0.00  0.00    -0.299 N 
ATOM      9  C   UNL     1      -3.202  -1.695   7.081  0.00  0.00    +0.108 C 
ATOM     10  C   UNL     1      -3.681  -1.682   8.548  0.00  0.00    +0.020 C 
ATOM     11  C   UNL     1      -2.662  -2.616   9.254  0.00  0.00    +0.020 C 
ATOM     12  C   UNL     1      -2.404  -3.679   8.154  0.00  0.00    +0.108 C 
ENDROOT
BRANCH   1  13
ATOM     13  O   UNL     1      -1.341  -2.110   2.420  0.00  0.00    -0.459 OA
BRANCH  13  18
ATOM     14  C   UNL     1      -0.019   1.526   0.010  0.00  0.00    +0.007 C 
ATOM     15  C   UNL     1       0.002  -0.004   0.002  0.00  0.00    -0.014 C 
ATOM     16  C   UNL     1      -1.433  -0.534   0.013  0.00  0.00    +0.007 C 
ATOM     17  C   UNL     1      -1.413  -2.063   0.004  0.00  0.00    +0.045 C 
ATOM     18  C   UNL     1      -0.673  -2.570   1.244  0.00  0.00    +0.177 C 
ATOM     19  C   UNL     1       0.763  -2.041   1.233  0.00  0.00    +0.045 C 
ATOM     20  C   UNL     1       0.742  -0.511   1.242  0.00  0.00    +0.007 C 
ENDBRANCH  13  18
ENDBRANCH   1  13
TORSDOF 2
