REMARK  Name = ZINC27791082
REMARK  8 active torsions:
REMARK  status: ('A' for Active; 'I' for Inactive)
REMARK    1  A    between atoms: C_5  and  N_7
REMARK    2  A    between atoms: C_11  and  N_15
REMARK    3  A    between atoms: N_15  and  N_16
REMARK    4  A    between atoms: C_17  and  C_19
REMARK    5  A    between atoms: C_19  and  C_20
REMARK    6  A    between atoms: C_20  and  N_21
REMARK    7  A    between atoms: N_21  and  S_22
REMARK    8  A    between atoms: S_22  and  C_25
REMARK                            x       y       z     vdW  Elec       q    Type
REMARK                         _______ _______ _______ _____ _____    ______ ____
ROOT
ATOM      1  N   UNL     1       2.210   0.765  -0.639  0.00  0.00    -0.250 N 
ATOM      2  C   UNL     1       3.516   1.079  -0.753  0.00  0.00    +0.228 C 
ATOM      3  O   UNL     1       3.933   2.119  -0.290  0.00  0.00    -0.274 OA
ATOM      4  H   UNL     1       1.832  -0.179  -1.059  0.00  0.00    +0.169 HD
ENDROOT
BRANCH   1   5
ATOM      5  N   UNL     1       1.356   1.620  -0.002  0.00  0.00    -0.228 NA
ATOM      6  H   UNL     1       1.674   1.818   0.935  0.00  0.00    +0.145 HD
BRANCH   5  11
ATOM      7  N   UNL     1      -1.849   2.317  -0.718  0.00  0.00    -0.206 N 
ATOM      8  C   UNL     1      -1.940   2.381   0.616  0.00  0.00    +0.228 C 
ATOM      9  O   UNL     1      -2.805   2.964   1.234  0.00  0.00    -0.275 OA
ATOM     10  C   UNL     1      -0.791   1.611   1.231  0.00  0.00    +0.126 C 
ATOM     11  C   UNL     1      -0.013   1.086   0.008  0.00  0.00    +0.168 C 
ATOM     12  C   UNL     1      -0.799   1.614  -1.172  0.00  0.00    +0.245 C 
ATOM     13  O   UNL     1      -0.525   1.430  -2.338  0.00  0.00    -0.273 OA
BRANCH   7  18
ATOM     14  C   UNL     1      -3.474   4.848  -2.839  0.00  0.00    +0.002 A 
ATOM     15  C   UNL     1      -4.597   4.159  -3.258  0.00  0.00    +0.003 A 
ATOM     16  C   UNL     1      -4.812   2.860  -2.838  0.00  0.00    +0.040 A 
ATOM     17  C   UNL     1      -3.903   2.245  -1.995  0.00  0.00    +0.145 A 
ATOM     18  C   UNL     1      -2.773   2.937  -1.572  0.00  0.00    +0.079 A 
ATOM     19  C   UNL     1      -2.565   4.243  -1.993  0.00  0.00    +0.027 A 
ATOM     20  F   UNL     1      -4.112   0.976  -1.584  0.00  0.00    -0.204 F 
ENDBRANCH   7  18
ENDBRANCH   5  11
ENDBRANCH   1   5
BRANCH   2  21
ATOM     21  C   UNL     1       4.458   0.136  -1.456  0.00  0.00    +0.114 C 
BRANCH  21  22
ATOM     22  C   UNL     1       5.870   0.725  -1.446  0.00  0.00    +0.115 C 
BRANCH  22  23
ATOM     23  N   UNL     1       6.787  -0.192  -2.129  0.00  0.00    -0.189 NA
ATOM     24  H   UNL     1       6.551  -1.265  -2.184  0.00  0.00    +0.148 HD
BRANCH  23  25
ATOM     25  S   UNL     1       8.285   0.333  -2.599  0.00  0.00    +0.058 S 
ATOM     26  O   UNL     1       8.935  -0.778  -3.201  0.00  0.00    -0.153 OA
ATOM     27  O   UNL     1       8.088   1.562  -3.285  0.00  0.00    -0.153 OA
BRANCH  25  28
ATOM     28  C   UNL     1       9.188   0.713  -1.135  0.00  0.00    +0.105 A 
ATOM     29  C   UNL     1       9.139   1.988  -0.604  0.00  0.00    +0.030 A 
ATOM     30  C   UNL     1       9.843   2.285   0.548  0.00  0.00    +0.022 A 
ATOM     31  C   UNL     1      10.605   1.308   1.164  0.00  0.00    +0.041 A 
ATOM     32  C   UNL     1      10.658   0.033   0.629  0.00  0.00    +0.022 A 
ATOM     33  C   UNL     1       9.949  -0.264  -0.520  0.00  0.00    +0.030 A 
ATOM     34 CL   UNL     1      11.494   1.681   2.607  0.00  0.00    -0.084 Cl
ENDBRANCH  25  28
ENDBRANCH  23  25
ENDBRANCH  22  23
ENDBRANCH  21  22
ENDBRANCH   2  21
TORSDOF 8
