REMARK  Name = ZINC65708218
REMARK  8 active torsions:
REMARK  status: ('A' for Active; 'I' for Inactive)
REMARK    1  A    between atoms: C_1  and  C_2
REMARK    2  A    between atoms: C_5  and  C_9
REMARK    3  A    between atoms: C_6  and  C_8
REMARK    4  A    between atoms: C_15  and  C_17
REMARK    5  A    between atoms: N_19  and  C_20
REMARK    6  A    between atoms: N_19  and  C_21
REMARK    7  A    between atoms: C_21  and  C_22
REMARK    8  A    between atoms: C_26  and  O_28
REMARK                            x       y       z     vdW  Elec       q    Type
REMARK                         _______ _______ _______ _____ _____    ______ ____
ROOT
ATOM      1  C   UNL     1      -1.414  -4.437   0.027  0.00  0.00    +0.134 A 
ATOM      2  N   UNL     1      -1.220  -5.280   1.035  0.00  0.00    -0.140 NA
ATOM      3  N   UNL     1      -0.960  -6.499   0.843  0.00  0.00    -0.125 NA
ATOM      4  C   UNL     1      -0.864  -7.012  -0.378  0.00  0.00    +0.188 A 
ATOM      5  S   UNL     1      -1.199  -5.551  -1.358  0.00  0.00    -0.030 S 
ATOM      6  N   UNL     1      -0.589  -8.310  -0.780  0.00  0.00    -0.255 N 
ATOM      7  C   UNL     1      -0.371  -9.269   0.141  0.00  0.00    +0.305 C 
ATOM      8  O   UNL     1      -0.416  -8.997   1.323  0.00  0.00    -0.265 OA
ATOM      9  H   UNL     1      -0.553  -8.528  -1.725  0.00  0.00    +0.157 HD
ENDROOT
BRANCH   1  14
ATOM     10  C   UNL     1      -2.627   1.188   0.095  0.00  0.00    +0.044 C 
ATOM     11  C   UNL     1      -2.309  -0.285   0.077  0.00  0.00    -0.050 A 
ATOM     12  C   UNL     1      -2.187  -0.950  -1.131  0.00  0.00    +0.004 A 
ATOM     13  C   UNL     1      -1.897  -2.298  -1.154  0.00  0.00    +0.011 A 
ATOM     14  C   UNL     1      -1.725  -2.992   0.045  0.00  0.00    +0.012 A 
ATOM     15  C   UNL     1      -1.849  -2.317   1.259  0.00  0.00    -0.040 A 
ATOM     16  C   UNL     1      -2.135  -0.967   1.268  0.00  0.00    +0.007 A 
ATOM     17  C   UNL     1      -1.666  -3.058   2.558  0.00  0.00    +0.044 C 
ENDBRANCH   1  14
BRANCH   7  18
ATOM     18  C   UNL     1      -0.075 -10.667  -0.292  0.00  0.00    +0.302 C 
ATOM     19  O   UNL     1      -0.134 -10.964  -1.467  0.00  0.00    -0.265 OA
ATOM     20  N   UNL     1       0.258 -11.600   0.623  0.00  0.00    -0.292 N 
ATOM     21  C   UNL     1       0.252 -11.262   2.048  0.00  0.00    +0.133 C 
BRANCH  20  22
ATOM     22  C   UNL     1       0.627 -12.950   0.191  0.00  0.00    +0.143 C 
BRANCH  22  23
ATOM     23  C   UNL     1       2.114 -13.014  -0.046  0.00  0.00    -0.027 A 
ATOM     24  C   UNL     1       2.627 -12.718  -1.295  0.00  0.00    +0.005 A 
ATOM     25  C   UNL     1       3.991 -12.776  -1.516  0.00  0.00    +0.004 A 
ATOM     26  C   UNL     1       4.844 -13.129  -0.488  0.00  0.00    +0.045 A 
ATOM     27  C   UNL     1       4.331 -13.426   0.766  0.00  0.00    +0.117 A 
ATOM     28  C   UNL     1       2.963 -13.362   0.987  0.00  0.00    +0.050 A 
BRANCH  27  29
ATOM     29  O   UNL     1       5.168 -13.774   1.779  0.00  0.00    -0.507 OA
ATOM     30  H   UNL     1       5.484 -13.025   2.303  0.00  0.00    +0.292 HD
ENDBRANCH  27  29
ENDBRANCH  22  23
ENDBRANCH  20  22
ENDBRANCH   7  18
TORSDOF 5
