REMARK  Name = ZINC06812111
REMARK  7 active torsions:
REMARK  status: ('A' for Active; 'I' for Inactive)
REMARK    1  A    between atoms: C_1  and  C_2
REMARK    2  A    between atoms: C_2  and  C_3
REMARK    3  A    between atoms: C_9  and  C_25
REMARK    4  A    between atoms: C_11  and  C_14
REMARK    5  A    between atoms: N_16  and  C_17
REMARK    6  A    between atoms: C_19  and  C_24
REMARK    7  A    between atoms: C_22  and  C_23
REMARK                            x       y       z     vdW  Elec       q    Type
REMARK                         _______ _______ _______ _____ _____    ______ ____
ROOT
ATOM      1  C   UNL     1       2.759   6.035  -2.041  0.00  0.00    +0.151 A 
ATOM      2  N   UNL     1       2.632   7.303  -1.762  0.00  0.00    -0.132 NA
ATOM      3  N   UNL     1       2.057   7.450  -0.618  0.00  0.00    -0.121 NA
ATOM      4  C   UNL     1       1.786   6.278  -0.115  0.00  0.00    +0.209 A 
ATOM      5  N   UNL     1       2.230   5.333  -0.996  0.00  0.00    -0.225 N 
ATOM      6  N   UNL     1       2.161   3.985  -0.853  0.00  0.00    -0.272 N 
ATOM      7  C   UNL     1       1.127   3.544   0.085  0.00  0.00    +0.140 C 
ATOM      8  C   UNL     1       1.386   4.133   1.478  0.00  0.00    +0.166 C 
ATOM      9  S   UNL     1       0.987   5.907   1.415  0.00  0.00    -0.069 S 
ATOM     10  H   UNL     1       3.060   3.601  -0.606  0.00  0.00    +0.167 HD
ENDROOT
BRANCH   7  11
ATOM     11  C   UNL     1       1.139   2.040   0.170  0.00  0.00    -0.024 A 
ATOM     12  C   UNL     1      -0.052   1.341   0.228  0.00  0.00    +0.008 A 
ATOM     13  C   UNL     1      -0.042  -0.038   0.306  0.00  0.00    +0.038 A 
ATOM     14  C   UNL     1       1.163  -0.721   0.326  0.00  0.00    +0.123 A 
ATOM     15  C   UNL     1       2.355  -0.021   0.267  0.00  0.00    +0.038 A 
ATOM     16  C   UNL     1       2.343   1.359   0.190  0.00  0.00    +0.008 A 
ATOM     17  F   UNL     1       1.174  -2.070   0.402  0.00  0.00    -0.205 F 
ENDBRANCH   7  11
BRANCH   8  18
ATOM     18  C   UNL     1       2.835   3.945   1.850  0.00  0.00    +0.233 C 
ATOM     19  O   UNL     1       3.699   4.539   1.240  0.00  0.00    -0.274 OA
ATOM     20  N   UNL     1       3.169   3.117   2.859  0.00  0.00    -0.284 N 
ATOM     21  H   UNL     1       2.485   2.593   3.304  0.00  0.00    +0.155 HD
BRANCH  20  22
ATOM     22  C   UNL     1       4.504   3.013   3.265  0.00  0.00    +0.037 A 
ATOM     23  C   UNL     1       5.529   3.244   2.356  0.00  0.00    +0.027 A 
ATOM     24  C   UNL     1       6.845   3.145   2.761  0.00  0.00    -0.049 A 
ATOM     25  C   UNL     1       7.144   2.807   4.069  0.00  0.00    +0.004 A 
ATOM     26  C   UNL     1       6.127   2.571   4.975  0.00  0.00    +0.005 A 
ATOM     27  C   UNL     1       4.808   2.673   4.577  0.00  0.00    -0.029 A 
ATOM     28  C   UNL     1       3.700   2.415   5.565  0.00  0.00    +0.045 C 
ATOM     29  C   UNL     1       7.957   3.401   1.777  0.00  0.00    +0.044 C 
ENDBRANCH  20  22
ENDBRANCH   8  18
BRANCH   1  31
ATOM     30  C   UNL     1       2.294   5.268  -4.353  0.00  0.00    +0.012 C 
ATOM     31  C   UNL     1       3.376   5.452  -3.287  0.00  0.00    +0.074 C 
ENDBRANCH   1  31
TORSDOF 4
