REMARK  Name = ZINC32906588
REMARK  5 active torsions:
REMARK  status: ('A' for Active; 'I' for Inactive)
REMARK    1  A    between atoms: C_9  and  C_18
REMARK    2  A    between atoms: C_18  and  N_19
REMARK    3  A    between atoms: C_20  and  C_22
REMARK    4  A    between atoms: C_22  and  C_23
REMARK    5  A    between atoms: C_23  and  C_24
REMARK                            x       y       z     vdW  Elec       q    Type
REMARK                         _______ _______ _______ _____ _____    ______ ____
ROOT
ATOM      1  C   UNL     1       1.228  -0.657  -0.013  0.00  0.00    +0.000 A 
ATOM      2  C   UNL     1       2.406   0.066  -0.021  0.00  0.00    +0.000 A 
ATOM      3  C   UNL     1       2.380   1.455  -0.014  0.00  0.00    +0.004 A 
ATOM      4  C   UNL     1       1.172   2.090   0.002  0.00  0.00    -0.036 A 
ATOM      5  C   UNL     1      -0.016   1.361   0.009  0.00  0.00    -0.036 A 
ATOM      6  C   UNL     1       0.002  -0.004   0.002  0.00  0.00    +0.004 A 
ATOM      7  C   UNL     1      -1.275   2.214   0.033  0.00  0.00    +0.050 C 
ATOM      8  C   UNL     1      -1.182   3.114  -1.220  0.00  0.00    +0.018 C 
ATOM      9  C   UNL     1       0.145   3.916  -1.245  0.00  0.00    +0.019 C 
ATOM     10  C   UNL     1       0.983   3.599   0.014  0.00  0.00    +0.054 C 
ATOM     11  C   UNL     1       0.081   3.880   1.206  0.00  0.00    -0.036 A 
ATOM     12  C   UNL     1      -1.107   3.151   1.212  0.00  0.00    -0.036 A 
ATOM     13  C   UNL     1      -2.013   3.302   2.223  0.00  0.00    +0.004 A 
ATOM     14  C   UNL     1      -1.729   4.196   3.248  0.00  0.00    +0.000 A 
ATOM     15  C   UNL     1      -0.550   4.918   3.242  0.00  0.00    +0.000 A 
ATOM     16  C   UNL     1       0.366   4.760   2.210  0.00  0.00    +0.004 A 
ENDROOT
BRANCH   9  17
ATOM     17  C   UNL     1       0.962   3.567  -2.491  0.00  0.00    +0.108 C 
BRANCH  17  18
ATOM     18  N   UNL     1       0.224   3.974  -3.689  0.00  0.00    -0.315 N 
ATOM     19  C   UNL     1       0.754   3.764  -4.911  0.00  0.00    +0.213 C 
ATOM     20  O   UNL     1       1.841   3.238  -5.018  0.00  0.00    -0.276 OA
ATOM     21  H   UNL     1      -0.762   4.451  -3.592  0.00  0.00    +0.149 HD
BRANCH  19  22
ATOM     22  C   UNL     1      -0.005   4.184  -6.143  0.00  0.00    +0.098 C 
BRANCH  22  23
ATOM     23  C   UNL     1       0.811   3.835  -7.389  0.00  0.00    +0.041 C 
BRANCH  23  24
ATOM     24  C   UNL     1       0.041   4.261  -8.640  0.00  0.00    +0.161 C 
ATOM     25  C   UNL     1       0.812   3.893  -9.892  0.00  0.00    +0.241 C 
ATOM     26  O   UNL     1       1.134   2.782 -10.255  0.00  0.00    -0.273 OA
ATOM     27  N   UNL     1       1.066   5.065 -10.516  0.00  0.00    -0.239 N 
ATOM     28  C   UNL     1       0.565   6.104  -9.839  0.00  0.00    +0.307 C 
ATOM     29  O   UNL     1       0.665   7.259 -10.204  0.00  0.00    -0.252 OA
ATOM     30  N   UNL     1      -0.063   5.728  -8.711  0.00  0.00    -0.288 N 
ATOM     31  H   UNL     1       1.625   5.073 -11.464  0.00  0.00    +0.159 HD
ATOM     32  H   UNL     1      -0.585   6.282  -7.916  0.00  0.00    +0.151 HD
ENDBRANCH  23  24
ENDBRANCH  22  23
ENDBRANCH  19  22
ENDBRANCH  17  18
ENDBRANCH   9  17
TORSDOF 5
