REMARK  Name = ZINC64231020
REMARK  9 active torsions:
REMARK  status: ('A' for Active; 'I' for Inactive)
REMARK    1  A    between atoms: C_1  and  C_2
REMARK    2  A    between atoms: N_4  and  C_5
REMARK    3  A    between atoms: C_5  and  C_6
REMARK    4  A    between atoms: C_10  and  S_12
REMARK    5  A    between atoms: S_12  and  N_15
REMARK    6  A    between atoms: N_15  and  C_16
REMARK    7  A    between atoms: C_16  and  C_17
REMARK    8  A    between atoms: C_17  and  C_19
REMARK    9  A    between atoms: C_17  and  C_25
REMARK                            x       y       z     vdW  Elec       q    Type
REMARK                         _______ _______ _______ _____ _____    ______ ____
ROOT
ATOM      1  C   UNL     1       2.261  -1.708  -7.015  0.00  0.00    +0.118 C 
ENDROOT
BRANCH   1   2
ATOM      2  N   UNL     1       2.345  -3.171  -7.035  0.00  0.00    -0.189 NA
ATOM      3  H   UNL     1       2.049  -3.663  -7.816  0.00  0.00    +0.148 HD
BRANCH   2   4
ATOM      4  S   UNL     1       2.945  -3.983  -5.722  0.00  0.00    +0.064 S 
ATOM      5  O   UNL     1       4.165  -3.344  -5.371  0.00  0.00    -0.153 OA
ATOM      6  O   UNL     1       2.872  -5.367  -6.033  0.00  0.00    -0.153 OA
BRANCH   4  10
ATOM      7  C   UNL     1       0.013  -2.639  -2.622  0.00  0.00    +0.074 C 
ATOM      8  C   UNL     1       0.147  -4.183  -2.688  0.00  0.00    +0.045 C 
ATOM      9  C   UNL     1       1.021  -4.590  -3.831  0.00  0.00    +0.010 C 
ATOM     10  C   UNL     1       1.830  -3.708  -4.385  0.00  0.00    +0.135 C 
ATOM     11  S   UNL     1       1.564  -2.179  -3.505  0.00  0.00    -0.100 S 
BRANCH   7  12
ATOM     12  C   UNL     1       0.020  -2.136  -1.177  0.00  0.00    +0.119 C 
BRANCH  12  16
ATOM     13  C   UNL     1      -0.018   1.503   0.010  0.00  0.00    +0.109 C 
ATOM     14  C   UNL     1       0.002  -0.004   0.002  0.00  0.00    +0.210 C 
ATOM     15  O   UNL     1       0.020  -0.616   1.049  0.00  0.00    -0.276 OA
ATOM     16  N   UNL     1       0.000  -0.672  -1.169  0.00  0.00    -0.314 N 
ATOM     17  H   UNL     1      -0.015  -0.182  -2.006  0.00  0.00    +0.149 HD
ENDBRANCH  12  16
ENDBRANCH   7  12
ENDBRANCH   4  10
ENDBRANCH   2   4
ENDBRANCH   1   2
BRANCH   1  18
ATOM     18  C   UNL     1       2.040  -1.191  -8.438  0.00  0.00    +0.063 C 
BRANCH  18  19
ATOM     19  C   UNL     1       2.076   0.315  -8.437  0.00  0.00    -0.033 C 
ATOM     20  C   UNL     1       2.928   1.109  -9.125  0.00  0.00    -0.000 A 
ATOM     21  C   UNL     1       4.034   0.818 -10.046  0.00  0.00    +0.010 A 
ATOM     22  C   UNL     1       4.720   1.847 -10.592  0.00  0.00    +0.001 A 
ATOM     23  C   UNL     1       4.404   3.181 -10.302  0.00  0.00    +0.002 A 
ATOM     24  C   UNL     1       3.402   3.527  -9.466  0.00  0.00    +0.026 A 
ATOM     25  C   UNL     1       2.613   2.526  -8.835  0.00  0.00    +0.043 A 
ATOM     26  N   UNL     1       1.606   2.606  -8.000  0.00  0.00    -0.380 N 
ATOM     27  C   UNL     1       1.163   1.246  -7.670  0.00  0.00    +0.145 C 
ATOM     28  H   UNL     1       1.216   3.426  -7.660  0.00  0.00    +0.160 HD
ENDBRANCH  18  19
BRANCH  18  29
ATOM     29  C   UNL     1       0.698  -1.661  -8.940  0.00  0.00    -0.039 A 
ATOM     30  C   UNL     1      -0.456  -1.295  -8.273  0.00  0.00    +0.004 A 
ATOM     31  C   UNL     1      -1.686  -1.725  -8.733  0.00  0.00    +0.000 A 
ATOM     32  C   UNL     1      -1.762  -2.522  -9.860  0.00  0.00    +0.000 A 
ATOM     33  C   UNL     1      -0.608  -2.887 -10.528  0.00  0.00    +0.000 A 
ATOM     34  C   UNL     1       0.622  -2.453 -10.070  0.00  0.00    +0.004 A 
ENDBRANCH  18  29
ENDBRANCH   1  18
TORSDOF 8
