REMARK  Name = ZINC49502121
REMARK  5 active torsions:
REMARK  status: ('A' for Active; 'I' for Inactive)
REMARK    1  A    between atoms: C_1  and  C_2
REMARK    2  A    between atoms: C_5  and  C_8
REMARK    3  A    between atoms: N_10  and  S_11
REMARK    4  A    between atoms: S_11  and  C_14
REMARK    5  A    between atoms: N_16  and  C_19
REMARK                            x       y       z     vdW  Elec       q    Type
REMARK                         _______ _______ _______ _____ _____    ______ ____
ROOT
ATOM      1  S   UNL     1       0.096  -6.564   1.092  0.00  0.00    +0.120 S 
ATOM      2  O   UNL     1      -1.147  -6.984   0.545  0.00  0.00    -0.145 OA
ATOM      3  O   UNL     1       1.344  -6.951   0.532  0.00  0.00    -0.145 OA
ENDROOT
BRANCH   1   4
ATOM      4  C   UNL     1       0.112  -7.094   2.772  0.00  0.00    +0.216 A 
ATOM      5  C   UNL     1       1.100  -6.875   3.662  0.00  0.00    +0.154 A 
ATOM      6  N   UNL     1       0.707  -7.452   4.840  0.00  0.00    -0.324 N 
ATOM      7  C   UNL     1      -0.509  -8.004   4.628  0.00  0.00    +0.176 A 
ATOM      8  N   UNL     1      -0.860  -7.782   3.391  0.00  0.00    -0.329 N 
ATOM      9  C   UNL     1       1.462  -7.468   6.095  0.00  0.00    +0.151 C 
ATOM     10 CL   UNL     1       2.586  -6.025   3.372  0.00  0.00    -0.060 Cl
ATOM     11  H   UNL     1      -1.691  -8.070   2.983  0.00  0.00    +0.168 HD
ENDBRANCH   1   4
BRANCH   1  14
ATOM     12  C   UNL     1       0.060  -4.253  -0.021  0.00  0.00    +0.295 C 
ATOM     13  O   UNL     1       0.062  -4.922  -1.196  0.00  0.00    -0.264 OA
ATOM     14  N   UNL     1       0.074  -4.909   1.101  0.00  0.00    -0.084 NA
BRANCH  12  19
ATOM     15  C   UNL     1      -0.018   1.503   0.010  0.00  0.00    +0.044 C 
ATOM     16  C   UNL     1       0.002  -0.004   0.002  0.00  0.00    -0.050 A 
ATOM     17  C   UNL     1       0.006  -0.686  -1.202  0.00  0.00    +0.004 A 
ATOM     18  C   UNL     1       0.024  -2.066  -1.216  0.00  0.00    +0.013 A 
ATOM     19  C   UNL     1       0.040  -2.773  -0.013  0.00  0.00    +0.043 A 
ATOM     20  C   UNL     1       0.037  -2.079   1.197  0.00  0.00    +0.013 A 
ATOM     21  C   UNL     1       0.023  -0.699   1.198  0.00  0.00    +0.004 A 
ENDBRANCH  12  19
ENDBRANCH   1  14
TORSDOF 3
