REMARK  Name = ZINC46877293
REMARK  7 active torsions:
REMARK  status: ('A' for Active; 'I' for Inactive)
REMARK    1  A    between atoms: C_1  and  C_2
REMARK    2  A    between atoms: C_2  and  C_21
REMARK    3  A    between atoms: N_5  and  C_9
REMARK    4  A    between atoms: C_9  and  C_10
REMARK    5  A    between atoms: N_12  and  C_13
REMARK    6  A    between atoms: C_14  and  C_18
REMARK    7  A    between atoms: C_25  and  C_27
REMARK                            x       y       z     vdW  Elec       q    Type
REMARK                         _______ _______ _______ _____ _____    ______ ____
ROOT
ATOM      1  C   UNL     1      -0.019   1.526   0.010  0.00  0.00    +0.047 C 
ATOM      2  C   UNL     1       0.002  -0.004   0.002  0.00  0.00    +0.135 C 
ATOM      3  C   UNL     1      -1.403  -0.557   0.139  0.00  0.00    +0.251 C 
ATOM      4  O   UNL     1      -2.332  -0.392  -0.621  0.00  0.00    -0.272 OA
ATOM      5  N   UNL     1      -1.403  -1.272   1.282  0.00  0.00    -0.215 N 
ATOM      6  C   UNL     1      -0.206  -1.247   1.879  0.00  0.00    +0.310 C 
ATOM      7  O   UNL     1       0.040  -1.819   2.924  0.00  0.00    -0.252 OA
ATOM      8  N   UNL     1       0.695  -0.520   1.195  0.00  0.00    -0.281 N 
ATOM      9  H   UNL     1       1.621  -0.365   1.440  0.00  0.00    +0.152 HD
ENDROOT
BRANCH   2  10
ATOM     10  C   UNL     1       0.657  -0.517  -1.255  0.00  0.00    -0.015 A 
ATOM     11  C   UNL     1      -0.108  -0.772  -2.378  0.00  0.00    +0.006 A 
ATOM     12  C   UNL     1       0.493  -1.242  -3.530  0.00  0.00    +0.001 A 
ATOM     13  C   UNL     1       1.859  -1.457  -3.560  0.00  0.00    +0.012 A 
ATOM     14  C   UNL     1       2.623  -1.202  -2.437  0.00  0.00    +0.055 A 
ATOM     15  C   UNL     1       2.023  -0.727  -1.286  0.00  0.00    +0.018 A 
BRANCH  14  16
ATOM     16  C   UNL     1       4.111  -1.436  -2.470  0.00  0.00    +0.417 C 
ATOM     17  F   UNL     1       4.481  -1.910  -3.733  0.00  0.00    -0.166 F 
ATOM     18  F   UNL     1       4.779  -0.235  -2.208  0.00  0.00    -0.166 F 
ATOM     19  F   UNL     1       4.455  -2.382  -1.498  0.00  0.00    -0.166 F 
ENDBRANCH  14  16
ENDBRANCH   2  10
BRANCH   5  20
ATOM     20  C   UNL     1      -2.569  -1.986   1.805  0.00  0.00    +0.214 C 
BRANCH  20  21
ATOM     21  C   UNL     1      -2.585  -3.391   1.260  0.00  0.00    +0.236 C 
ATOM     22  O   UNL     1      -1.707  -3.759   0.508  0.00  0.00    -0.274 OA
ATOM     23  N   UNL     1      -3.573  -4.239   1.608  0.00  0.00    -0.278 N 
ATOM     24  H   UNL     1      -4.275  -3.944   2.209  0.00  0.00    +0.155 HD
BRANCH  23  25
ATOM     25  C   UNL     1      -3.587  -5.531   1.106  0.00  0.00    +0.084 A 
ATOM     26  C   UNL     1      -4.519  -6.530   1.347  0.00  0.00    +0.065 A 
ATOM     27  C   UNL     1      -4.293  -7.797   0.691  0.00  0.00    +0.022 A 
ATOM     28  C   UNL     1      -3.196  -7.868  -0.086  0.00  0.00    +0.048 A 
ATOM     29  S   UNL     1      -2.485  -6.244   0.061  0.00  0.00    -0.081 S 
BRANCH  26  30
ATOM     30  C   UNL     1      -5.674  -6.311   2.224  0.00  0.00    +0.244 C 
ATOM     31  O   UNL     1      -5.834  -5.231   2.761  0.00  0.00    -0.270 OA
ATOM     32  N   UNL     1      -6.558  -7.306   2.434  0.00  0.00    -0.325 N 
ATOM     33  H   UNL     1      -6.431  -8.167   2.006  0.00  0.00    +0.145 HD
ATOM     34  H   UNL     1      -7.322  -7.161   3.014  0.00  0.00    +0.145 HD
ENDBRANCH  26  30
ENDBRANCH  23  25
ENDBRANCH  20  21
ENDBRANCH   5  20
TORSDOF 6
