REMARK  Name = ZINC14994916
REMARK  12 active torsions:
REMARK  status: ('A' for Active; 'I' for Inactive)
REMARK    1  A    between atoms: C_1  and  C_2
REMARK    2  A    between atoms: C_2  and  C_4
REMARK    3  A    between atoms: C_2  and  N_26
REMARK    4  A    between atoms: N_11  and  C_14
REMARK    5  A    between atoms: C_14  and  C_15
REMARK    6  A    between atoms: C_16  and  C_17
REMARK    7  A    between atoms: C_20  and  N_23
REMARK    8  A    between atoms: N_23  and  C_24
REMARK    9  A    between atoms: N_23  and  C_25
REMARK   10  A    between atoms: C_27  and  C_29
REMARK   11  A    between atoms: C_29  and  C_30
REMARK   12  A    between atoms: C_29  and  C_31
REMARK                            x       y       z     vdW  Elec       q    Type
REMARK                         _______ _______ _______ _____ _____    ______ ____
ROOT
ATOM      1  C   UNL     1       0.689  -0.529   1.264  0.00  0.00    +0.154 A 
ATOM      2  N   UNL     1       0.229  -0.566   2.489  0.00  0.00    -0.132 NA
ATOM      3  N   UNL     1       1.123  -1.063   3.276  0.00  0.00    -0.134 NA
ATOM      4  C   UNL     1       2.181  -1.361   2.587  0.00  0.00    +0.132 A 
ATOM      5  N   UNL     1       1.935  -1.034   1.301  0.00  0.00    -0.315 N 
ATOM      6  C   UNL     1       2.893  -1.214   0.193  0.00  0.00    +0.106 C 
ATOM      7  C   UNL     1       3.125  -2.726   0.045  0.00  0.00    -0.056 C 
ATOM      8  N   UNL     1       4.069  -3.205   1.028  0.00  0.00    +0.383 N 
ATOM      9  C   UNL     1       3.604  -3.350   2.390  0.00  0.00    -0.071 C 
ATOM     10  C   UNL     1       3.482  -1.972   3.077  0.00  0.00    +0.058 C 
ATOM     11  H   UNL     1       4.855  -2.572   1.036  0.00  0.00    -0.081 HD
ENDROOT
BRANCH   1  13
ATOM     12  C   UNL     1      -0.072   1.506   0.068  0.00  0.00    +0.036 C 
ATOM     13  C   UNL     1      -0.040  -0.024   0.045  0.00  0.00    +0.138 C 
BRANCH  13  14
ATOM     14  N   UNL     1      -1.410  -0.541   0.046  0.00  0.00    -0.306 N 
ATOM     15  C   UNL     1      -2.084  -0.667  -1.114  0.00  0.00    +0.216 C 
ATOM     16  O   UNL     1      -1.556  -0.352  -2.160  0.00  0.00    -0.276 OA
ATOM     17  H   UNL     1      -1.833  -0.793   0.882  0.00  0.00    +0.149 HD
BRANCH  15  18
ATOM     18  C   UNL     1      -3.494  -1.200  -1.113  0.00  0.00    +0.069 C 
ATOM     19  C   UNL     1      -4.383  -0.286  -0.267  0.00  0.00    +0.017 C 
ATOM     20  C   UNL     1      -4.024  -1.241  -2.548  0.00  0.00    +0.017 C 
ENDBRANCH  15  18
ENDBRANCH  13  14
ENDBRANCH   1  13
BRANCH   8  21
ATOM     21  C   UNL     1       4.560  -4.515   0.579  0.00  0.00    -0.051 C 
BRANCH  21  22
ATOM     22  C   UNL     1       5.639  -4.995   1.515  0.00  0.00    -0.045 C 
ATOM     23  C   UNL     1       5.531  -6.181   2.100  0.00  0.00    +0.002 C 
BRANCH  23  24
ATOM     24  C   UNL     1       6.589  -6.651   3.018  0.00  0.00    -0.025 A 
ATOM     25  C   UNL     1       7.701  -5.847   3.274  0.00  0.00    +0.010 A 
ATOM     26  C   UNL     1       8.686  -6.288   4.131  0.00  0.00    +0.023 A 
ATOM     27  C   UNL     1       8.573  -7.533   4.739  0.00  0.00    +0.029 A 
ATOM     28  C   UNL     1       7.468  -8.337   4.485  0.00  0.00    +0.023 A 
ATOM     29  C   UNL     1       6.477  -7.899   3.634  0.00  0.00    +0.010 A 
BRANCH  27  30
ATOM     30  N   UNL     1       9.572  -7.977   5.606  0.00  0.00    -0.336 N 
ATOM     31  C   UNL     1      10.796  -7.191   5.778  0.00  0.00    +0.129 C 
ATOM     32  C   UNL     1       9.398  -9.231   6.345  0.00  0.00    +0.129 C 
ENDBRANCH  27  30
ENDBRANCH  23  24
ENDBRANCH  21  22
ENDBRANCH   8  21
TORSDOF 7
