REMARK  Name = ZINC32679053
REMARK  2 active torsions:
REMARK  status: ('A' for Active; 'I' for Inactive)
REMARK    1  A    between atoms: C_5  and  C_6
REMARK    2  A    between atoms: C_6  and  N_7
REMARK                            x       y       z     vdW  Elec       q    Type
REMARK                         _______ _______ _______ _____ _____    ______ ____
ROOT
ATOM      1  N   UNL     1       4.274  -0.527  -1.419  0.00  0.00    +0.385 N 
ATOM      2  C   UNL     1       3.519  -1.581  -2.110  0.00  0.00    -0.059 C 
ATOM      3  C   UNL     1       3.963  -1.647  -3.574  0.00  0.00    +0.088 C 
ATOM      4  N   UNL     1       5.407  -1.910  -3.634  0.00  0.00    -0.318 N 
ATOM      5  C   UNL     1       6.162  -0.856  -2.942  0.00  0.00    +0.088 C 
ATOM      6  C   UNL     1       5.718  -0.791  -1.478  0.00  0.00    -0.059 C 
ATOM      7  C   UNL     1       5.835  -2.047  -4.950  0.00  0.00    +0.140 A 
ATOM      8  C   UNL     1       5.893  -3.313  -5.529  0.00  0.00    +0.082 A 
ATOM      9  C   UNL     1       6.316  -3.434  -6.841  0.00  0.00    +0.045 A 
ATOM     10  C   UNL     1       6.677  -2.282  -7.530  0.00  0.00    +0.061 A 
ATOM     11  C   UNL     1       6.600  -1.060  -6.891  0.00  0.00    +0.133 A 
ATOM     12  N   UNL     1       6.188  -0.975  -5.640  0.00  0.00    -0.237 NA
ATOM     13 CL   UNL     1       7.221  -2.379  -9.175  0.00  0.00    -0.082 Cl
ATOM     14 CL   UNL     1       5.436  -4.718  -4.618  0.00  0.00    -0.080 Cl
ATOM     15  H   UNL     1       4.080   0.424  -1.936  0.00  0.00    -0.081 HD
ENDROOT
BRANCH   1  16
ATOM     16  C   UNL     1       3.822  -0.382  -0.028  0.00  0.00    -0.035 C 
BRANCH  16  21
ATOM     17  C   UNL     1       1.245  -0.577  -0.013  0.00  0.00    +0.011 A 
ATOM     18  C   UNL     1       0.044   0.108   0.004  0.00  0.00    +0.028 A 
ATOM     19  C   UNL     1       0.062   1.464   0.023  0.00  0.00    +0.078 A 
ATOM     20  S   UNL     1       1.813   1.811   0.017  0.00  0.00    -0.084 S 
ATOM     21  C   UNL     1       2.404   0.126  -0.011  0.00  0.00    -0.025 A 
ATOM     22 CL   UNL     1      -1.272   2.575   0.042  0.00  0.00    -0.076 Cl
ENDBRANCH  16  21
ENDBRANCH   1  16
TORSDOF 2
