REMARK  Name = ZINC08716140
REMARK  7 active torsions:
REMARK  status: ('A' for Active; 'I' for Inactive)
REMARK    1  A    between atoms: C_1  and  C_2
REMARK    2  A    between atoms: C_9  and  C_14
REMARK    3  A    between atoms: C_14  and  O_16
REMARK    4  A    between atoms: O_16  and  C_17
REMARK    5  A    between atoms: C_17  and  C_19
REMARK    6  A    between atoms: C_17  and  C_20
REMARK    7  A    between atoms: N_22  and  C_23
REMARK                            x       y       z     vdW  Elec       q    Type
REMARK                         _______ _______ _______ _____ _____    ______ ____
ROOT
ATOM      1  C   UNL     1       4.002   5.704  -0.938  0.00  0.00    +0.340 C 
ATOM      2  O   UNL     1       4.882   4.961  -1.325  0.00  0.00    -0.245 OA
ENDROOT
BRANCH   1  10
ATOM      3  C   UNL     1      -1.759   2.247  -1.414  0.00  0.00    +0.029 C 
ATOM      4  C   UNL     1      -1.350   1.901   0.019  0.00  0.00    +0.134 C 
ATOM      5  C   UNL     1      -0.014   1.209   0.009  0.00  0.00    +0.230 C 
ATOM      6  O   UNL     1       0.002  -0.004   0.002  0.00  0.00    -0.274 OA
ATOM      7  N   UNL     1       1.149   1.853   0.001  0.00  0.00    -0.284 N 
ATOM      8  C   UNL     1       1.328   3.234  -0.003  0.00  0.00    +0.048 A 
ATOM      9  C   UNL     1       2.527   3.763  -0.452  0.00  0.00    +0.039 A 
ATOM     10  C   UNL     1       2.724   5.146  -0.460  0.00  0.00    +0.061 A 
ATOM     11  C   UNL     1       1.712   6.002  -0.015  0.00  0.00    +0.016 A 
ATOM     12  C   UNL     1       0.519   5.477   0.430  0.00  0.00    +0.017 A 
ATOM     13  C   UNL     1       0.323   4.103   0.437  0.00  0.00    +0.030 A 
ATOM     14  S   UNL     1      -1.207   3.427   1.003  0.00  0.00    -0.111 S 
ATOM     15  H   UNL     1       1.952   1.307  -0.002  0.00  0.00    +0.155 HD
ENDBRANCH   1  10
BRANCH   1  16
ATOM     16  O   UNL     1       4.194   7.038  -0.946  0.00  0.00    -0.449 OA
BRANCH  16  17
ATOM     17  C   UNL     1       5.476   7.516  -1.430  0.00  0.00    +0.259 C 
ATOM     18  C   UNL     1       6.458   7.616  -0.260  0.00  0.00    +0.062 C 
BRANCH  17  19
ATOM     19  C   UNL     1       5.301   8.876  -2.056  0.00  0.00    +0.254 C 
ATOM     20  O   UNL     1       4.224   9.430  -2.010  0.00  0.00    -0.272 OA
ATOM     21  N   UNL     1       6.343   9.476  -2.666  0.00  0.00    -0.309 N 
ATOM     22  H   UNL     1       7.205   9.032  -2.702  0.00  0.00    +0.149 HD
BRANCH  21  23
ATOM     23  C   UNL     1       6.173  10.797  -3.275  0.00  0.00    +0.073 C 
ATOM     24  C   UNL     1       5.685  10.650  -4.731  0.00  0.00    +0.022 C 
ATOM     25  C   UNL     1       6.414  11.784  -5.493  0.00  0.00    +0.002 C 
ATOM     26  C   UNL     1       7.813  11.798  -4.828  0.00  0.00    +0.002 C 
ATOM     27  C   UNL     1       7.526  11.527  -3.337  0.00  0.00    +0.022 C 
ENDBRANCH  21  23
ENDBRANCH  17  19
ENDBRANCH  16  17
ENDBRANCH   1  16
TORSDOF 5
