REMARK  Name = ZINC67313517
REMARK  6 active torsions:
REMARK  status: ('A' for Active; 'I' for Inactive)
REMARK    1  A    between atoms: C_1  and  C_2
REMARK    2  A    between atoms: C_2  and  N_3
REMARK    3  A    between atoms: C_4  and  C_6
REMARK    4  A    between atoms: C_11  and  N_12
REMARK    5  A    between atoms: C_13  and  C_15
REMARK    6  A    between atoms: C_20  and  N_21
REMARK                            x       y       z     vdW  Elec       q    Type
REMARK                         _______ _______ _______ _____ _____    ______ ____
ROOT
ATOM      1  N   UNL     1       1.392  -4.541  -1.823  0.00  0.00    -0.281 N 
ATOM      2  C   UNL     1       2.102  -5.667  -1.613  0.00  0.00    +0.250 C 
ATOM      3  O   UNL     1       3.155  -5.840  -2.196  0.00  0.00    -0.270 OA
ATOM      4  H   UNL     1       0.597  -4.364  -1.297  0.00  0.00    +0.155 HD
ENDROOT
BRANCH   1  10
ATOM      5  C   UNL     1       1.612  -2.256  -2.598  0.00  0.00    +0.059 A 
ATOM      6  C   UNL     1       2.030  -1.354  -3.579  0.00  0.00    +0.035 A 
ATOM      7  C   UNL     1       2.620  -1.820  -4.735  0.00  0.00    +0.042 A 
ATOM      8  C   UNL     1       2.800  -3.181  -4.930  0.00  0.00    +0.022 A 
ATOM      9  C   UNL     1       2.390  -4.084  -3.969  0.00  0.00    +0.025 A 
ATOM     10  C   UNL     1       1.800  -3.632  -2.796  0.00  0.00    +0.046 A 
ATOM     11 CL   UNL     1       3.139  -0.697  -5.953  0.00  0.00    -0.084 Cl
BRANCH   5  13
ATOM     12  N   UNL     1       0.891  -0.440  -1.128  0.00  0.00    -0.312 N 
ATOM     13  C   UNL     1       0.981  -1.765  -1.359  0.00  0.00    +0.246 C 
ATOM     14  O   UNL     1       0.541  -2.555  -0.546  0.00  0.00    -0.270 OA
ATOM     15  H   UNL     1       1.241   0.190  -1.777  0.00  0.00    +0.149 HD
BRANCH  12  17
ATOM     16  C   UNL     1       0.291   1.578   0.117  0.00  0.00    +0.024 C 
ATOM     17  C   UNL     1       0.264   0.048   0.103  0.00  0.00    +0.101 C 
ENDBRANCH  12  17
ENDBRANCH   5  13
ENDBRANCH   1  10
BRANCH   2  18
ATOM     18  C   UNL     1       1.600  -6.693  -0.676  0.00  0.00    +0.067 A 
ATOM     19  C   UNL     1       1.441  -6.387   0.678  0.00  0.00    +0.017 A 
ATOM     20  C   UNL     1       0.973  -7.348   1.548  0.00  0.00    +0.021 A 
ATOM     21  C   UNL     1       0.660  -8.615   1.083  0.00  0.00    +0.043 A 
ATOM     22  C   UNL     1       0.816  -8.924  -0.258  0.00  0.00    +0.053 A 
ATOM     23  C   UNL     1       1.278  -7.969  -1.140  0.00  0.00    +0.140 A 
ATOM     24 CL   UNL     1       0.070  -9.820   2.185  0.00  0.00    -0.083 Cl
BRANCH  23  25
ATOM     25  N   UNL     1       1.438  -8.299  -2.574  0.00  0.00    +0.057 N 
ATOM     26  O   UNL     1       1.081  -9.377  -2.990  0.00  0.00    -0.126 OA
ATOM     27  O   UNL     1       1.925  -7.491  -3.329  0.00  0.00    -0.126 OA
ENDBRANCH  23  25
ENDBRANCH   2  18
TORSDOF 5
