REMARK  Name = ZINC22289342
REMARK  7 active torsions:
REMARK  status: ('A' for Active; 'I' for Inactive)
REMARK    1  A    between atoms: C_1  and  C_2
REMARK    2  A    between atoms: C_2  and  C_3
REMARK    3  A    between atoms: C_2  and  C_4
REMARK    4  A    between atoms: C_2  and  O_19
REMARK    5  A    between atoms: C_9  and  C_12
REMARK    6  A    between atoms: C_12  and  N_13
REMARK    7  A    between atoms: O_19  and  C_20
REMARK                            x       y       z     vdW  Elec       q    Type
REMARK                         _______ _______ _______ _____ _____    ______ ____
ROOT
ATOM      1  C   UNL     1      -1.153  -0.353   0.534  0.00  0.00    +0.262 C 
ATOM      2  O   UNL     1      -1.928  -0.946  -0.185  0.00  0.00    -0.271 OA
ATOM      3  N   UNL     1      -1.537   0.028   1.769  0.00  0.00    -0.261 N 
ATOM      4  C   UNL     1      -2.821  -0.260   2.217  0.00  0.00    +0.165 A 
ATOM      5  N   UNL     1      -3.367   0.035   3.377  0.00  0.00    -0.231 NA
ATOM      6  C   UNL     1      -4.611  -0.311   3.653  0.00  0.00    +0.034 A 
ATOM      7  C   UNL     1      -5.292  -0.980   2.691  0.00  0.00    +0.070 A 
ATOM      8  S   UNL     1      -4.057  -1.063   1.405  0.00  0.00    -0.060 S 
ATOM      9  H   UNL     1      -0.917   0.502   2.345  0.00  0.00    +0.157 HD
ENDROOT
BRANCH   1  11
ATOM     10  C   UNL     1       0.453   1.474   0.051  0.00  0.00    +0.065 C 
ATOM     11  C   UNL     1       0.239  -0.041   0.049  0.00  0.00    +0.180 C 
ATOM     12  C   UNL     1       1.262  -0.703   0.974  0.00  0.00    +0.065 C 
BRANCH  11  13
ATOM     13  O   UNL     1       0.404  -0.543  -1.279  0.00  0.00    -0.477 OA
BRANCH  13  14
ATOM     14  C   UNL     1       0.266  -1.884  -1.454  0.00  0.00    +0.122 A 
ATOM     15  C   UNL     1      -0.147  -2.683  -0.397  0.00  0.00    +0.047 A 
ATOM     16  C   UNL     1      -0.286  -4.046  -0.577  0.00  0.00    +0.023 A 
ATOM     17  C   UNL     1      -0.014  -4.614  -1.808  0.00  0.00    +0.041 A 
ATOM     18  C   UNL     1       0.398  -3.819  -2.863  0.00  0.00    +0.023 A 
ATOM     19  C   UNL     1       0.532  -2.455  -2.690  0.00  0.00    +0.047 A 
ATOM     20 CL   UNL     1      -0.189  -6.326  -2.031  0.00  0.00    -0.084 Cl
ENDBRANCH  13  14
ENDBRANCH  11  13
ENDBRANCH   1  11
BRANCH   6  21
ATOM     21  C   UNL     1      -5.244   0.022   4.980  0.00  0.00    -0.022 C 
BRANCH  21  22
ATOM     22  N   UNL     1      -4.899  -1.015   5.961  0.00  0.00    +0.383 N 
ATOM     23  C   UNL     1      -5.490  -2.293   5.549  0.00  0.00    -0.078 C 
ATOM     24  C   UNL     1      -5.067  -3.394   6.524  0.00  0.00    -0.019 C 
ATOM     25  C   UNL     1      -5.552  -3.035   7.932  0.00  0.00    -0.004 C 
ATOM     26  C   UNL     1      -4.989  -1.665   8.322  0.00  0.00    -0.019 C 
ATOM     27  C   UNL     1      -5.415  -0.629   7.280  0.00  0.00    -0.078 C 
ATOM     28  H   UNL     1      -3.896  -1.111   6.009  0.00  0.00    -0.081 HD
ENDBRANCH  21  22
ENDBRANCH   6  21
TORSDOF 5
