REMARK  Name = ZINC35991736
REMARK  12 active torsions:
REMARK  status: ('A' for Active; 'I' for Inactive)
REMARK    1  A    between atoms: C_1  and  C_2
REMARK    2  A    between atoms: C_2  and  O_3
REMARK    3  A    between atoms: O_3  and  C_4
REMARK    4  A    between atoms: C_4  and  C_6
REMARK    5  A    between atoms: C_7  and  C_25
REMARK    6  A    between atoms: N_8  and  C_24
REMARK    7  A    between atoms: C_12  and  C_14
REMARK    8  A    between atoms: C_19  and  C_20
REMARK    9  A    between atoms: C_25  and  N_26
REMARK   10  A    between atoms: N_26  and  C_27
REMARK   11  A    between atoms: N_26  and  C_28
REMARK   12  A    between atoms: C_28  and  C_29
REMARK                            x       y       z     vdW  Elec       q    Type
REMARK                         _______ _______ _______ _____ _____    ______ ____
ROOT
ATOM      1  C   UNL     1       1.982  -2.615   2.393  0.00  0.00    +0.076 C 
ATOM      2  C   UNL     1       1.841  -3.942   2.599  0.00  0.00    +0.010 C 
ATOM      3  N   UNL     1       2.166  -4.507   3.800  0.00  0.00    -0.264 N 
ATOM      4  C   UNL     1       2.636  -3.813   4.844  0.00  0.00    +0.307 C 
ATOM      5  O   UNL     1       2.897  -4.405   5.873  0.00  0.00    -0.252 OA
ATOM      6  N   UNL     1       2.830  -2.481   4.791  0.00  0.00    -0.288 N 
ATOM      7  C   UNL     1       2.517  -1.776   3.536  0.00  0.00    +0.144 C 
ATOM      8  C   UNL     1       1.988  -5.953   3.954  0.00  0.00    +0.139 C 
ATOM      9  H   UNL     1       3.172  -1.998   5.559  0.00  0.00    +0.151 HD
ENDROOT
BRANCH   7  10
ATOM     10  C   UNL     1       1.496  -0.713   3.849  0.00  0.00    -0.011 A 
ATOM     11  C   UNL     1       0.222  -1.073   4.249  0.00  0.00    +0.006 A 
ATOM     12  C   UNL     1      -0.714  -0.098   4.536  0.00  0.00    +0.000 A 
ATOM     13  C   UNL     1      -0.377   1.239   4.423  0.00  0.00    +0.001 A 
ATOM     14  C   UNL     1       0.897   1.599   4.024  0.00  0.00    +0.013 A 
ATOM     15  C   UNL     1       1.834   0.623   3.741  0.00  0.00    +0.060 A 
BRANCH  15  16
ATOM     16  C   UNL     1       3.224   1.016   3.312  0.00  0.00    +0.418 C 
ATOM     17  F   UNL     1       3.354   2.408   3.367  0.00  0.00    -0.166 F 
ATOM     18  F   UNL     1       4.161   0.426   4.167  0.00  0.00    -0.166 F 
ATOM     19  F   UNL     1       3.449   0.578   2.002  0.00  0.00    -0.166 F 
ENDBRANCH  15  16
ENDBRANCH   7  10
BRANCH   1  20
ATOM     20  C   UNL     1       1.647  -2.029   1.150  0.00  0.00    +0.339 C 
ATOM     21  O   UNL     1       1.334  -2.734   0.209  0.00  0.00    -0.245 OA
BRANCH  20  22
ATOM     22  O   UNL     1       1.675  -0.687   1.007  0.00  0.00    -0.462 OA
BRANCH  22  24
ATOM     23  C   UNL     1       1.434   1.357  -0.259  0.00  0.00    +0.048 C 
ATOM     24  C   UNL     1       1.216  -0.158  -0.238  0.00  0.00    +0.229 C 
ENDBRANCH  22  24
ENDBRANCH  20  22
ENDBRANCH   1  20
BRANCH   2  25
ATOM     25  C   UNL     1       1.318  -4.814   1.487  0.00  0.00    -0.026 C 
BRANCH  25  26
ATOM     26  N   UNL     1       2.420  -5.171   0.584  0.00  0.00    +0.384 N 
ATOM     27  C   UNL     1       3.395  -6.000   1.305  0.00  0.00    -0.095 C 
ATOM     28  H   UNL     1       2.871  -4.330   0.256  0.00  0.00    -0.081 HD
BRANCH  26  29
ATOM     29  C   UNL     1       1.891  -5.922  -0.562  0.00  0.00    -0.043 C 
BRANCH  29  30
ATOM     30  C   UNL     1       3.001  -6.181  -1.548  0.00  0.00    -0.064 A 
ATOM     31  C   UNL     1       3.259  -5.269  -2.554  0.00  0.00    +0.002 A 
ATOM     32  C   UNL     1       4.276  -5.507  -3.458  0.00  0.00    +0.000 A 
ATOM     33  C   UNL     1       5.036  -6.657  -3.357  0.00  0.00    +0.000 A 
ATOM     34  C   UNL     1       4.779  -7.569  -2.351  0.00  0.00    +0.000 A 
ATOM     35  C   UNL     1       3.764  -7.329  -1.444  0.00  0.00    +0.002 A 
ENDBRANCH  29  30
ENDBRANCH  26  29
ENDBRANCH  25  26
ENDBRANCH   2  25
TORSDOF 9
