REMARK  Name = ZINC36102355
REMARK  8 active torsions:
REMARK  status: ('A' for Active; 'I' for Inactive)
REMARK    1  A    between atoms: C_1  and  C_2
REMARK    2  A    between atoms: C_6  and  C_9
REMARK    3  A    between atoms: C_6  and  C_10
REMARK    4  A    between atoms: C_11  and  C_13
REMARK    5  A    between atoms: C_16  and  C_19
REMARK    6  A    between atoms: C_19  and  C_20
REMARK    7  A    between atoms: C_19  and  C_21
REMARK    8  A    between atoms: C_19  and  C_22
REMARK                            x       y       z     vdW  Elec       q    Type
REMARK                         _______ _______ _______ _____ _____    ______ ____
ROOT
ATOM      1  C   UNL     1      -2.031   0.253   0.774  0.00  0.00    +0.039 C 
ATOM      2  C   UNL     1      -1.380  -1.093   0.448  0.00  0.00    +0.133 C 
ATOM      3  C   UNL     1      -0.438  -0.929  -0.750  0.00  0.00    +0.140 C 
ATOM      4  N   UNL     1       0.313  -2.183  -0.924  0.00  0.00    -0.288 N 
ATOM      5  C   UNL     1       0.988  -2.754   0.252  0.00  0.00    +0.055 C 
ATOM      6  C   UNL     1      -0.024  -2.829   1.401  0.00  0.00    +0.185 C 
ATOM      7  O   UNL     1      -0.632  -1.547   1.578  0.00  0.00    -0.373 OA
ATOM      8  C   UNL     1       1.497  -4.159  -0.078  0.00  0.00    +0.034 C 
ATOM      9  C   UNL     1       2.162  -1.861   0.656  0.00  0.00    +0.034 C 
ATOM     10  C   UNL     1       0.381  -2.789  -2.126  0.00  0.00    +0.247 C 
ATOM     11  O   UNL     1       1.070  -3.781  -2.268  0.00  0.00    -0.270 OA
ENDROOT
BRANCH  10  12
ATOM     12  C   UNL     1      -0.383  -2.249  -3.271  0.00  0.00    +0.037 A 
ATOM     13  C   UNL     1      -0.574  -0.873  -3.399  0.00  0.00    +0.013 A 
ATOM     14  C   UNL     1      -1.288  -0.375  -4.470  0.00  0.00    +0.005 A 
ATOM     15  C   UNL     1      -1.813  -1.238  -5.416  0.00  0.00    -0.042 A 
ATOM     16  C   UNL     1      -1.627  -2.603  -5.295  0.00  0.00    +0.005 A 
ATOM     17  C   UNL     1      -0.910  -3.114  -4.232  0.00  0.00    +0.013 A 
BRANCH  15  18
ATOM     18  C   UNL     1      -2.591  -0.687  -6.583  0.00  0.00    -0.013 C 
ATOM     19  C   UNL     1      -1.698   0.254  -7.393  0.00  0.00    +0.015 C 
ATOM     20  C   UNL     1      -3.059  -1.840  -7.473  0.00  0.00    +0.015 C 
ATOM     21  C   UNL     1      -3.808   0.084  -6.066  0.00  0.00    +0.015 C 
ENDBRANCH  15  18
ENDBRANCH  10  12
TORSDOF 2
