REMARK  Name = ZINC15277480
REMARK  13 active torsions:
REMARK  status: ('A' for Active; 'I' for Inactive)
REMARK    1  A    between atoms: C_1  and  C_2
REMARK    2  A    between atoms: C_3  and  C_33
REMARK    3  A    between atoms: C_4  and  C_23
REMARK    4  A    between atoms: C_10  and  C_15
REMARK    5  A    between atoms: C_20  and  O_21
REMARK    6  A    between atoms: O_21  and  C_22
REMARK    7  A    between atoms: C_26  and  O_31
REMARK    8  A    between atoms: C_27  and  O_29
REMARK    9  A    between atoms: O_29  and  C_30
REMARK   10  A    between atoms: O_31  and  C_32
REMARK   11  A    between atoms: C_33  and  O_35
REMARK   12  A    between atoms: O_35  and  C_36
REMARK   13  A    between atoms: C_36  and  C_37
REMARK                            x       y       z     vdW  Elec       q    Type
REMARK                         _______ _______ _______ _____ _____    ______ ____
ROOT
ATOM      1  C   UNL     1      -4.490   7.879  -2.645  0.00  0.00    +0.061 C 
ATOM      2  C   UNL     1      -5.326   7.310  -1.527  0.00  0.00    +0.031 C 
ATOM      3  C   UNL     1      -4.992   6.130  -0.977  0.00  0.00    +0.154 C 
ATOM      4  C   UNL     1      -5.788   5.544   0.153  0.00  0.00    +0.073 C 
ATOM      5  C   UNL     1      -7.152   6.182   0.239  0.00  0.00    +0.025 C 
ATOM      6  C   UNL     1      -7.401   7.363  -0.367  0.00  0.00    +0.049 C 
ATOM      7  N   UNL     1      -6.419   7.998  -1.079  0.00  0.00    -0.260 NA
ATOM      8  C   UNL     1      -8.756   8.017  -0.266  0.00  0.00    +0.064 C 
ATOM      9  C   UNL     1      -9.837   6.942  -0.151  0.00  0.00    +0.036 C 
ATOM     10  C   UNL     1      -9.541   6.083   1.083  0.00  0.00    +0.088 C 
ATOM     11  C   UNL     1      -8.155   5.512   0.962  0.00  0.00    +0.162 C 
ATOM     12  O   UNL     1      -7.897   4.452   1.497  0.00  0.00    -0.292 OA
ENDROOT
BRANCH   9  13
ATOM     13  C   UNL     1     -11.188   7.595  -0.006  0.00  0.00    -0.002 A 
ATOM     14  C   UNL     1     -11.441   8.427   1.067  0.00  0.00    +0.007 A 
ATOM     15  C   UNL     1     -12.679   9.030   1.198  0.00  0.00    +0.001 A 
ATOM     16  C   UNL     1     -13.668   8.794   0.261  0.00  0.00    +0.004 A 
ATOM     17  C   UNL     1     -13.421   7.958  -0.810  0.00  0.00    +0.046 A 
ATOM     18  C   UNL     1     -12.179   7.356  -0.947  0.00  0.00    +0.124 A 
BRANCH  18  19
ATOM     19  O   UNL     1     -11.933   6.533  -2.000  0.00  0.00    -0.495 OA
ATOM     20  C   UNL     1     -13.000   6.333  -2.929  0.00  0.00    +0.277 C 
ENDBRANCH  18  19
ENDBRANCH   9  13
BRANCH   4  21
ATOM     21  C   UNL     1      -5.056   5.764   1.451  0.00  0.00    -0.035 A 
ATOM     22  C   UNL     1      -4.769   7.050   1.871  0.00  0.00    +0.008 A 
ATOM     23  C   UNL     1      -4.102   7.258   3.064  0.00  0.00    +0.050 A 
ATOM     24  C   UNL     1      -3.710   6.176   3.836  0.00  0.00    +0.162 A 
ATOM     25  C   UNL     1      -3.994   4.882   3.411  0.00  0.00    +0.162 A 
ATOM     26  C   UNL     1      -4.668   4.681   2.217  0.00  0.00    +0.053 A 
BRANCH  25  27
ATOM     27  O   UNL     1      -3.612   3.818   4.165  0.00  0.00    -0.491 OA
ATOM     28  C   UNL     1      -3.937   2.519   3.667  0.00  0.00    +0.277 C 
ENDBRANCH  25  27
BRANCH  24  29
ATOM     29  O   UNL     1      -3.050   6.379   5.008  0.00  0.00    -0.491 OA
ATOM     30  C   UNL     1      -2.792   7.734   5.381  0.00  0.00    +0.277 C 
ENDBRANCH  24  29
ENDBRANCH   4  21
BRANCH   3  31
ATOM     31  C   UNL     1      -3.863   5.431  -1.466  0.00  0.00    +0.317 C 
ATOM     32  O   UNL     1      -3.267   5.846  -2.443  0.00  0.00    -0.250 OA
BRANCH  31  33
ATOM     33  O   UNL     1      -3.446   4.306  -0.850  0.00  0.00    -0.462 OA
BRANCH  33  34
ATOM     34  C   UNL     1      -2.300   3.652  -1.397  0.00  0.00    +0.263 C 
BRANCH  34  35
ATOM     35  C   UNL     1      -1.981   2.404  -0.571  0.00  0.00    +0.156 C 
ATOM     36  C   UNL     1      -0.822   1.613  -1.218  0.00  0.00    +0.037 C 
ATOM     37  C   UNL     1      -0.010   1.085  -0.014  0.00  0.00    +0.031 C 
ATOM     38  C   UNL     1      -0.772   1.620   1.220  0.00  0.00    +0.160 C 
ATOM     39  O   UNL     1      -1.489   2.778   0.734  0.00  0.00    -0.373 OA
ENDBRANCH  34  35
ENDBRANCH  33  34
ENDBRANCH  31  33
ENDBRANCH   3  31
TORSDOF 9
