REMARK  Name = ZINC37328543
REMARK  5 active torsions:
REMARK  status: ('A' for Active; 'I' for Inactive)
REMARK    1  A    between atoms: C_1  and  C_2
REMARK    2  A    between atoms: C_3  and  C_21
REMARK    3  A    between atoms: C_9  and  C_11
REMARK    4  A    between atoms: C_11  and  S_12
REMARK    5  A    between atoms: S_12  and  C_13
REMARK                            x       y       z     vdW  Elec       q    Type
REMARK                         _______ _______ _______ _____ _____    ______ ____
ROOT
ATOM      1  C   UNL     1      -0.018   1.503   0.010  0.00  0.00    +0.045 C 
ATOM      2  C   UNL     1       0.002  -0.004   0.002  0.00  0.00    -0.028 A 
ATOM      3  C   UNL     1       0.006  -0.676  -1.158  0.00  0.00    -0.008 A 
ATOM      4  S   UNL     1       0.031  -2.385  -0.653  0.00  0.00    -0.074 S 
ATOM      5  C   UNL     1       0.036  -2.154   1.105  0.00  0.00    +0.114 A 
ATOM      6  C   UNL     1       0.024  -0.746   1.252  0.00  0.00    +0.048 A 
ATOM      7  C   UNL     1       0.030  -0.274   2.585  0.00  0.00    +0.141 A 
ATOM      8  N   UNL     1       0.051  -1.142   3.576  0.00  0.00    -0.219 NA
ATOM      9  C   UNL     1       0.067  -2.447   3.371  0.00  0.00    +0.142 A 
ATOM     10  N   UNL     1       0.051  -2.951   2.152  0.00  0.00    -0.224 NA
ATOM     11 CL   UNL     1       0.010   1.431   2.912  0.00  0.00    -0.061 Cl
ATOM     12  C   UNL     1      -0.009  -0.118  -2.558  0.00  0.00    +0.052 C 
ENDROOT
BRANCH   9  13
ATOM     13  C   UNL     1       0.090  -3.379   4.555  0.00  0.00    +0.150 C 
BRANCH  13  14
ATOM     14  S   UNL     1      -1.610  -3.776   5.046  0.00  0.00    -0.115 S 
BRANCH  14  15
ATOM     15  C   UNL     1      -1.414  -4.859   6.422  0.00  0.00    +0.043 A 
ATOM     16  C   UNL     1      -0.142  -5.196   6.868  0.00  0.00    +0.017 A 
ATOM     17  C   UNL     1       0.008  -6.045   7.947  0.00  0.00    +0.001 A 
ATOM     18  C   UNL     1      -1.106  -6.561   8.584  0.00  0.00    +0.003 A 
ATOM     19  C   UNL     1      -2.374  -6.229   8.144  0.00  0.00    +0.039 A 
ATOM     20  C   UNL     1      -2.533  -5.375   7.068  0.00  0.00    +0.137 A 
ATOM     21  F   UNL     1      -3.772  -5.047   6.642  0.00  0.00    -0.204 F 
ENDBRANCH  14  15
ENDBRANCH  13  14
ENDBRANCH   9  13
TORSDOF 3
