REMARK  Name = ZINC39846096
REMARK  10 active torsions:
REMARK  status: ('A' for Active; 'I' for Inactive)
REMARK    1  A    between atoms: C_1  and  C_2
REMARK    2  A    between atoms: C_2  and  C_3
REMARK    3  A    between atoms: C_2  and  C_4
REMARK    4  A    between atoms: C_4  and  N_5
REMARK    5  A    between atoms: N_5  and  C_6
REMARK    6  A    between atoms: C_7  and  S_19
REMARK    7  A    between atoms: C_9  and  C_11
REMARK    8  A    between atoms: C_14  and  O_17
REMARK    9  A    between atoms: O_17  and  C_18
REMARK   10  A    between atoms: S_19  and  C_22
REMARK                            x       y       z     vdW  Elec       q    Type
REMARK                         _______ _______ _______ _____ _____    ______ ____
ROOT
ATOM      1  C   UNL     1      -2.612  -2.704  -0.130  0.00  0.00    +0.233 A 
ATOM      2  C   UNL     1      -2.748  -4.047  -0.237  0.00  0.00    +0.243 A 
ATOM      3  N   UNL     1      -4.060  -4.329  -0.211  0.00  0.00    -0.188 NA
ATOM      4  C   UNL     1      -4.730  -3.207  -0.093  0.00  0.00    +0.231 A 
ATOM      5  O   UNL     1      -3.853  -2.185  -0.035  0.00  0.00    -0.420 OA
ENDROOT
BRANCH   4   6
ATOM      6  C   UNL     1      -6.200  -3.085  -0.028  0.00  0.00    +0.037 A 
ATOM      7  C   UNL     1      -7.001  -4.228  -0.087  0.00  0.00    +0.017 A 
ATOM      8  C   UNL     1      -8.373  -4.109  -0.027  0.00  0.00    +0.046 A 
ATOM      9  C   UNL     1      -8.959  -2.856   0.094  0.00  0.00    +0.120 A 
ATOM     10  C   UNL     1      -8.166  -1.717   0.153  0.00  0.00    +0.046 A 
ATOM     11  C   UNL     1      -6.793  -1.827   0.099  0.00  0.00    +0.017 A 
BRANCH   9  12
ATOM     12  O   UNL     1     -10.311  -2.743   0.153  0.00  0.00    -0.495 OA
ATOM     13  C   UNL     1     -10.848  -1.424   0.277  0.00  0.00    +0.277 C 
ENDBRANCH   9  12
ENDBRANCH   4   6
BRANCH   2  14
ATOM     14  S   UNL     1      -1.438  -5.216  -0.383  0.00  0.00    +0.047 S 
ATOM     15  O   UNL     1      -1.987  -6.366  -1.012  0.00  0.00    -0.163 OA
ATOM     16  O   UNL     1      -0.325  -4.513  -0.920  0.00  0.00    -0.163 OA
BRANCH  14  17
ATOM     17  C   UNL     1      -0.987  -5.701   1.250  0.00  0.00    +0.095 A 
ATOM     18  C   UNL     1      -0.015  -4.997   1.936  0.00  0.00    +0.028 A 
ATOM     19  C   UNL     1       0.338  -5.377   3.217  0.00  0.00    +0.017 A 
ATOM     20  C   UNL     1      -0.280  -6.461   3.812  0.00  0.00    +0.018 A 
ATOM     21  C   UNL     1      -1.252  -7.165   3.125  0.00  0.00    +0.017 A 
ATOM     22  C   UNL     1      -1.609  -6.782   1.846  0.00  0.00    +0.028 A 
ATOM     23 BR   UNL     1       0.203  -6.982   5.565  0.00  0.00    -0.050 Br
ENDBRANCH  14  17
ENDBRANCH   2  14
BRANCH   1  24
ATOM     24  N   UNL     1      -1.416  -1.993  -0.116  0.00  0.00    -0.312 N 
ATOM     25  H   UNL     1      -0.572  -2.463  -0.190  0.00  0.00    +0.149 HD
BRANCH  24  26
ATOM     26  C   UNL     1      -1.433  -0.534   0.013  0.00  0.00    +0.107 C 
BRANCH  26  28
ATOM     27  C   UNL     1      -0.019   1.526   0.010  0.00  0.00    +0.009 C 
ATOM     28  C   UNL     1       0.002  -0.004   0.002  0.00  0.00    -0.000 C 
ATOM     29  C   UNL     1       0.742  -0.511   1.242  0.00  0.00    +0.009 C 
ENDBRANCH  26  28
ENDBRANCH  24  26
ENDBRANCH   1  24
TORSDOF 7
