REMARK  Name = ZINC13072961
REMARK  5 active torsions:
REMARK  status: ('A' for Active; 'I' for Inactive)
REMARK    1  A    between atoms: C_1  and  C_2
REMARK    2  A    between atoms: C_9  and  N_13
REMARK    3  A    between atoms: C_10  and  C_11
REMARK    4  A    between atoms: C_14  and  C_16
REMARK    5  A    between atoms: C_16  and  N_17
REMARK                            x       y       z     vdW  Elec       q    Type
REMARK                         _______ _______ _______ _____ _____    ______ ____
ROOT
ATOM      1  C   UNL     1       5.139   2.916  -2.298  0.00  0.00    +0.214 C 
ENDROOT
BRANCH   1   2
ATOM      2  N   UNL     1       4.227   2.525  -1.220  0.00  0.00    -0.215 N 
ATOM      3  C   UNL     1       3.115   1.784  -1.399  0.00  0.00    +0.251 C 
ATOM      4  O   UNL     1       2.694   1.332  -2.443  0.00  0.00    -0.272 OA
ATOM      5  C   UNL     1       2.502   1.634  -0.025  0.00  0.00    +0.138 C 
ATOM      6  C   UNL     1       2.452   0.164   0.374  0.00  0.00    +0.040 C 
ATOM      7  C   UNL     1       1.362  -0.525  -0.456  0.00  0.00    +0.008 C 
ATOM      8  C   UNL     1       0.002  -0.004   0.002  0.00  0.00    +0.035 C 
ATOM      9  C   UNL     1      -0.018   1.502   0.010  0.00  0.00    -0.042 A 
ATOM     10  C   UNL     1       1.135   2.257   0.003  0.00  0.00    -0.012 A 
ATOM     11  C   UNL     1       1.048   3.643   0.020  0.00  0.00    +0.006 A 
ATOM     12  C   UNL     1      -0.181   4.269   0.038  0.00  0.00    +0.000 A 
ATOM     13  C   UNL     1      -1.337   3.511   0.039  0.00  0.00    +0.000 A 
ATOM     14  C   UNL     1      -1.254   2.134   0.031  0.00  0.00    +0.004 A 
ATOM     15  N   UNL     1       3.418   2.373   0.854  0.00  0.00    -0.281 N 
ATOM     16  C   UNL     1       4.396   2.858   0.065  0.00  0.00    +0.310 C 
ATOM     17  O   UNL     1       5.326   3.525   0.474  0.00  0.00    -0.252 OA
ATOM     18  H   UNL     1       3.335   2.489   1.814  0.00  0.00    +0.152 HD
ENDBRANCH   1   2
BRANCH   1  20
ATOM     19  N   UNL     1       5.389   4.794  -3.888  0.00  0.00    -0.278 N 
ATOM     20  C   UNL     1       4.696   4.235  -2.877  0.00  0.00    +0.236 C 
ATOM     21  O   UNL     1       3.715   4.793  -2.433  0.00  0.00    -0.274 OA
ATOM     22  H   UNL     1       6.173   4.347  -4.244  0.00  0.00    +0.155 HD
BRANCH  19  30
ATOM     23  C   UNL     1       2.823  11.690  -6.547  0.00  0.00    +0.008 C 
ATOM     24  C   UNL     1       3.760  10.562  -6.111  0.00  0.00    -0.009 C 
ATOM     25  C   UNL     1       4.320   9.853  -7.347  0.00  0.00    +0.008 C 
ATOM     26  C   UNL     1       5.442   8.898  -6.936  0.00  0.00    +0.037 C 
ATOM     27  C   UNL     1       4.929   7.989  -5.825  0.00  0.00    -0.018 A 
ATOM     28  C   UNL     1       3.831   8.318  -5.109  0.00  0.00    -0.004 A 
ATOM     29  S   UNL     1       3.628   6.987  -3.959  0.00  0.00    -0.077 S 
ATOM     30  C   UNL     1       4.981   6.008  -4.421  0.00  0.00    +0.090 A 
ATOM     31  C   UNL     1       5.561   6.737  -5.449  0.00  0.00    +0.084 A 
ATOM     32  C   UNL     1       2.984   9.543  -5.265  0.00  0.00    +0.046 C 
BRANCH  31  33
ATOM     33  C   UNL     1       6.737   6.269  -6.119  0.00  0.00    +0.102 C 
ATOM     34  N   UNL     1       7.671   5.897  -6.649  0.00  0.00    -0.191 NA
ENDBRANCH  31  33
ENDBRANCH  19  30
ENDBRANCH   1  20
TORSDOF 4
