REMARK  Name = ZINC21316753
REMARK  14 active torsions:
REMARK  status: ('A' for Active; 'I' for Inactive)
REMARK    1  A    between atoms: C_1  and  C_2
REMARK    2  A    between atoms: C_2  and  C_3
REMARK    3  A    between atoms: C_3  and  C_5
REMARK    4  A    between atoms: C_3  and  C_6
REMARK    5  A    between atoms: C_9  and  N_12
REMARK    6  A    between atoms: C_13  and  C_15
REMARK    7  A    between atoms: C_15  and  S_16
REMARK    8  A    between atoms: S_16  and  C_17
REMARK    9  A    between atoms: N_21  and  N_22
REMARK   10  A    between atoms: N_23  and  N_24
REMARK   11  A    between atoms: C_25  and  C_26
REMARK   12  A    between atoms: C_29  and  O_33
REMARK   13  A    between atoms: C_30  and  O_32
REMARK   14  A    between atoms: O_33  and  C_34
REMARK                            x       y       z     vdW  Elec       q    Type
REMARK                         _______ _______ _______ _____ _____    ______ ____
ROOT
ATOM      1  C   UNL     1       1.307  -0.408  -0.025  0.00  0.00    +0.210 A 
ATOM      2  N   UNL     1       2.064   0.663  -0.036  0.00  0.00    -0.119 NA
ATOM      3  N   UNL     1       1.225   1.786  -0.028  0.00  0.00    -0.109 NA
ATOM      4  C   UNL     1      -0.016   1.364  -0.013  0.00  0.00    +0.254 A 
ATOM      5  N   UNL     1       0.002  -0.003  -0.011  0.00  0.00    -0.211 N 
ATOM      6  N   UNL     1      -1.149   2.164  -0.007  0.00  0.00    -0.204 N 
ATOM      7  H   UNL     1      -2.148   1.703   0.001  0.00  0.00    +0.177 HD
ENDROOT
BRANCH   5   8
ATOM      8  N   UNL     1      -1.092  -0.821   0.004  0.00  0.00    -0.294 N 
ATOM      9  H   UNL     1      -2.103  -0.387   0.015  0.00  0.00    +0.163 HD
ATOM     10  H   UNL     1      -0.962  -1.913   0.005  0.00  0.00    +0.163 HD
ENDBRANCH   5   8
BRANCH   6  11
ATOM     11  N   UNL     1      -1.022   3.559  -0.010  0.00  0.00    -0.188 NA
ATOM     12  C   UNL     1      -2.083   4.308  -0.004  0.00  0.00    +0.138 C 
BRANCH  12  13
ATOM     13  C   UNL     1      -1.948   5.776  -0.007  0.00  0.00    -0.002 A 
ATOM     14  C   UNL     1      -0.681   6.364  -0.011  0.00  0.00    +0.013 A 
ATOM     15  C   UNL     1      -0.557   7.737  -0.020  0.00  0.00    +0.050 A 
ATOM     16  C   UNL     1      -1.690   8.539  -0.014  0.00  0.00    +0.161 A 
ATOM     17  C   UNL     1      -2.957   7.960  -0.004  0.00  0.00    +0.159 A 
ATOM     18  C   UNL     1      -3.089   6.584  -0.001  0.00  0.00    +0.058 A 
BRANCH  17  19
ATOM     19  O   UNL     1      -4.064   8.749   0.002  0.00  0.00    -0.503 OA
ATOM     20  H   UNL     1      -5.065   8.292   0.009  0.00  0.00    +0.292 HD
ENDBRANCH  17  19
BRANCH  16  21
ATOM     21  O   UNL     1      -1.562   9.892  -0.017  0.00  0.00    -0.491 OA
ATOM     22  C   UNL     1      -0.234  10.419  -0.028  0.00  0.00    +0.277 C 
ENDBRANCH  16  21
ENDBRANCH  12  13
ENDBRANCH   6  11
BRANCH   1  23
ATOM     23  S   UNL     1       1.874  -2.076  -0.028  0.00  0.00    -0.075 S 
BRANCH  23  24
ATOM     24  C   UNL     1       3.681  -1.926  -0.050  0.00  0.00    +0.173 C 
BRANCH  24  26
ATOM     25  N   UNL     1       5.641  -3.435  -0.069  0.00  0.00    -0.285 N 
ATOM     26  C   UNL     1       4.300  -3.300  -0.054  0.00  0.00    +0.227 C 
ATOM     27  O   UNL     1       3.591  -4.284  -0.043  0.00  0.00    -0.275 OA
ATOM     28  H   UNL     1       6.283  -2.546  -0.156  0.00  0.00    +0.155 HD
BRANCH  25  32
ATOM     29  C   UNL     1       7.356  -7.221   0.210  0.00  0.00    -0.044 A 
ATOM     30  C   UNL     1       6.165  -7.052  -0.471  0.00  0.00    +0.006 A 
ATOM     31  C   UNL     1       5.594  -5.798  -0.566  0.00  0.00    +0.023 A 
ATOM     32  C   UNL     1       6.217  -4.707   0.025  0.00  0.00    +0.033 A 
ATOM     33  C   UNL     1       7.416  -4.879   0.704  0.00  0.00    +0.023 A 
ATOM     34  C   UNL     1       7.979  -6.137   0.800  0.00  0.00    +0.006 A 
BRANCH  29  35
ATOM     35  C   UNL     1       7.976  -8.591   0.312  0.00  0.00    +0.016 C 
ATOM     36  C   UNL     1       9.366  -8.570  -0.328  0.00  0.00    +0.012 C 
BRANCH  35  38
ATOM     37  C   UNL     1       8.611 -10.426   1.884  0.00  0.00    +0.004 C 
ATOM     38  C   UNL     1       8.098  -8.988   1.784  0.00  0.00    +0.004 C 
ENDBRANCH  35  38
ENDBRANCH  29  35
ENDBRANCH  25  32
ENDBRANCH  24  26
ENDBRANCH  23  24
ENDBRANCH   1  23
TORSDOF 11
