REMARK  Name = ZINC35454834
REMARK  5 active torsions:
REMARK  status: ('A' for Active; 'I' for Inactive)
REMARK    1  A    between atoms: C_1  and  N_2
REMARK    2  A    between atoms: N_2  and  C_3
REMARK    3  A    between atoms: C_8  and  C_10
REMARK    4  A    between atoms: N_18  and  S_20
REMARK    5  A    between atoms: S_20  and  C_23
REMARK                            x       y       z     vdW  Elec       q    Type
REMARK                         _______ _______ _______ _____ _____    ______ ____
ROOT
ATOM      1  C   UNL     1      -1.263   0.495   0.548  0.00  0.00    +0.130 C 
ATOM      2  N   UNL     1       0.002  -0.004   0.002  0.00  0.00    -0.321 N 
ATOM      3  C   UNL     1       1.265   0.317   0.671  0.00  0.00    +0.130 C 
ATOM      4  C   UNL     1       0.004  -0.779  -1.146  0.00  0.00    +0.129 A 
ATOM      5  C   UNL     1       0.043  -0.175  -2.409  0.00  0.00    +0.030 A 
ATOM      6  C   UNL     1       0.049  -0.976  -3.525  0.00  0.00    +0.053 A 
ATOM      7  N   UNL     1       0.004  -2.297  -3.367  0.00  0.00    -0.232 NA
ATOM      8  C   UNL     1      -0.035  -2.844  -2.163  0.00  0.00    +0.162 A 
ATOM      9  N   UNL     1      -0.027  -2.103  -1.063  0.00  0.00    -0.212 NA
ATOM     10  C   UNL     1       0.121  -0.429  -4.925  0.00  0.00    +0.073 C 
ATOM     11  C   UNL     1      -0.312   1.037  -4.956  0.00  0.00    +0.116 C 
ATOM     12  N   UNL     1       0.381   1.740  -3.864  0.00  0.00    -0.172 NA
ATOM     13  C   UNL     1       0.069   1.328  -2.490  0.00  0.00    +0.149 C 
ENDROOT
BRANCH   8  14
ATOM     14  C   UNL     1      -0.082  -4.321  -2.040  0.00  0.00    +0.019 A 
ATOM     15  C   UNL     1      -0.080  -5.118  -3.183  0.00  0.00    +0.011 A 
ATOM     16  C   UNL     1      -0.124  -6.493  -3.063  0.00  0.00    +0.001 A 
ATOM     17  C   UNL     1      -0.171  -7.079  -1.811  0.00  0.00    +0.000 A 
ATOM     18  C   UNL     1      -0.173  -6.292  -0.673  0.00  0.00    +0.001 A 
ATOM     19  C   UNL     1      -0.123  -4.917  -0.781  0.00  0.00    +0.011 A 
ENDBRANCH   8  14
BRANCH  12  20
ATOM     20  S   UNL     1       1.470   2.949  -4.174  0.00  0.00    +0.063 S 
ATOM     21  O   UNL     1       2.332   3.018  -3.047  0.00  0.00    -0.153 OA
ATOM     22  O   UNL     1       1.955   2.730  -5.492  0.00  0.00    -0.153 OA
BRANCH  20  23
ATOM     23  C   UNL     1       0.570   4.463  -4.214  0.00  0.00    +0.131 A 
ATOM     24  C   UNL     1       0.808   5.424  -3.280  0.00  0.00    +0.031 A 
ATOM     25  C   UNL     1       0.108   6.628  -3.293  0.00  0.00    +0.003 A 
ATOM     26  C   UNL     1      -0.835   6.878  -4.243  0.00  0.00    +0.010 A 
ATOM     27  C   UNL     1      -1.106   5.910  -5.223  0.00  0.00    +0.002 A 
ATOM     28  C   UNL     1      -0.391   4.686  -5.215  0.00  0.00    +0.097 A 
ATOM     29  N   UNL     1      -0.642   3.763  -6.149  0.00  0.00    -0.253 NA
ATOM     30  C   UNL     1      -1.538   3.966  -7.084  0.00  0.00    +0.111 A 
ATOM     31  C   UNL     1      -2.272   5.149  -7.152  0.00  0.00    +0.020 A 
ATOM     32  C   UNL     1      -2.073   6.129  -6.222  0.00  0.00    +0.011 A 
ENDBRANCH  20  23
ENDBRANCH  12  20
TORSDOF 3
