REMARK  Name = ZINC39540640
REMARK  5 active torsions:
REMARK  status: ('A' for Active; 'I' for Inactive)
REMARK    1  A    between atoms: C_1  and  C_2
REMARK    2  A    between atoms: C_2  and  C_3
REMARK    3  A    between atoms: C_2  and  C_4
REMARK    4  A    between atoms: C_4  and  N_5
REMARK    5  A    between atoms: C_7  and  O_11
REMARK                            x       y       z     vdW  Elec       q    Type
REMARK                         _______ _______ _______ _____ _____    ______ ____
ROOT
ATOM      1  N   UNL     1      -2.105  -0.148  -1.230  0.00  0.00    -0.349 N 
ATOM      2  C   UNL     1      -2.811   1.007  -1.431  0.00  0.00    +0.132 A 
ATOM      3  C   UNL     1      -3.278   1.000  -2.699  0.00  0.00    +0.148 A 
ATOM      4  C   UNL     1      -2.845  -0.201  -3.301  0.00  0.00    +0.077 A 
ATOM      5  C   UNL     1      -2.127  -0.879  -2.382  0.00  0.00    +0.104 A 
ATOM      6 BR   UNL     1      -3.201  -0.755  -5.074  0.00  0.00    -0.045 Br
ENDROOT
BRANCH   3   7
ATOM      7  O   UNL     1      -4.029   1.973  -3.287  0.00  0.00    -0.504 OA
ATOM      8  H   UNL     1      -3.509   2.657  -3.731  0.00  0.00    +0.292 HD
ENDBRANCH   3   7
BRANCH   1   9
ATOM      9  C   UNL     1      -1.433  -0.534   0.013  0.00  0.00    +0.124 C 
BRANCH   9  11
ATOM     10  C   UNL     1      -0.019   1.526   0.010  0.00  0.00    +0.009 C 
ATOM     11  C   UNL     1       0.002  -0.004   0.002  0.00  0.00    +0.003 C 
ATOM     12  C   UNL     1       0.742  -0.511   1.242  0.00  0.00    +0.009 C 
ENDBRANCH   9  11
ENDBRANCH   1   9
TORSDOF 3
