REMARK  Name = ZINC11591795
REMARK  6 active torsions:
REMARK  status: ('A' for Active; 'I' for Inactive)
REMARK    1  A    between atoms: C_3  and  C_6
REMARK    2  A    between atoms: C_9  and  S_12
REMARK    3  A    between atoms: N_10  and  N_11
REMARK    4  A    between atoms: S_12  and  C_13
REMARK    5  A    between atoms: C_13  and  C_14
REMARK    6  A    between atoms: C_17  and  C_19
REMARK                            x       y       z     vdW  Elec       q    Type
REMARK                         _______ _______ _______ _____ _____    ______ ____
ROOT
ATOM      1  S   UNL     1       3.530   8.000  -0.397  0.00  0.00    -0.075 S 
ENDROOT
BRANCH   1   5
ATOM      2  C   UNL     1       0.914   5.126   0.019  0.00  0.00    +0.188 A 
ATOM      3  N   UNL     1       0.212   6.201   0.304  0.00  0.00    -0.126 NA
ATOM      4  N   UNL     1       0.953   7.247   0.208  0.00  0.00    -0.121 NA
ATOM      5  C   UNL     1       2.172   6.906  -0.144  0.00  0.00    +0.209 A 
ATOM      6  N   UNL     1       2.193   5.545  -0.272  0.00  0.00    -0.223 N 
BRANCH   2   9
ATOM      7  C   UNL     1      -1.081   1.915   0.017  0.00  0.00    +0.008 A 
ATOM      8  C   UNL     1      -0.866   3.275   0.026  0.00  0.00    +0.019 A 
ATOM      9  C   UNL     1       0.426   3.737   0.017  0.00  0.00    +0.058 A 
ATOM     10  S   UNL     1       1.361   2.216   0.001  0.00  0.00    -0.093 S 
ATOM     11  C   UNL     1      -0.013   1.076   0.008  0.00  0.00    +0.046 A 
ENDBRANCH   2   9
BRANCH   6  12
ATOM     12  N   UNL     1       3.259   4.764  -0.618  0.00  0.00    -0.295 N 
ATOM     13  H   UNL     1       3.308   4.641  -1.618  0.00  0.00    +0.163 HD
ATOM     14  H   UNL     1       4.120   5.149  -0.259  0.00  0.00    +0.163 HD
ENDBRANCH   6  12
ENDBRANCH   1   5
BRANCH   1  15
ATOM     15  C   UNL     1       2.730   9.583  -0.038  0.00  0.00    +0.175 C 
BRANCH  15  16
ATOM     16  C   UNL     1       3.730  10.699  -0.195  0.00  0.00    +0.228 A 
ATOM     17  N   UNL     1       3.975  11.365  -1.289  0.00  0.00    -0.111 NA
ATOM     18  N   UNL     1       4.887  12.244  -1.062  0.00  0.00    -0.107 NA
ATOM     19  C   UNL     1       5.258  12.169   0.194  0.00  0.00    +0.248 A 
ATOM     20  O   UNL     1       4.527  11.192   0.768  0.00  0.00    -0.419 OA
BRANCH  19  21
ATOM     21  C   UNL     1       6.281  13.004   0.858  0.00  0.00    +0.039 A 
ATOM     22  C   UNL     1       6.571  12.814   2.210  0.00  0.00    +0.014 A 
ATOM     23  C   UNL     1       7.530  13.593   2.823  0.00  0.00    +0.021 A 
ATOM     24  C   UNL     1       8.198  14.569   2.102  0.00  0.00    +0.041 A 
ATOM     25  C   UNL     1       7.912  14.764   0.761  0.00  0.00    +0.021 A 
ATOM     26  C   UNL     1       6.958  13.988   0.137  0.00  0.00    +0.014 A 
ATOM     27 CL   UNL     1       9.399  15.550   2.882  0.00  0.00    -0.084 Cl
ENDBRANCH  19  21
ENDBRANCH  15  16
ENDBRANCH   1  15
TORSDOF 6
