REMARK  Name = ZINC13609297
REMARK  9 active torsions:
REMARK  status: ('A' for Active; 'I' for Inactive)
REMARK    1  A    between atoms: C_1  and  C_2
REMARK    2  A    between atoms: C_2  and  N_3
REMARK    3  A    between atoms: C_5  and  C_17
REMARK    4  A    between atoms: N_19  and  C_20
REMARK    5  A    between atoms: C_20  and  C_21
REMARK    6  A    between atoms: N_23  and  C_24
REMARK    7  A    between atoms: C_24  and  C_25
REMARK    8  A    between atoms: C_25  and  C_26
REMARK    9  A    between atoms: C_29  and  O_32
REMARK                            x       y       z     vdW  Elec       q    Type
REMARK                         _______ _______ _______ _____ _____    ______ ____
ROOT
ATOM      1  C   UNL     1       4.847  -2.970  -0.058  0.00  0.00    +0.250 C 
ATOM      2  O   UNL     1       5.934  -2.425  -0.066  0.00  0.00    -0.270 OA
ATOM      3  N   UNL     1       4.768  -4.316  -0.063  0.00  0.00    -0.303 N 
ATOM      4  H   UNL     1       3.901  -4.751  -0.056  0.00  0.00    +0.150 HD
ENDROOT
BRANCH   1   7
ATOM      5  N   UNL     1       1.240  -2.065  -0.019  0.00  0.00    -0.346 N 
ATOM      6  C   UNL     1       2.380  -2.768  -0.033  0.00  0.00    +0.103 A 
ATOM      7  C   UNL     1       3.618  -2.162  -0.042  0.00  0.00    +0.100 A 
ATOM      8  C   UNL     1       3.690  -0.692  -0.037  0.00  0.00    +0.202 A 
ATOM      9  O   UNL     1       4.761  -0.109  -0.046  0.00  0.00    -0.286 OA
ATOM     10  C   UNL     1       2.415   0.046  -0.021  0.00  0.00    +0.050 A 
ATOM     11  C   UNL     1       1.214  -0.685  -0.013  0.00  0.00    +0.056 A 
ATOM     12  C   UNL     1       0.002  -0.004   0.002  0.00  0.00    +0.076 A 
ATOM     13  C   UNL     1      -0.017   1.379   0.010  0.00  0.00    +0.168 A 
ATOM     14  C   UNL     1       1.181   2.103   0.002  0.00  0.00    +0.167 A 
ATOM     15  C   UNL     1       2.390   1.442  -0.014  0.00  0.00    +0.063 A 
ATOM     16  O   UNL     1       0.882   3.436   0.014  0.00  0.00    -0.453 OA
ATOM     17  C   UNL     1      -0.490   3.518   0.442  0.00  0.00    +0.466 C 
ATOM     18  O   UNL     1      -1.056   2.262   0.030  0.00  0.00    -0.453 OA
BRANCH   5  20
ATOM     19  C   UNL     1      -0.552  -2.928  -1.442  0.00  0.00    +0.027 C 
ATOM     20  C   UNL     1      -0.033  -2.791  -0.010  0.00  0.00    +0.118 C 
ENDBRANCH   5  20
ENDBRANCH   1   7
BRANCH   3  21
ATOM     21  C   UNL     1       5.992  -5.121  -0.078  0.00  0.00    +0.200 C 
BRANCH  21  22
ATOM     22  C   UNL     1       5.630  -6.584  -0.081  0.00  0.00    +0.230 C 
ATOM     23  O   UNL     1       4.465  -6.921  -0.071  0.00  0.00    -0.274 OA
ATOM     24  N   UNL     1       6.602  -7.518  -0.094  0.00  0.00    -0.314 N 
ATOM     25  H   UNL     1       7.533  -7.249  -0.102  0.00  0.00    +0.149 HD
BRANCH  24  26
ATOM     26  C   UNL     1       6.250  -8.941  -0.097  0.00  0.00    +0.109 C 
BRANCH  26  27
ATOM     27  C   UNL     1       7.528  -9.782  -0.113  0.00  0.00    +0.054 C 
BRANCH  27  28
ATOM     28  C   UNL     1       7.167 -11.245  -0.115  0.00  0.00    -0.046 A 
ATOM     29  C   UNL     1       7.018 -11.921   1.081  0.00  0.00    +0.007 A 
ATOM     30  C   UNL     1       6.681 -13.261   1.082  0.00  0.00    +0.045 A 
ATOM     31  C   UNL     1       6.503 -13.930  -0.120  0.00  0.00    +0.117 A 
ATOM     32  C   UNL     1       6.658 -13.251  -1.320  0.00  0.00    +0.045 A 
ATOM     33  C   UNL     1       6.989 -11.909  -1.315  0.00  0.00    +0.007 A 
BRANCH  31  34
ATOM     34  O   UNL     1       6.176 -15.249  -0.123  0.00  0.00    -0.507 OA
ATOM     35  H   UNL     1       6.939 -15.843  -0.133  0.00  0.00    +0.292 HD
ENDBRANCH  31  34
ENDBRANCH  27  28
ENDBRANCH  26  27
ENDBRANCH  24  26
ENDBRANCH  21  22
ENDBRANCH   3  21
TORSDOF 8
