REMARK  Name = ZINC63495914
REMARK  11 active torsions:
REMARK  status: ('A' for Active; 'I' for Inactive)
REMARK    1  A    between atoms: C_1  and  C_2
REMARK    2  A    between atoms: C_2  and  C_3
REMARK    3  A    between atoms: C_2  and  C_4
REMARK    4  A    between atoms: C_4  and  N_5
REMARK    5  A    between atoms: N_5  and  C_6
REMARK    6  A    between atoms: N_5  and  C_23
REMARK    7  A    between atoms: C_6  and  C_7
REMARK    8  A    between atoms: C_7  and  C_8
REMARK    9  A    between atoms: N_10  and  N_11
REMARK   10  A    between atoms: C_23  and  C_24
REMARK   11  A    between atoms: C_23  and  C_25
REMARK                            x       y       z     vdW  Elec       q    Type
REMARK                         _______ _______ _______ _____ _____    ______ ____
ROOT
ATOM      1  C   UNL     1       1.099   0.216   5.998  0.00  0.00    +0.228 C 
ATOM      2  O   UNL     1       2.159  -0.371   5.946  0.00  0.00    -0.274 OA
ATOM      3  N   UNL     1       0.667   0.723   7.170  0.00  0.00    -0.224 N 
ATOM      4  H   UNL     1      -0.181   1.192   7.212  0.00  0.00    +0.174 HD
ENDROOT
BRANCH   3   5
ATOM      5  N   UNL     1       1.441   0.571   8.328  0.00  0.00    -0.137 N 
ATOM      6  C   UNL     1       1.161  -0.300   9.319  0.00  0.00    +0.263 C 
ATOM      7  O   UNL     1       0.226  -1.071   9.376  0.00  0.00    -0.271 OA
ATOM      8  C   UNL     1       2.256  -0.113  10.343  0.00  0.00    +0.114 C 
ATOM      9  C   UNL     1       3.045  -1.406  10.521  0.00  0.00    +0.035 C 
ATOM     10  C   UNL     1       4.167  -1.187  11.538  0.00  0.00    +0.003 C 
ATOM     11  C   UNL     1       3.564  -0.749  12.875  0.00  0.00    +0.000 C 
ATOM     12  C   UNL     1       2.797   0.561  12.685  0.00  0.00    +0.003 C 
ATOM     13  C   UNL     1       1.669   0.348  11.672  0.00  0.00    +0.035 C 
ATOM     14  N   UNL     1       3.109   0.934   9.766  0.00  0.00    -0.284 N 
ATOM     15  C   UNL     1       2.555   1.268   8.584  0.00  0.00    +0.326 C 
ATOM     16  O   UNL     1       3.013   2.110   7.837  0.00  0.00    -0.251 OA
ATOM     17  H   UNL     1       3.913   1.309  10.157  0.00  0.00    +0.151 HD
ENDBRANCH   3   5
BRANCH   1  18
ATOM     18  C   UNL     1       0.266   0.380   4.753  0.00  0.00    +0.079 C 
BRANCH  18  19
ATOM     19  C   UNL     1       0.980  -0.281   3.572  0.00  0.00    -0.069 C 
BRANCH  19  20
ATOM     20  N   UNL     1       0.203  -0.060   2.345  0.00  0.00    +0.382 N 
ATOM     21  H   UNL     1      -0.747  -0.371   2.487  0.00  0.00    -0.081 HD
BRANCH  20  22
ATOM     22  C   UNL     1       0.205   1.372   2.016  0.00  0.00    -0.075 C 
ATOM     23  C   UNL     1       1.626   1.810   1.655  0.00  0.00    -0.014 C 
ATOM     24  C   UNL     1      -0.724   1.623   0.826  0.00  0.00    -0.014 C 
ENDBRANCH  20  22
BRANCH  20  25
ATOM     25  C   UNL     1       0.806  -0.818   1.240  0.00  0.00    -0.076 C 
BRANCH  25  27
ATOM     26  C   UNL     1      -0.818  -2.696   1.517  0.00  0.00    +0.005 C 
ATOM     27  C   UNL     1       0.664  -2.316   1.512  0.00  0.00    -0.034 C 
ATOM     28  C   UNL     1       1.389  -3.104   0.420  0.00  0.00    +0.005 C 
ENDBRANCH  25  27
ENDBRANCH  20  25
ENDBRANCH  19  20
ENDBRANCH  18  19
ENDBRANCH   1  18
TORSDOF 7
