REMARK  Name = ZINC01458159
REMARK  4 active torsions:
REMARK  status: ('A' for Active; 'I' for Inactive)
REMARK    1  A    between atoms: C_3  and  N_22
REMARK    2  A    between atoms: C_5  and  C_6
REMARK    3  A    between atoms: N_8  and  C_10
REMARK    4  A    between atoms: C_15  and  C_18
REMARK                            x       y       z     vdW  Elec       q    Type
REMARK                         _______ _______ _______ _____ _____    ______ ____
ROOT
ATOM      1  C   UNL     1      -2.398  -0.138  -1.718  0.00  0.00    +0.280 C 
ATOM      2  O   UNL     1      -1.501  -0.821  -2.176  0.00  0.00    -0.267 OA
ATOM      3  N   UNL     1      -2.127   1.086  -1.221  0.00  0.00    -0.306 N 
ATOM      4  H   UNL     1      -2.842   1.630  -0.856  0.00  0.00    +0.149 HD
ENDROOT
BRANCH   3   5
ATOM      5  C   UNL     1      -0.753   1.593  -1.232  0.00  0.00    +0.074 C 
ATOM      6  C   UNL     1      -0.013   1.086   0.008  0.00  0.00    +0.022 C 
ATOM      7  C   UNL     1      -0.729   1.579   1.267  0.00  0.00    +0.002 C 
ATOM      8  C   UNL     1      -0.750   3.109   1.275  0.00  0.00    +0.012 C 
ATOM      9  C   UNL     1      -1.490   3.616   0.036  0.00  0.00    +0.095 C 
ATOM     10  C   UNL     1      -0.773   3.123  -1.223  0.00  0.00    +0.034 C 
BRANCH   9  11
ATOM     11  C   UNL     1      -1.510   5.146   0.044  0.00  0.00    +0.393 C 
ATOM     12  F   UNL     1      -2.187   5.609  -1.089  0.00  0.00    -0.170 F 
ATOM     13  F   UNL     1      -2.165   5.597   1.195  0.00  0.00    -0.170 F 
ATOM     14  F   UNL     1      -0.198   5.630   0.034  0.00  0.00    -0.170 F 
ENDBRANCH   9  11
ENDBRANCH   3   5
BRANCH   1  19
ATOM     15  C   UNL     1      -4.184  -1.860  -2.178  0.00  0.00    +0.057 A 
ATOM     16  C   UNL     1      -5.571  -1.926  -1.968  0.00  0.00    +0.076 A 
ATOM     17  C   UNL     1      -5.941  -0.763  -1.387  0.00  0.00    +0.280 A 
ATOM     18  O   UNL     1      -4.855   0.004  -1.228  0.00  0.00    -0.429 OA
ATOM     19  C   UNL     1      -3.774  -0.645  -1.708  0.00  0.00    +0.192 A 
BRANCH  17  20
ATOM     20  N   UNL     1      -7.319  -0.400  -0.988  0.00  0.00    +0.093 N 
ATOM     21  O   UNL     1      -8.234  -1.181  -1.177  0.00  0.00    -0.123 OA
ATOM     22  O   UNL     1      -7.538   0.681  -0.469  0.00  0.00    -0.123 OA
ENDBRANCH  17  20
ENDBRANCH   1  19
TORSDOF 4
