REMARK  Name = ZINC13460192
REMARK  6 active torsions:
REMARK  status: ('A' for Active; 'I' for Inactive)
REMARK    1  A    between atoms: C_1  and  C_2
REMARK    2  A    between atoms: C_7  and  S_15
REMARK    3  A    between atoms: C_12  and  C_14
REMARK    4  A    between atoms: S_15  and  N_18
REMARK    5  A    between atoms: N_18  and  C_19
REMARK    6  A    between atoms: C_24  and  C_25
REMARK                            x       y       z     vdW  Elec       q    Type
REMARK                         _______ _______ _______ _____ _____    ______ ____
ROOT
ATOM      1  S   UNL     1      -2.811   3.957   0.208  0.00  0.00    +0.072 S 
ATOM      2  O   UNL     1      -3.786   3.045   0.694  0.00  0.00    -0.150 OA
ATOM      3  O   UNL     1      -2.511   5.177   0.872  0.00  0.00    -0.150 OA
ENDROOT
BRANCH   1   9
ATOM      4  C   UNL     1       4.211   2.277  -1.359  0.00  0.00    +0.029 C 
ATOM      5  C   UNL     1       3.367   2.225  -0.085  0.00  0.00    +0.083 C 
ATOM      6  C   UNL     1       2.532   3.509   0.055  0.00  0.00    +0.059 C 
ATOM      7  C   UNL     1       1.097   3.033   0.040  0.00  0.00    -0.022 A 
ATOM      8  C   UNL     1      -0.091   3.734   0.131  0.00  0.00    +0.034 A 
ATOM      9  C   UNL     1      -1.298   3.062   0.091  0.00  0.00    +0.109 A 
ATOM     10  C   UNL     1      -1.315   1.685  -0.043  0.00  0.00    +0.030 A 
ATOM     11  C   UNL     1      -0.133   0.982  -0.129  0.00  0.00    +0.026 A 
ATOM     12  C   UNL     1       1.090   1.654  -0.091  0.00  0.00    +0.040 A 
ATOM     13  N   UNL     1       2.388   1.137  -0.167  0.00  0.00    -0.268 N 
ATOM     14  C   UNL     1       2.693  -0.169  -0.297  0.00  0.00    +0.217 C 
ATOM     15  O   UNL     1       1.810  -0.985  -0.457  0.00  0.00    -0.276 OA
ATOM     16  C   UNL     1       4.131  -0.615  -0.245  0.00  0.00    +0.109 C 
ENDBRANCH   1   9
BRANCH   1  17
ATOM     17  N   UNL     1      -3.264   4.356  -1.334  0.00  0.00    -0.215 N 
ATOM     18  H   UNL     1      -3.362   5.288  -1.585  0.00  0.00    +0.174 HD
BRANCH  17  19
ATOM     19  C   UNL     1      -3.502   3.357  -2.268  0.00  0.00    +0.064 A 
ATOM     20  C   UNL     1      -4.085   2.159  -1.875  0.00  0.00    +0.045 A 
ATOM     21  C   UNL     1      -4.321   1.167  -2.807  0.00  0.00    +0.043 A 
ATOM     22  C   UNL     1      -3.980   1.357  -4.138  0.00  0.00    +0.021 A 
ATOM     23  C   UNL     1      -3.402   2.538  -4.546  0.00  0.00    +0.018 A 
ATOM     24  C   UNL     1      -3.161   3.555  -3.616  0.00  0.00    +0.085 A 
ATOM     25 CL   UNL     1      -5.050  -0.328  -2.308  0.00  0.00    -0.083 Cl
BRANCH  24  26
ATOM     26  C   UNL     1      -2.549   4.822  -4.047  0.00  0.00    +0.388 C 
ATOM     27  O   UNL     1      -2.337   5.702  -3.235  0.00  0.00    -0.241 OA
ATOM     28  O   UNL     1      -2.223   5.008  -5.341  0.00  0.00    -0.241 OA
ENDBRANCH  24  26
ENDBRANCH  17  19
ENDBRANCH   1  17
TORSDOF 4
