REMARK  Name = ZINC16647729
REMARK  8 active torsions:
REMARK  status: ('A' for Active; 'I' for Inactive)
REMARK    1  A    between atoms: C_1  and  C_2
REMARK    2  A    between atoms: C_5  and  N_8
REMARK    3  A    between atoms: N_19  and  C_28
REMARK    4  A    between atoms: N_21  and  C_22
REMARK    5  A    between atoms: C_28  and  C_29
REMARK    6  A    between atoms: N_31  and  C_32
REMARK    7  A    between atoms: N_31  and  C_33
REMARK    8  A    between atoms: C_33  and  C_34
REMARK                            x       y       z     vdW  Elec       q    Type
REMARK                         _______ _______ _______ _____ _____    ______ ____
ROOT
ATOM      1  N   UNL     1       0.152   0.618  -2.080  0.00  0.00    -0.269 N 
ATOM      2  C   UNL     1       1.038   1.351  -1.377  0.00  0.00    +0.306 C 
ATOM      3  O   UNL     1       0.848   2.541  -1.213  0.00  0.00    -0.252 OA
ATOM      4  N   UNL     1       2.134   0.765  -0.854  0.00  0.00    -0.285 N 
ATOM      5  C   UNL     1       2.430  -0.647  -1.130  0.00  0.00    +0.112 C 
ATOM      6  C   UNL     1       3.857  -0.744  -1.695  0.00  0.00    +0.054 C 
ATOM      7  C   UNL     1       4.828  -0.063  -0.735  0.00  0.00    +0.115 C 
ATOM      8  C   UNL     1       4.469   1.410  -0.562  0.00  0.00    +0.054 C 
ATOM      9  C   UNL     1       3.050   1.525   0.007  0.00  0.00    +0.112 C 
ATOM     10  C   UNL     1       4.828  -0.765   0.601  0.00  0.00    +0.241 C 
ATOM     11  O   UNL     1       3.845  -1.130   1.211  0.00  0.00    -0.273 OA
ATOM     12  N   UNL     1       6.108  -0.918   1.001  0.00  0.00    -0.275 N 
ATOM     13  C   UNL     1       7.009  -0.334  -0.000  0.00  0.00    +0.217 C 
ATOM     14  N   UNL     1       6.211  -0.190  -1.240  0.00  0.00    -0.300 N 
ATOM     15  H   UNL     1       0.332  -0.318  -2.260  0.00  0.00    +0.156 HD
ENDROOT
BRANCH   1  20
ATOM     16  C   UNL     1      -4.614   3.014  -4.011  0.00  0.00    +0.044 C 
ATOM     17  C   UNL     1      -3.348   2.378  -3.498  0.00  0.00    -0.050 A 
ATOM     18  C   UNL     1      -3.292   1.009  -3.305  0.00  0.00    +0.005 A 
ATOM     19  C   UNL     1      -2.134   0.423  -2.835  0.00  0.00    +0.023 A 
ATOM     20  C   UNL     1      -1.023   1.209  -2.557  0.00  0.00    +0.035 A 
ATOM     21  C   UNL     1      -1.083   2.583  -2.747  0.00  0.00    +0.023 A 
ATOM     22  C   UNL     1      -2.243   3.163  -3.223  0.00  0.00    +0.005 A 
ENDBRANCH   1  20
BRANCH  14  23
ATOM     23  C   UNL     1       6.592   0.951  -1.951  0.00  0.00    +0.032 A 
ATOM     24  C   UNL     1       5.731   1.505  -2.889  0.00  0.00    +0.023 A 
ATOM     25  C   UNL     1       6.108   2.636  -3.587  0.00  0.00    +0.002 A 
ATOM     26  C   UNL     1       7.345   3.210  -3.359  0.00  0.00    +0.000 A 
ATOM     27  C   UNL     1       8.207   2.658  -2.429  0.00  0.00    +0.002 A 
ATOM     28  C   UNL     1       7.834   1.530  -1.725  0.00  0.00    +0.023 A 
ENDBRANCH  14  23
BRANCH  12  29
ATOM     29  C   UNL     1       6.532  -1.568   2.243  0.00  0.00    +0.205 C 
BRANCH  29  30
ATOM     30  C   UNL     1       6.617  -0.542   3.344  0.00  0.00    +0.233 C 
ATOM     31  O   UNL     1       6.349   0.618   3.113  0.00  0.00    -0.274 OA
ATOM     32  N   UNL     1       6.991  -0.913   4.584  0.00  0.00    -0.299 N 
ATOM     33  C   UNL     1       7.315  -2.314   4.863  0.00  0.00    +0.132 C 
BRANCH  32  34
ATOM     34  C   UNL     1       7.073   0.084   5.654  0.00  0.00    +0.142 C 
BRANCH  34  35
ATOM     35  C   UNL     1       5.742   0.179   6.356  0.00  0.00    -0.030 A 
ATOM     36  C   UNL     1       4.790   1.078   5.913  0.00  0.00    +0.005 A 
ATOM     37  C   UNL     1       3.568   1.161   6.554  0.00  0.00    +0.000 A 
ATOM     38  C   UNL     1       3.302   0.353   7.644  0.00  0.00    +0.000 A 
ATOM     39  C   UNL     1       4.257  -0.542   8.089  0.00  0.00    +0.000 A 
ATOM     40  C   UNL     1       5.477  -0.629   7.445  0.00  0.00    +0.005 A 
ENDBRANCH  34  35
ENDBRANCH  32  34
ENDBRANCH  29  30
ENDBRANCH  12  29
TORSDOF 6
