REMARK  Name = ZINC04557789
REMARK  14 active torsions:
REMARK  status: ('A' for Active; 'I' for Inactive)
REMARK    1  A    between atoms: C_1  and  C_2
REMARK    2  A    between atoms: C_2  and  C_3
REMARK    3  A    between atoms: C_2  and  C_4
REMARK    4  A    between atoms: C_2  and  N_12
REMARK    5  A    between atoms: C_4  and  C_5
REMARK    6  A    between atoms: C_8  and  O_11
REMARK    7  A    between atoms: C_13  and  C_15
REMARK    8  A    between atoms: C_15  and  C_16
REMARK    9  A    between atoms: N_18  and  N_19
REMARK   10  A    between atoms: C_20  and  C_21
REMARK   11  A    between atoms: C_24  and  O_29
REMARK   12  A    between atoms: C_25  and  O_27
REMARK   13  A    between atoms: O_27  and  C_28
REMARK   14  A    between atoms: O_29  and  C_30
REMARK                            x       y       z     vdW  Elec       q    Type
REMARK                         _______ _______ _______ _____ _____    ______ ____
ROOT
ATOM      1  C   UNL     1       1.248  -6.330  -2.652  0.00  0.00    +0.193 C 
ENDROOT
BRANCH   1   3
ATOM      2  N   UNL     1       1.234  -4.155  -1.474  0.00  0.00    -0.310 N 
ATOM      3  C   UNL     1       1.231  -4.823  -2.644  0.00  0.00    +0.222 C 
ATOM      4  O   UNL     1       1.214  -4.211  -3.691  0.00  0.00    -0.275 OA
ATOM      5  H   UNL     1       1.248  -4.644  -0.636  0.00  0.00    +0.149 HD
BRANCH   2   7
ATOM      6  C   UNL     1      -0.045  -2.191  -2.172  0.00  0.00    +0.031 C 
ATOM      7  C   UNL     1       1.217  -2.690  -1.466  0.00  0.00    +0.033 C 
ATOM      8  C   UNL     1       2.454  -2.162  -2.197  0.00  0.00    +0.031 C 
BRANCH   7   9
ATOM      9  C   UNL     1       1.226  -2.187  -0.021  0.00  0.00    +0.060 C 
BRANCH   9  10
ATOM     10  C   UNL     1       1.208  -0.680  -0.013  0.00  0.00    -0.045 A 
ATOM     11  C   UNL     1       0.002  -0.004   0.002  0.00  0.00    +0.007 A 
ATOM     12  C   UNL     1      -0.017   1.377   0.010  0.00  0.00    +0.045 A 
ATOM     13  C   UNL     1       1.176   2.086   0.002  0.00  0.00    +0.117 A 
ATOM     14  C   UNL     1       2.385   1.405  -0.013  0.00  0.00    +0.045 A 
ATOM     15  C   UNL     1       2.398   0.024  -0.021  0.00  0.00    +0.007 A 
BRANCH  13  16
ATOM     16  O   UNL     1       1.160   3.445   0.009  0.00  0.00    -0.507 OA
ATOM     17  H   UNL     1       1.164   3.834   0.894  0.00  0.00    +0.292 HD
ENDBRANCH  13  16
ENDBRANCH   9  10
ENDBRANCH   7   9
ENDBRANCH   2   7
ENDBRANCH   1   3
BRANCH   1  18
ATOM     18  C   UNL     1       1.240  -6.825  -4.075  0.00  0.00    +0.241 C 
ATOM     19  O   UNL     1       1.222  -6.032  -4.993  0.00  0.00    -0.274 OA
ATOM     20  N   UNL     1       1.253  -8.148  -4.328  0.00  0.00    -0.207 N 
ATOM     21  H   UNL     1       1.268  -8.782  -3.594  0.00  0.00    +0.177 HD
BRANCH  20  22
ATOM     22  N   UNL     1       1.246  -8.609  -5.651  0.00  0.00    -0.188 NA
ATOM     23  C   UNL     1       1.258  -9.883  -5.895  0.00  0.00    +0.138 C 
BRANCH  23  24
ATOM     24  C   UNL     1       1.251 -10.368  -7.287  0.00  0.00    -0.002 A 
ATOM     25  C   UNL     1       1.224  -9.456  -8.346  0.00  0.00    +0.013 A 
ATOM     26  C   UNL     1       1.223  -9.911  -9.648  0.00  0.00    +0.050 A 
ATOM     27  C   UNL     1       1.236 -11.274  -9.910  0.00  0.00    +0.162 A 
ATOM     28  C   UNL     1       1.257 -12.188  -8.859  0.00  0.00    +0.162 A 
ATOM     29  C   UNL     1       1.264 -11.740  -7.552  0.00  0.00    +0.059 A 
BRANCH  28  30
ATOM     30  O   UNL     1       1.270 -13.523  -9.120  0.00  0.00    -0.491 OA
ATOM     31  C   UNL     1       1.291 -14.404  -7.995  0.00  0.00    +0.277 C 
ENDBRANCH  28  30
BRANCH  27  32
ATOM     32  O   UNL     1       1.230 -11.717 -11.195  0.00  0.00    -0.491 OA
ATOM     33  C   UNL     1       1.209 -10.725 -12.223  0.00  0.00    +0.277 C 
ENDBRANCH  27  32
ENDBRANCH  23  24
ENDBRANCH  20  22
ENDBRANCH   1  18
TORSDOF 10
