REMARK  Name = ZINC04725115
REMARK  7 active torsions:
REMARK  status: ('A' for Active; 'I' for Inactive)
REMARK    1  A    between atoms: C_1  and  C_2
REMARK    2  A    between atoms: N_6  and  N_7
REMARK    3  A    between atoms: N_8  and  N_9
REMARK    4  A    between atoms: C_10  and  C_11
REMARK    5  A    between atoms: C_16  and  O_17
REMARK    6  A    between atoms: O_17  and  C_18
REMARK    7  A    between atoms: C_18  and  C_19
REMARK                            x       y       z     vdW  Elec       q    Type
REMARK                         _______ _______ _______ _____ _____    ______ ____
ROOT
ATOM      1  C   UNL     1       2.946   2.595  -5.769  0.00  0.00    +0.039 A 
ATOM      2  C   UNL     1       4.257   2.487  -6.240  0.00  0.00    +0.033 A 
ATOM      3  C   UNL     1       4.540   2.777  -7.559  0.00  0.00    +0.043 A 
ATOM      4  C   UNL     1       3.529   3.175  -8.419  0.00  0.00    +0.043 A 
ATOM      5  C   UNL     1       2.228   3.285  -7.964  0.00  0.00    +0.085 A 
ATOM      6  C   UNL     1       1.926   2.993  -6.644  0.00  0.00    +0.148 A 
ATOM      7 CL   UNL     1       0.969   3.785  -9.051  0.00  0.00    -0.080 Cl
ATOM      8 CL   UNL     1       6.169   2.643  -8.144  0.00  0.00    -0.083 Cl
ENDROOT
BRANCH   1  10
ATOM      9  N   UNL     1       3.561   1.810  -3.583  0.00  0.00    -0.187 NA
ATOM     10  C   UNL     1       2.637   2.287  -4.362  0.00  0.00    +0.142 C 
BRANCH   9  17
ATOM     11  C   UNL     1       5.713  -0.092   1.740  0.00  0.00    +0.090 C 
ATOM     12  C   UNL     1       5.346   0.345   0.345  0.00  0.00    +0.149 A 
ATOM     13  N   UNL     1       6.158   0.460  -0.668  0.00  0.00    -0.131 NA
ATOM     14  N   UNL     1       5.514   0.855  -1.708  0.00  0.00    -0.110 NA
ATOM     15  C   UNL     1       4.244   1.009  -1.413  0.00  0.00    +0.254 A 
ATOM     16  N   UNL     1       4.099   0.694  -0.092  0.00  0.00    -0.220 N 
ATOM     17  N   UNL     1       3.242   1.417  -2.277  0.00  0.00    -0.204 N 
ATOM     18  H   UNL     1       2.320   1.431  -1.978  0.00  0.00    +0.177 HD
BRANCH  16  19
ATOM     19  N   UNL     1       2.946   0.718   0.639  0.00  0.00    -0.294 N 
ATOM     20  H   UNL     1       2.808   1.621   1.069  0.00  0.00    +0.163 HD
ATOM     21  H   UNL     1       2.152   0.464   0.071  0.00  0.00    +0.163 HD
ENDBRANCH  16  19
ENDBRANCH   9  17
ENDBRANCH   1  10
BRANCH   6  22
ATOM     22  O   UNL     1       0.647   3.096  -6.197  0.00  0.00    -0.485 OA
BRANCH  22  23
ATOM     23  C   UNL     1       0.231   4.372  -5.707  0.00  0.00    +0.264 C 
BRANCH  23  24
ATOM     24  C   UNL     1      -1.166   4.267  -5.153  0.00  0.00    -0.010 A 
ATOM     25  C   UNL     1      -2.255   4.395  -5.995  0.00  0.00    +0.007 A 
ATOM     26  C   UNL     1      -3.537   4.293  -5.487  0.00  0.00    +0.000 A 
ATOM     27  C   UNL     1      -3.729   4.074  -4.136  0.00  0.00    +0.000 A 
ATOM     28  C   UNL     1      -2.641   3.951  -3.293  0.00  0.00    +0.000 A 
ATOM     29  C   UNL     1      -1.359   4.047  -3.802  0.00  0.00    +0.007 A 
ENDBRANCH  23  24
ENDBRANCH  22  23
ENDBRANCH   6  22
TORSDOF 6
