REMARK  Name = ZINC06444609
REMARK  6 active torsions:
REMARK  status: ('A' for Active; 'I' for Inactive)
REMARK    1  A    between atoms: C_1  and  C_2
REMARK    2  A    between atoms: C_6  and  S_8
REMARK    3  A    between atoms: S_8  and  C_9
REMARK    4  A    between atoms: C_9  and  C_10
REMARK    5  A    between atoms: C_10  and  N_11
REMARK    6  A    between atoms: N_19  and  C_33
REMARK                            x       y       z     vdW  Elec       q    Type
REMARK                         _______ _______ _______ _____ _____    ______ ____
ROOT
ATOM      1  N   UNL     1      -1.381   3.828   8.444  0.00  0.00    -0.305 N 
ATOM      2  C   UNL     1      -1.784   5.138   8.664  0.00  0.00    +0.153 A 
ATOM      3  C   UNL     1      -1.281   6.398   8.294  0.00  0.00    +0.280 A 
ATOM      4  O   UNL     1      -0.257   6.483   7.639  0.00  0.00    -0.265 OA
ATOM      5  N   UNL     1      -1.940   7.511   8.678  0.00  0.00    -0.273 N 
ATOM      6  H   UNL     1      -1.582   8.408   8.420  0.00  0.00    +0.173 HD
ATOM      7  C   UNL     1      -3.070   7.431   9.400  0.00  0.00    +0.331 A 
ATOM      8  O   UNL     1      -3.638   8.455   9.728  0.00  0.00    -0.246 OA
ATOM      9  N   UNL     1      -3.590   6.245   9.771  0.00  0.00    -0.280 N 
ATOM     10  C   UNL     1      -2.957   5.067   9.407  0.00  0.00    +0.170 A 
ATOM     11  N   UNL     1      -3.222   3.777   9.619  0.00  0.00    -0.196 NA
ATOM     12  C   UNL     1      -2.296   3.029   9.054  0.00  0.00    +0.201 A 
ATOM     13  N   UNL     1      -2.261   1.654   9.078  0.00  0.00    -0.296 N 
ATOM     14  C   UNL     1      -3.472   1.084   8.465  0.00  0.00    +0.113 C 
ATOM     15  C   UNL     1      -3.223  -0.398   8.186  0.00  0.00    +0.054 C 
ATOM     16  C   UNL     1      -2.692  -1.073   9.425  0.00  0.00    -0.041 A 
ATOM     17  C   UNL     1      -2.735  -2.457   9.495  0.00  0.00    +0.004 A 
ATOM     18  C   UNL     1      -2.251  -3.115  10.608  0.00  0.00    +0.000 A 
ATOM     19  C   UNL     1      -1.720  -2.389  11.659  0.00  0.00    +0.000 A 
ATOM     20  C   UNL     1      -1.679  -1.011  11.591  0.00  0.00    +0.005 A 
ATOM     21  C   UNL     1      -2.166  -0.349  10.474  0.00  0.00    -0.027 A 
ATOM     22  C   UNL     1      -2.103   1.156  10.448  0.00  0.00    +0.143 C 
ATOM     23  C   UNL     1      -4.824   6.201  10.558  0.00  0.00    +0.155 C 
ENDROOT
BRANCH   1  24
ATOM     24  C   UNL     1      -0.195   3.390   7.704  0.00  0.00    +0.136 C 
BRANCH  24  25
ATOM     25  C   UNL     1      -0.546   3.240   6.222  0.00  0.00    +0.099 C 
BRANCH  25  26
ATOM     26  S   UNL     1       0.920   2.700   5.307  0.00  0.00    -0.084 S 
BRANCH  26  32
ATOM     27  C   UNL     1       1.455   1.738   0.309  0.00  0.00    +0.066 C 
ATOM     28  C   UNL     1       0.559   2.162   1.444  0.00  0.00    +0.043 A 
ATOM     29  C   UNL     1      -0.769   2.482   1.207  0.00  0.00    +0.043 A 
ATOM     30  C   UNL     1      -1.561   2.862   2.279  0.00  0.00    +0.115 A 
ATOM     31  N   UNL     1      -1.026   2.919   3.488  0.00  0.00    -0.230 NA
ATOM     32  C   UNL     1       0.249   2.611   3.680  0.00  0.00    +0.188 A 
ATOM     33  N   UNL     1       1.031   2.239   2.677  0.00  0.00    -0.227 NA
ENDBRANCH  26  32
ENDBRANCH  25  26
ENDBRANCH  24  25
ENDBRANCH   1  24
TORSDOF 4
