REMARK  Name = ZINC13231595
REMARK  9 active torsions:
REMARK  status: ('A' for Active; 'I' for Inactive)
REMARK    1  A    between atoms: C_1  and  C_2
REMARK    2  A    between atoms: C_2  and  C_3
REMARK    3  A    between atoms: C_2  and  N_4
REMARK    4  A    between atoms: C_5  and  C_7
REMARK    5  A    between atoms: C_7  and  N_8
REMARK    6  A    between atoms: C_9  and  C_11
REMARK    7  A    between atoms: C_11  and  O_12
REMARK    8  A    between atoms: O_12  and  C_13
REMARK    9  A    between atoms: C_16  and  C_20
REMARK                            x       y       z     vdW  Elec       q    Type
REMARK                         _______ _______ _______ _____ _____    ______ ____
ROOT
ATOM      1  N   UNL     1       3.896  -2.202  -0.047  0.00  0.00    -0.304 N 
ATOM      2  C   UNL     1       3.705  -0.868  -0.038  0.00  0.00    +0.251 C 
ATOM      3  O   UNL     1       4.658  -0.118  -0.043  0.00  0.00    -0.272 OA
ATOM      4  H   UNL     1       3.134  -2.801  -0.043  0.00  0.00    +0.149 HD
ENDROOT
BRANCH   1   5
ATOM      5  C   UNL     1       5.256  -2.747  -0.063  0.00  0.00    +0.200 C 
BRANCH   5   7
ATOM      6  N   UNL     1       6.332  -4.974  -0.085  0.00  0.00    -0.312 N 
ATOM      7  C   UNL     1       5.194  -4.252  -0.070  0.00  0.00    +0.230 C 
ATOM      8  O   UNL     1       4.119  -4.815  -0.063  0.00  0.00    -0.274 OA
ATOM      9  H   UNL     1       7.191  -4.524  -0.091  0.00  0.00    +0.149 HD
BRANCH   6  11
ATOM     10  C   UNL     1       7.551  -6.998  -0.717  0.00  0.00    +0.027 C 
ATOM     11  C   UNL     1       6.272  -6.437  -0.092  0.00  0.00    +0.067 C 
ATOM     12  C   UNL     1       6.139  -6.949   1.343  0.00  0.00    +0.027 C 
ENDBRANCH   6  11
ENDBRANCH   5   7
ENDBRANCH   1   5
BRANCH   2  13
ATOM     13  C   UNL     1       2.306  -0.307  -0.022  0.00  0.00    +0.324 C 
BRANCH  13  14
ATOM     14  O   UNL     1       2.365   1.121  -0.015  0.00  0.00    -0.482 OA
BRANCH  14  15
ATOM     15  C   UNL     1       1.182   1.786   0.000  0.00  0.00    +0.135 A 
ATOM     16  C   UNL     1      -0.013   1.076   0.008  0.00  0.00    +0.047 A 
ATOM     17  C   UNL     1      -1.215   1.747   0.017  0.00  0.00    +0.019 A 
ATOM     18  C   UNL     1      -1.233   3.145   0.030  0.00  0.00    +0.064 A 
ATOM     19  C   UNL     1      -0.030   3.856   0.023  0.00  0.00    +0.034 A 
ATOM     20  C   UNL     1       1.169   3.177   0.007  0.00  0.00    +0.060 A 
ATOM     21 BR   UNL     1       2.798   4.137  -0.003  0.00  0.00    -0.046 Br
BRANCH  18  22
ATOM     22  C   UNL     1      -2.518   3.867   0.047  0.00  0.00    +0.387 C 
ATOM     23  O   UNL     1      -2.533   5.082   0.054  0.00  0.00    -0.241 OA
ATOM     24  O   UNL     1      -3.678   3.180   0.054  0.00  0.00    -0.241 OA
ENDBRANCH  18  22
ENDBRANCH  14  15
ENDBRANCH  13  14
ENDBRANCH   2  13
TORSDOF 7
