REMARK  Name = ZINC39836234
REMARK  10 active torsions:
REMARK  status: ('A' for Active; 'I' for Inactive)
REMARK    1  A    between atoms: C_1  and  C_2
REMARK    2  A    between atoms: C_9  and  N_22
REMARK    3  A    between atoms: C_10  and  C_11
REMARK    4  A    between atoms: N_13  and  C_14
REMARK    5  A    between atoms: C_23  and  C_25
REMARK    6  A    between atoms: C_26  and  C_27
REMARK    7  A    between atoms: C_30  and  C_33
REMARK    8  A    between atoms: C_33  and  C_34
REMARK    9  A    between atoms: C_33  and  C_35
REMARK   10  A    between atoms: C_33  and  C_36
REMARK                            x       y       z     vdW  Elec       q    Type
REMARK                         _______ _______ _______ _____ _____    ______ ____
ROOT
ATOM      1  C   UNL     1      -0.019   1.526   0.010  0.00  0.00    +0.008 C 
ATOM      2  C   UNL     1       0.002  -0.004   0.002  0.00  0.00    -0.009 C 
ATOM      3  C   UNL     1       0.724  -0.500  -1.254  0.00  0.00    +0.008 C 
ATOM      4  C   UNL     1       0.537  -2.012  -1.399  0.00  0.00    +0.037 C 
ATOM      5  C   UNL     1       0.935  -2.680  -0.091  0.00  0.00    -0.023 A 
ATOM      6  C   UNL     1       1.019  -1.977   1.059  0.00  0.00    -0.004 A 
ATOM      7  S   UNL     1       1.507  -3.164   2.276  0.00  0.00    -0.077 S 
ATOM      8  C   UNL     1       1.599  -4.539   1.315  0.00  0.00    +0.085 A 
ATOM      9  C   UNL     1       1.254  -4.090   0.050  0.00  0.00    +0.069 A 
ATOM     10  C   UNL     1       0.750  -0.515   1.242  0.00  0.00    +0.046 C 
ENDROOT
BRANCH   9  11
ATOM     11  C   UNL     1       1.212  -5.001  -1.098  0.00  0.00    +0.247 C 
ATOM     12  O   UNL     1       2.207  -5.171  -1.777  0.00  0.00    -0.270 OA
ATOM     13  N   UNL     1       0.070  -5.651  -1.402  0.00  0.00    -0.307 N 
ATOM     14  H   UNL     1      -0.723  -5.516  -0.860  0.00  0.00    +0.149 HD
BRANCH  13  15
ATOM     15  C   UNL     1       0.028  -6.561  -2.549  0.00  0.00    +0.096 C 
ATOM     16  C   UNL     1       0.520  -7.952  -2.115  0.00  0.00    +0.046 C 
ATOM     17  C   UNL     1       0.173  -8.963  -3.245  0.00  0.00    +0.168 C 
ATOM     18  S   UNL     1      -1.510  -8.378  -3.716  0.00  0.00    -0.029 S 
ATOM     19  O   UNL     1      -2.476  -9.101  -2.966  0.00  0.00    -0.174 OA
ATOM     20  O   UNL     1      -1.607  -8.342  -5.133  0.00  0.00    -0.174 OA
ATOM     21  C   UNL     1      -1.424  -6.657  -3.076  0.00  0.00    +0.188 C 
ENDBRANCH  13  15
ENDBRANCH   9  11
BRANCH   8  22
ATOM     22  N   UNL     1       1.940  -5.825   1.700  0.00  0.00    -0.276 N 
ATOM     23  C   UNL     1       2.249  -6.084   2.985  0.00  0.00    +0.241 C 
ATOM     24  O   UNL     1       2.229  -5.189   3.809  0.00  0.00    -0.270 OA
ATOM     25  H   UNL     1       1.956  -6.539   1.043  0.00  0.00    +0.156 HD
BRANCH  23  26
ATOM     26  C   UNL     1       2.610  -7.443   3.391  0.00  0.00    +0.068 C 
ATOM     27  C   UNL     1       2.920  -7.703   4.678  0.00  0.00    +0.013 C 
BRANCH  27  28
ATOM     28  C   UNL     1       3.283  -9.070   5.086  0.00  0.00    -0.025 A 
ATOM     29  C   UNL     1       3.313 -10.101   4.142  0.00  0.00    +0.008 A 
ATOM     30  C   UNL     1       3.654 -11.379   4.532  0.00  0.00    +0.005 A 
ATOM     31  C   UNL     1       3.965 -11.642   5.854  0.00  0.00    -0.042 A 
ATOM     32  C   UNL     1       3.937 -10.627   6.795  0.00  0.00    +0.005 A 
ATOM     33  C   UNL     1       3.604  -9.343   6.419  0.00  0.00    +0.008 A 
BRANCH  31  34
ATOM     34  C   UNL     1       4.337 -13.042   6.272  0.00  0.00    -0.013 C 
ATOM     35  C   UNL     1       5.579 -13.492   5.500  0.00  0.00    +0.015 C 
ATOM     36  C   UNL     1       4.633 -13.064   7.773  0.00  0.00    +0.015 C 
ATOM     37  C   UNL     1       3.175 -13.990   5.967  0.00  0.00    +0.015 C 
ENDBRANCH  31  34
ENDBRANCH  27  28
ENDBRANCH  23  26
ENDBRANCH   8  22
TORSDOF 6
