REMARK  Name = ZINC60581629
REMARK  5 active torsions:
REMARK  status: ('A' for Active; 'I' for Inactive)
REMARK    1  A    between atoms: C_3  and  C_20
REMARK    2  A    between atoms: C_5  and  N_7
REMARK    3  A    between atoms: C_8  and  C_10
REMARK    4  A    between atoms: C_10  and  N_11
REMARK    5  A    between atoms: C_20  and  N_21
REMARK                            x       y       z     vdW  Elec       q    Type
REMARK                         _______ _______ _______ _____ _____    ______ ____
ROOT
ATOM      1  C   UNL     1       0.251   1.374   0.766  0.00  0.00    +0.002 A 
ATOM      2  C   UNL     1       1.172   2.086   0.019  0.00  0.00    +0.005 A 
ATOM      3  C   UNL     1       2.114   1.418  -0.741  0.00  0.00    -0.028 A 
ATOM      4  C   UNL     1       2.139   0.037  -0.756  0.00  0.00    +0.028 A 
ATOM      5  C   UNL     1       1.216  -0.681  -0.007  0.00  0.00    +0.034 A 
ATOM      6  C   UNL     1       0.270  -0.007   0.755  0.00  0.00    +0.023 A 
ENDROOT
BRANCH   5   7
ATOM      7  N   UNL     1       1.237  -2.080  -0.021  0.00  0.00    -0.287 N 
ATOM      8  C   UNL     1       0.087  -2.773   0.087  0.00  0.00    +0.201 C 
ATOM      9  O   UNL     1      -0.975  -2.187   0.101  0.00  0.00    -0.278 OA
ATOM     10  H   UNL     1       2.081  -2.551  -0.110  0.00  0.00    +0.155 HD
BRANCH   8  11
ATOM     11  C   UNL     1       0.119  -4.276   0.192  0.00  0.00    +0.019 C 
BRANCH  11  12
ATOM     12  N   UNL     1      -1.253  -4.789   0.300  0.00  0.00    +0.388 N 
ATOM     13  C   UNL     1      -1.209  -6.235   0.554  0.00  0.00    -0.073 C 
ATOM     14  C   UNL     1      -2.607  -6.706   0.992  0.00  0.00    +0.024 C 
ATOM     15  C   UNL     1      -3.598  -6.122   0.039  0.00  0.00    -0.011 A 
ATOM     16  C   UNL     1      -3.365  -5.125  -0.861  0.00  0.00    -0.054 A 
ATOM     17  C   UNL     1      -4.441  -4.741  -1.656  0.00  0.00    +0.009 A 
ATOM     18  C   UNL     1      -5.642  -5.349  -1.509  0.00  0.00    +0.045 A 
ATOM     19  S   UNL     1      -5.304  -6.525  -0.207  0.00  0.00    -0.101 S 
ATOM     20  C   UNL     1      -1.976  -4.499  -0.944  0.00  0.00    -0.042 C 
ATOM     21  H   UNL     1      -1.719  -4.332   1.069  0.00  0.00    -0.081 HD
ENDBRANCH  11  12
ENDBRANCH   8  11
ENDBRANCH   5   7
BRANCH   3  22
ATOM     22  C   UNL     1       3.115   2.198  -1.554  0.00  0.00    +0.153 C 
BRANCH  22  23
ATOM     23  N   UNL     1       4.309   2.454  -0.743  0.00  0.00    -0.220 N 
ATOM     24  C   UNL     1       4.473   3.538   0.040  0.00  0.00    +0.240 C 
ATOM     25  O   UNL     1       3.691   4.451   0.202  0.00  0.00    -0.273 OA
ATOM     26  C   UNL     1       5.838   3.379   0.679  0.00  0.00    +0.202 C 
ATOM     27  N   UNL     1       6.331   2.104   0.129  0.00  0.00    -0.290 N 
ATOM     28  C   UNL     1       5.367   1.639  -0.686  0.00  0.00    +0.309 C 
ATOM     29  O   UNL     1       5.450   0.595  -1.303  0.00  0.00    -0.252 OA
ATOM     30  H   UNL     1       7.183   1.682   0.320  0.00  0.00    +0.151 HD
ENDBRANCH  22  23
ENDBRANCH   3  22
TORSDOF 5
