REMARK  Name = ZINC39467980
REMARK  5 active torsions:
REMARK  status: ('A' for Active; 'I' for Inactive)
REMARK    1  A    between atoms: C_1  and  C_2
REMARK    2  A    between atoms: C_5  and  C_8
REMARK    3  A    between atoms: C_12  and  N_15
REMARK    4  A    between atoms: N_18  and  C_19
REMARK    5  A    between atoms: C_19  and  C_20
REMARK                            x       y       z     vdW  Elec       q    Type
REMARK                         _______ _______ _______ _____ _____    ______ ____
ROOT
ATOM      1  N   UNL     1      -0.582  -7.563   1.155  0.00  0.00    -0.268 N 
ATOM      2  C   UNL     1      -0.077  -8.644   1.782  0.00  0.00    +0.302 C 
ATOM      3  O   UNL     1       0.453  -8.524   2.870  0.00  0.00    -0.253 OA
ATOM      4  N   UNL     1      -0.159  -9.859   1.204  0.00  0.00    -0.297 N 
ATOM      5  H   UNL     1      -1.005  -7.660   0.288  0.00  0.00    +0.153 HD
ATOM      6  H   UNL     1      -0.582  -9.955   0.336  0.00  0.00    +0.150 HD
ENDROOT
BRANCH   1  10
ATOM      7  C   UNL     1       0.059  -4.275  -0.021  0.00  0.00    +0.189 C 
ATOM      8  N   UNL     1       1.119  -4.806   0.866  0.00  0.00    -0.293 N 
ATOM      9  N   UNL     1       0.874  -5.683   1.671  0.00  0.00    -0.181 NA
ATOM     10  C   UNL     1      -0.493  -6.243   1.784  0.00  0.00    +0.274 C 
ATOM     11  S   UNL     1      -1.431  -4.973   0.821  0.00  0.00    -0.083 S 
ATOM     12  H   UNL     1       2.020  -4.450   0.804  0.00  0.00    +0.184 HD
BRANCH   7  17
ATOM     13  C   UNL     1      -0.018   1.503   0.010  0.00  0.00    +0.044 C 
ATOM     14  C   UNL     1       0.002  -0.004   0.002  0.00  0.00    -0.050 A 
ATOM     15  C   UNL     1       0.006  -0.689  -1.199  0.00  0.00    +0.004 A 
ATOM     16  C   UNL     1       0.025  -2.071  -1.206  0.00  0.00    +0.007 A 
ATOM     17  C   UNL     1       0.040  -2.768  -0.013  0.00  0.00    -0.014 A 
ATOM     18  C   UNL     1       0.037  -2.084   1.188  0.00  0.00    +0.007 A 
ATOM     19  C   UNL     1       0.023  -0.702   1.195  0.00  0.00    +0.004 A 
ENDBRANCH   7  17
ENDBRANCH   1  10
BRANCH   4  20
ATOM     20  C   UNL     1       0.390 -11.033   1.885  0.00  0.00    +0.138 C 
BRANCH  20  21
ATOM     21  C   UNL     1       0.167 -12.275   1.020  0.00  0.00    +0.173 C 
ATOM     22  C   UNL     1       0.883 -13.474   1.608  0.00  0.00    -0.019 C 
ATOM     23  C   UNL     1       1.762 -13.835   0.675  0.00  0.00    +0.065 C 
ATOM     24  C   UNL     1       2.551 -15.042   1.151  0.00  0.00    +0.057 C 
ATOM     25  C   UNL     1       2.321 -15.098   2.677  0.00  0.00    +0.011 C 
ATOM     26  C   UNL     1       0.963 -14.373   2.815  0.00  0.00    +0.035 C 
ATOM     27  N   UNL     1       1.666 -13.004  -0.398  0.00  0.00    -0.158 NA
ATOM     28  N   UNL     1       0.812 -12.118  -0.295  0.00  0.00    -0.178 NA
ENDBRANCH  20  21
ENDBRANCH   4  20
TORSDOF 4
