REMARK  Name = ZINC66925139
REMARK  8 active torsions:
REMARK  status: ('A' for Active; 'I' for Inactive)
REMARK    1  A    between atoms: C_1  and  C_2
REMARK    2  A    between atoms: C_3  and  C_8
REMARK    3  A    between atoms: N_6  and  C_7
REMARK    4  A    between atoms: C_8  and  C_10
REMARK    5  A    between atoms: C_8  and  N_11
REMARK    6  A    between atoms: N_14  and  N_15
REMARK    7  A    between atoms: C_16  and  C_18
REMARK    8  A    between atoms: C_18  and  C_19
REMARK                            x       y       z     vdW  Elec       q    Type
REMARK                         _______ _______ _______ _____ _____    ______ ____
ROOT
ATOM      1  N   UNL     1       0.478  -1.401  -3.398  0.00  0.00    -0.292 N 
ATOM      2  C   UNL     1       1.028  -1.105  -4.592  0.00  0.00    +0.316 C 
ATOM      3  O   UNL     1       1.123   0.054  -4.947  0.00  0.00    -0.251 OA
ATOM      4  N   UNL     1       1.473  -2.093  -5.393  0.00  0.00    -0.218 N 
ATOM      5  H   UNL     1       0.402  -2.326  -3.115  0.00  0.00    +0.151 HD
ATOM      6  H   UNL     1       1.869  -1.880  -6.253  0.00  0.00    +0.174 HD
ENDROOT
BRANCH   4   7
ATOM      7  N   UNL     1       1.363  -3.429  -4.984  0.00  0.00    -0.233 N 
ATOM      8  C   UNL     1       1.808  -4.417  -5.785  0.00  0.00    +0.234 C 
ATOM      9  O   UNL     1       2.303  -4.151  -6.860  0.00  0.00    -0.274 OA
ATOM     10  H   UNL     1       0.967  -3.642  -4.125  0.00  0.00    +0.173 HD
BRANCH   8  11
ATOM     11  C   UNL     1       1.690  -5.854  -5.346  0.00  0.00    +0.135 C 
BRANCH  11  12
ATOM     12  C   UNL     1       2.256  -6.754  -6.413  0.00  0.00    -0.003 A 
ATOM     13  C   UNL     1       1.419  -7.314  -7.360  0.00  0.00    +0.007 A 
ATOM     14  C   UNL     1       1.939  -8.140  -8.340  0.00  0.00    +0.000 A 
ATOM     15  C   UNL     1       3.295  -8.406  -8.374  0.00  0.00    +0.003 A 
ATOM     16  C   UNL     1       4.133  -7.847  -7.428  0.00  0.00    +0.038 A 
ATOM     17  C   UNL     1       3.615  -7.016  -6.450  0.00  0.00    +0.127 A 
ATOM     18  F   UNL     1       4.434  -6.464  -5.528  0.00  0.00    -0.205 F 
ENDBRANCH  11  12
ENDBRANCH   8  11
ENDBRANCH   4   7
BRANCH   1  19
ATOM     19  C   UNL     1      -0.006  -0.327  -2.527  0.00  0.00    +0.105 C 
ATOM     20  C   UNL     1      -1.434   0.050  -2.927  0.00  0.00    +0.033 C 
BRANCH  19  23
ATOM     21  C   UNL     1      -0.018   1.503   0.010  0.00  0.00    +0.065 C 
ATOM     22  C   UNL     1       0.002  -0.004   0.002  0.00  0.00    +0.041 A 
ATOM     23  C   UNL     1       0.008  -0.796  -1.095  0.00  0.00    +0.013 A 
ATOM     24  C   UNL     1       0.028  -2.127  -0.666  0.00  0.00    +0.140 A 
ATOM     25  N   UNL     1       0.035  -2.134   0.643  0.00  0.00    -0.179 NA
ATOM     26  N   UNL     1       0.024  -0.805   1.088  0.00  0.00    -0.271 N 
ATOM     27  C   UNL     1       0.031  -0.364   2.485  0.00  0.00    +0.172 C 
ENDBRANCH  19  23
ENDBRANCH   1  19
TORSDOF 5
