REMARK  Name = ZINC49716289
REMARK  2 active torsions:
REMARK  status: ('A' for Active; 'I' for Inactive)
REMARK    1  A    between atoms: C_6  and  C_18
REMARK    2  A    between atoms: C_7  and  N_9
REMARK                            x       y       z     vdW  Elec       q    Type
REMARK                         _______ _______ _______ _____ _____    ______ ____
ROOT
ATOM      1  C   UNL     1       0.188   1.286   0.687  0.00  0.00    +0.101 A 
ATOM      2  C   UNL     1       1.189   2.040   0.228  0.00  0.00    +0.067 A 
ATOM      3  S   UNL     1       2.133   0.853  -0.715  0.00  0.00    -0.058 S 
ATOM      4  C   UNL     1       1.098  -0.562  -0.412  0.00  0.00    +0.180 A 
ATOM      5  N   UNL     1       0.115  -0.050   0.375  0.00  0.00    -0.286 N 
ATOM      6  C   UNL     1      -0.734  -1.141   0.643  0.00  0.00    +0.176 A 
ATOM      7  C   UNL     1      -0.196  -2.236  -0.008  0.00  0.00    +0.140 A 
ATOM      8  N   UNL     1       0.906  -1.840  -0.630  0.00  0.00    -0.207 NA
ENDROOT
BRANCH   7   9
ATOM      9  N   UNL     1      -0.721  -3.532  -0.010  0.00  0.00    -0.375 NA
ATOM     10  C   UNL     1      -0.320  -4.240  -1.248  0.00  0.00    +0.090 C 
ATOM     11  C   UNL     1       0.488  -5.485  -0.765  0.00  0.00    +0.007 C 
ATOM     12  C   UNL     1       1.827  -4.883  -0.237  0.00  0.00    +0.007 C 
ATOM     13  C   UNL     1       1.413  -4.080   1.018  0.00  0.00    +0.021 C 
ATOM     14  C   UNL     1      -0.155  -4.316   1.131  0.00  0.00    +0.057 C 
ATOM     15  C   UNL     1      -0.270  -5.780   0.580  0.00  0.00    +0.026 C 
ATOM     16  H   UNL     1      -1.727  -3.498   0.059  0.00  0.00    +0.128 HD
ENDBRANCH   7   9
BRANCH   6  17
ATOM     17  C   UNL     1      -1.907  -1.121   1.424  0.00  0.00    +0.406 C 
ATOM     18  O   UNL     1      -2.308   0.015   1.995  0.00  0.00    -0.239 OA
ATOM     19  O   UNL     1      -2.615  -2.237   1.592  0.00  0.00    -0.239 OA
ENDBRANCH   6  17
TORSDOF 2
