REMARK  Name = ZINC21604530
REMARK  8 active torsions:
REMARK  status: ('A' for Active; 'I' for Inactive)
REMARK    1  A    between atoms: C_1  and  C_2
REMARK    2  A    between atoms: C_8  and  C_13
REMARK    3  A    between atoms: C_10  and  C_12
REMARK    4  A    between atoms: C_13  and  O_15
REMARK    5  A    between atoms: O_15  and  C_16
REMARK    6  A    between atoms: C_16  and  C_18
REMARK    7  A    between atoms: C_16  and  C_19
REMARK    8  A    between atoms: N_24  and  C_25
REMARK                            x       y       z     vdW  Elec       q    Type
REMARK                         _______ _______ _______ _____ _____    ______ ____
ROOT
ATOM      1  O   UNL     1      -4.912   2.332   1.190  0.00  0.00    -0.449 OA
ENDROOT
BRANCH   1   2
ATOM      2  C   UNL     1      -4.215   2.458   2.336  0.00  0.00    +0.341 C 
ATOM      3  O   UNL     1      -4.787   2.762   3.364  0.00  0.00    -0.245 OA
BRANCH   2  11
ATOM      4  C   UNL     1      -2.418   3.683   7.050  0.00  0.00    +0.044 C 
ATOM      5  C   UNL     1      -1.786   3.175   5.779  0.00  0.00    -0.050 A 
ATOM      6  C   UNL     1      -0.413   2.943   5.739  0.00  0.00    +0.005 A 
ATOM      7  C   UNL     1       0.189   2.485   4.608  0.00  0.00    +0.028 A 
ATOM      8  C   UNL     1      -0.583   2.238   3.457  0.00  0.00    +0.072 A 
ATOM      9  C   UNL     1      -1.980   2.476   3.503  0.00  0.00    +0.015 A 
ATOM     10  C   UNL     1      -2.565   2.949   4.685  0.00  0.00    +0.014 A 
ATOM     11  C   UNL     1      -2.756   2.227   2.342  0.00  0.00    +0.070 A 
ATOM     12  C   UNL     1      -2.097   1.763   1.210  0.00  0.00    +0.038 A 
ATOM     13  C   UNL     1      -0.721   1.552   1.254  0.00  0.00    +0.040 A 
ATOM     14  N   UNL     1      -0.019   1.787   2.334  0.00  0.00    -0.252 NA
ATOM     15  C   UNL     1      -0.019   1.043   0.021  0.00  0.00    +0.065 C 
ENDBRANCH   2  11
ENDBRANCH   1   2
BRANCH   1  16
ATOM     16  C   UNL     1      -6.342   2.574   1.258  0.00  0.00    +0.259 C 
ATOM     17  C   UNL     1      -7.067   1.263   1.571  0.00  0.00    +0.062 C 
BRANCH  16  18
ATOM     18  C   UNL     1      -6.824   3.111  -0.065  0.00  0.00    +0.261 C 
ATOM     19  O   UNL     1      -6.060   3.189  -1.002  0.00  0.00    -0.271 OA
ATOM     20  N   UNL     1      -8.106   3.505  -0.205  0.00  0.00    -0.237 N 
ATOM     21  C   UNL     1      -8.537   3.986  -1.388  0.00  0.00    +0.306 C 
ATOM     22  O   UNL     1      -7.770   4.064  -2.328  0.00  0.00    -0.252 OA
ATOM     23  N   UNL     1      -9.818   4.380  -1.529  0.00  0.00    -0.296 N 
ATOM     24  H   UNL     1      -8.799   3.435   0.645  0.00  0.00    +0.159 HD
ATOM     25  H   UNL     1     -10.512   4.309  -0.678  0.00  0.00    +0.151 HD
BRANCH  23  26
ATOM     26  C   UNL     1     -10.287   4.903  -2.815  0.00  0.00    +0.074 C 
ATOM     27  C   UNL     1     -10.039   6.423  -2.889  0.00  0.00    +0.022 C 
ATOM     28  C   UNL     1     -11.274   6.973  -3.646  0.00  0.00    +0.002 C 
ATOM     29  C   UNL     1     -12.429   6.101  -3.094  0.00  0.00    +0.002 C 
ATOM     30  C   UNL     1     -11.806   4.698  -2.945  0.00  0.00    +0.022 C 
ENDBRANCH  23  26
ENDBRANCH  16  18
ENDBRANCH   1  16
TORSDOF 5
