REMARK  Name = ZINC40840978
REMARK  10 active torsions:
REMARK  status: ('A' for Active; 'I' for Inactive)
REMARK    1  A    between atoms: C_1  and  C_2
REMARK    2  A    between atoms: C_2  and  C_3
REMARK    3  A    between atoms: C_2  and  C_4
REMARK    4  A    between atoms: C_2  and  C_5
REMARK    5  A    between atoms: C_10  and  O_11
REMARK    6  A    between atoms: O_11  and  C_12
REMARK    7  A    between atoms: C_12  and  C_13
REMARK    8  A    between atoms: N_15  and  N_16
REMARK    9  A    between atoms: C_17  and  C_18
REMARK   10  A    between atoms: C_22  and  N_25
REMARK                            x       y       z     vdW  Elec       q    Type
REMARK                         _______ _______ _______ _____ _____    ______ ____
ROOT
ATOM      1  C   UNL     1      -0.069  -4.969   0.222  0.00  0.00    +0.270 C 
ATOM      2  O   UNL     1      -0.608  -4.432   1.167  0.00  0.00    -0.270 OA
ATOM      3  N   UNL     1      -0.015  -6.314   0.151  0.00  0.00    -0.204 N 
ATOM      4  H   UNL     1       0.416  -6.743  -0.604  0.00  0.00    +0.177 HD
ENDROOT
BRANCH   3   5
ATOM      5  N   UNL     1      -0.581  -7.092   1.169  0.00  0.00    -0.188 NA
ATOM      6  C   UNL     1      -0.529  -8.387   1.101  0.00  0.00    +0.142 C 
BRANCH   6   7
ATOM      7  C   UNL     1      -1.125  -9.206   2.172  0.00  0.00    +0.045 A 
ATOM      8  C   UNL     1      -1.066 -10.599   2.106  0.00  0.00    +0.028 A 
ATOM      9  C   UNL     1      -1.626 -11.360   3.112  0.00  0.00    +0.021 A 
ATOM     10  C   UNL     1      -2.246 -10.746   4.188  0.00  0.00    +0.052 A 
ATOM     11  C   UNL     1      -2.311  -9.368   4.265  0.00  0.00    +0.174 A 
ATOM     12  C   UNL     1      -1.748  -8.589   3.266  0.00  0.00    +0.218 A 
ATOM     13  O   UNL     1      -1.806  -7.235   3.344  0.00  0.00    -0.285 OA
ATOM     14 BR   UNL     1      -1.547 -13.247   3.022  0.00  0.00    -0.050 Br
BRANCH  11  15
ATOM     15  N   UNL     1      -2.976  -8.722   5.418  0.00  0.00    +0.060 N 
ATOM     16  O   UNL     1      -3.463  -9.400   6.293  0.00  0.00    -0.126 OA
ATOM     17  O   UNL     1      -3.033  -7.516   5.486  0.00  0.00    -0.126 OA
ENDBRANCH  11  15
ENDBRANCH   6   7
ENDBRANCH   3   5
BRANCH   1  18
ATOM     18  C   UNL     1       0.540  -4.132  -0.874  0.00  0.00    +0.326 C 
BRANCH  18  19
ATOM     19  O   UNL     1       0.356  -2.747  -0.573  0.00  0.00    -0.482 OA
BRANCH  19  25
ATOM     20  C   UNL     1       0.707  -0.490  -1.238  0.00  0.00    -0.000 A 
ATOM     21  C   UNL     1       1.217   0.419  -2.145  0.00  0.00    +0.008 A 
ATOM     22  C   UNL     1       1.863  -0.026  -3.283  0.00  0.00    +0.001 A 
ATOM     23  C   UNL     1       2.003  -1.382  -3.516  0.00  0.00    +0.004 A 
ATOM     24  C   UNL     1       1.496  -2.295  -2.612  0.00  0.00    +0.046 A 
ATOM     25  C   UNL     1       0.851  -1.851  -1.467  0.00  0.00    +0.125 A 
BRANCH  20  27
ATOM     26  C   UNL     1      -0.019   1.526   0.010  0.00  0.00    +0.015 C 
ATOM     27  C   UNL     1       0.002  -0.004   0.002  0.00  0.00    -0.009 C 
ATOM     28  C   UNL     1       0.742  -0.511   1.242  0.00  0.00    +0.015 C 
ATOM     29  C   UNL     1      -1.433  -0.534   0.013  0.00  0.00    +0.015 C 
ENDBRANCH  20  27
ENDBRANCH  19  25
ENDBRANCH  18  19
ENDBRANCH   1  18
TORSDOF 7
