REMARK  Name = ZINC06386335
REMARK  10 active torsions:
REMARK  status: ('A' for Active; 'I' for Inactive)
REMARK    1  A    between atoms: C_1  and  C_2
REMARK    2  A    between atoms: C_2  and  C_3
REMARK    3  A    between atoms: C_3  and  C_4
REMARK    4  A    between atoms: C_3  and  C_5
REMARK    5  A    between atoms: C_3  and  C_6
REMARK    6  A    between atoms: C_15  and  O_29
REMARK    7  A    between atoms: C_17  and  C_20
REMARK    8  A    between atoms: C_23  and  N_26
REMARK    9  A    between atoms: N_26  and  C_27
REMARK   10  A    between atoms: N_26  and  C_28
REMARK                            x       y       z     vdW  Elec       q    Type
REMARK                         _______ _______ _______ _____ _____    ______ ____
ROOT
ATOM      1  C   UNL     1      -3.963   3.927   6.987  0.00  0.00    -0.000 C 
ATOM      2  C   UNL     1      -2.688   4.674   6.585  0.00  0.00    +0.009 C 
ATOM      3  C   UNL     1      -2.844   5.250   5.177  0.00  0.00    +0.037 C 
ATOM      4  C   UNL     1      -3.281   4.135   4.234  0.00  0.00    -0.023 A 
ATOM      5  C   UNL     1      -3.820   2.992   4.716  0.00  0.00    -0.004 A 
ATOM      6  S   UNL     1      -4.167   2.010   3.280  0.00  0.00    -0.078 S 
ATOM      7  C   UNL     1      -3.613   3.093   2.077  0.00  0.00    +0.080 A 
ATOM      8  C   UNL     1      -3.156   4.209   2.788  0.00  0.00    +0.068 A 
ATOM      9  C   UNL     1      -2.596   5.337   2.000  0.00  0.00    +0.220 C 
ATOM     10  N   UNL     1      -2.380   5.141   0.728  0.00  0.00    -0.223 NA
ATOM     11  C   UNL     1      -2.554   3.866   0.042  0.00  0.00    +0.224 C 
ATOM     12  N   UNL     1      -3.565   3.024   0.707  0.00  0.00    -0.313 N 
ATOM     13  C   UNL     1      -4.067   2.643   6.151  0.00  0.00    +0.046 C 
ATOM     14  H   UNL     1      -4.230   2.386   0.107  0.00  0.00    +0.149 HD
ENDROOT
BRANCH  11  15
ATOM     15  C   UNL     1      -1.237   3.133   0.027  0.00  0.00    -0.005 A 
ATOM     16  C   UNL     1      -1.218   1.751   0.000  0.00  0.00    +0.009 A 
ATOM     17  C   UNL     1      -0.013   1.076  -0.008  0.00  0.00    +0.023 A 
ATOM     18  C   UNL     1       1.180   1.787  -0.001  0.00  0.00    +0.029 A 
ATOM     19  C   UNL     1       1.157   3.176   0.020  0.00  0.00    +0.023 A 
ATOM     20  C   UNL     1      -0.051   3.845   0.034  0.00  0.00    +0.009 A 
BRANCH  18  21
ATOM     21  N   UNL     1       2.401   1.108  -0.015  0.00  0.00    -0.336 N 
ATOM     22  C   UNL     1       2.427  -0.353   0.089  0.00  0.00    +0.129 C 
ATOM     23  C   UNL     1       3.654   1.857  -0.133  0.00  0.00    +0.129 C 
ENDBRANCH  18  21
ENDBRANCH  11  15
BRANCH   1  24
ATOM     24  C   UNL     1      -3.900   3.568   8.473  0.00  0.00    -0.032 C 
ATOM     25  C   UNL     1      -2.685   2.675   8.731  0.00  0.00    +0.011 C 
ATOM     26  C   UNL     1      -3.778   4.848   9.302  0.00  0.00    +0.011 C 
BRANCH  24  28
ATOM     27  C   UNL     1      -5.113   2.464  10.357  0.00  0.00    +0.004 C 
ATOM     28  C   UNL     1      -5.175   2.822   8.871  0.00  0.00    +0.003 C 
ENDBRANCH  24  28
ENDBRANCH   1  24
BRANCH   9  29
ATOM     29  O   UNL     1      -2.320   6.527   2.580  0.00  0.00    -0.492 OA
ATOM     30  H   UNL     1      -1.906   7.350   1.978  0.00  0.00    +0.294 HD
ENDBRANCH   9  29
TORSDOF 5
