REMARK  Name = ZINC02954676
REMARK  6 active torsions:
REMARK  status: ('A' for Active; 'I' for Inactive)
REMARK    1  A    between atoms: C_1  and  C_2
REMARK    2  A    between atoms: C_6  and  N_8
REMARK    3  A    between atoms: C_12  and  C_14
REMARK    4  A    between atoms: C_17  and  C_26
REMARK    5  A    between atoms: C_20  and  C_25
REMARK    6  A    between atoms: C_26  and  O_27
REMARK                            x       y       z     vdW  Elec       q    Type
REMARK                         _______ _______ _______ _____ _____    ______ ____
ROOT
ATOM      1  C   UNL     1      -2.998  -5.548   0.449  0.00  0.00    +0.094 A 
ATOM      2  C   UNL     1      -4.338  -5.257   0.504  0.00  0.00    +0.029 A 
ATOM      3  C   UNL     1      -5.277  -6.370   0.627  0.00  0.00    +0.027 A 
ATOM      4  C   UNL     1      -6.662  -6.156   0.685  0.00  0.00    +0.007 A 
ATOM      5  C   UNL     1      -7.488  -7.239   0.806  0.00  0.00    +0.117 A 
ATOM      6  N   UNL     1      -7.005  -8.467   0.868  0.00  0.00    -0.256 NA
ATOM      7  C   UNL     1      -5.714  -8.725   0.819  0.00  0.00    +0.081 A 
ATOM      8  C   UNL     1      -4.795  -7.690   0.696  0.00  0.00    +0.160 A 
ATOM      9  O   UNL     1      -3.471  -7.940   0.644  0.00  0.00    -0.420 OA
ATOM     10  C   UNL     1      -2.571  -6.951   0.527  0.00  0.00    +0.347 A 
ATOM     11  O   UNL     1      -1.385  -7.221   0.483  0.00  0.00    -0.244 OA
ATOM     12  C   UNL     1      -5.231 -10.151   0.895  0.00  0.00    +0.069 C 
ENDROOT
BRANCH   1  17
ATOM     13  N   UNL     1       1.238  -2.078  -0.020  0.00  0.00    -0.292 N 
ATOM     14  C   UNL     1       0.055  -2.790   0.092  0.00  0.00    +0.186 A 
ATOM     15  N   UNL     1      -1.201  -2.359   0.133  0.00  0.00    -0.125 NA
ATOM     16  N   UNL     1      -2.175  -3.153   0.235  0.00  0.00    -0.139 NA
ATOM     17  C   UNL     1      -2.002  -4.468   0.320  0.00  0.00    +0.141 A 
ATOM     18  S   UNL     1      -0.216  -4.555   0.232  0.00  0.00    -0.030 S 
ATOM     19  H   UNL     1       2.080  -2.548  -0.121  0.00  0.00    +0.154 HD
BRANCH  13  25
ATOM     20  C   UNL     1       3.323   2.211  -1.210  0.00  0.00    +0.044 C 
ATOM     21  C   UNL     1       2.216   1.424  -0.558  0.00  0.00    -0.049 A 
ATOM     22  C   UNL     1       1.178   2.085   0.074  0.00  0.00    +0.003 A 
ATOM     23  C   UNL     1       0.160   1.367   0.674  0.00  0.00    +0.002 A 
ATOM     24  C   UNL     1       0.177  -0.014   0.644  0.00  0.00    +0.023 A 
ATOM     25  C   UNL     1       1.218  -0.681   0.011  0.00  0.00    +0.033 A 
ATOM     26  C   UNL     1       2.239   0.044  -0.591  0.00  0.00    +0.026 A 
ENDBRANCH  13  25
ENDBRANCH   1  17
BRANCH   4  27
ATOM     27  C   UNL     1      -7.228  -4.761   0.615  0.00  0.00    +0.193 C 
BRANCH  27  28
ATOM     28  O   UNL     1      -8.653  -4.821   0.694  0.00  0.00    -0.390 OA
ATOM     29  H   UNL     1      -9.086  -3.957   0.655  0.00  0.00    +0.210 HD
ENDBRANCH  27  28
ENDBRANCH   4  27
TORSDOF 4
