REMARK  Name = ZINC39620483
REMARK  11 active torsions:
REMARK  status: ('A' for Active; 'I' for Inactive)
REMARK    1  A    between atoms: C_1  and  C_2
REMARK    2  A    between atoms: C_4  and  C_12
REMARK    3  A    between atoms: C_12  and  C_14
REMARK    4  A    between atoms: C_14  and  S_15
REMARK    5  A    between atoms: S_15  and  C_16
REMARK    6  A    between atoms: C_19  and  C_29
REMARK    7  A    between atoms: N_21  and  C_22
REMARK    8  A    between atoms: C_29  and  C_31
REMARK    9  A    between atoms: C_29  and  N_32
REMARK   10  A    between atoms: N_32  and  C_33
REMARK   11  A    between atoms: N_32  and  C_34
REMARK                            x       y       z     vdW  Elec       q    Type
REMARK                         _______ _______ _______ _____ _____    ______ ____
ROOT
ATOM      1  C   UNL     1       1.252  -1.330  -5.742  0.00  0.00    +0.180 C 
ATOM      2  N   UNL     1       2.187  -2.180  -5.484  0.00  0.00    -0.162 NA
ATOM      3  N   UNL     1       2.817  -2.620  -6.655  0.00  0.00    -0.248 N 
ATOM      4  C   UNL     1       2.150  -1.922  -7.767  0.00  0.00    +0.168 C 
ATOM      5  N   UNL     1       1.128  -1.094  -7.104  0.00  0.00    -0.260 N 
ATOM      6  H   UNL     1       3.546  -3.256  -6.720  0.00  0.00    +0.170 HD
ENDROOT
BRANCH   5   7
ATOM      7  C   UNL     1       0.215  -0.236  -7.724  0.00  0.00    +0.037 A 
ATOM      8  C   UNL     1      -1.149  -0.469  -7.605  0.00  0.00    +0.025 A 
ATOM      9  C   UNL     1      -2.049   0.380  -8.219  0.00  0.00    +0.022 A 
ATOM     10  C   UNL     1      -1.593   1.461  -8.953  0.00  0.00    +0.041 A 
ATOM     11  C   UNL     1      -0.234   1.695  -9.073  0.00  0.00    +0.022 A 
ATOM     12  C   UNL     1       0.670   0.853  -8.457  0.00  0.00    +0.025 A 
ATOM     13 CL   UNL     1      -2.727   2.525  -9.724  0.00  0.00    -0.084 Cl
ENDBRANCH   5   7
BRANCH   4  14
ATOM     14  C   UNL     1       1.491  -2.927  -8.714  0.00  0.00    -0.032 C 
ATOM     15  C   UNL     1       0.383  -3.676  -7.972  0.00  0.00    -0.010 C 
BRANCH  14  16
ATOM     16  N   UNL     1       0.916  -2.214  -9.863  0.00  0.00    +0.380 N 
ATOM     17  C   UNL     1       1.991  -1.557 -10.619  0.00  0.00    -0.096 C 
ATOM     18  C   UNL     1       0.219  -3.170 -10.733  0.00  0.00    -0.096 C 
ATOM     19  H   UNL     1       0.263  -1.519  -9.534  0.00  0.00    -0.082 HD
ENDBRANCH  14  16
ENDBRANCH   4  14
BRANCH   1  20
ATOM     20  S   UNL     1       0.247  -0.565  -4.513  0.00  0.00    -0.081 S 
BRANCH  20  21
ATOM     21  C   UNL     1       0.864  -1.252  -2.952  0.00  0.00    +0.156 C 
BRANCH  21  22
ATOM     22  C   UNL     1       0.079  -0.673  -1.803  0.00  0.00    +0.172 C 
ATOM     23  O   UNL     1      -0.810   0.126  -2.017  0.00  0.00    -0.291 OA
BRANCH  22  26
ATOM     24  C   UNL     1      -0.135   0.930   0.937  0.00  0.00    +0.035 C 
ATOM     25  C   UNL     1      -0.300  -0.584   0.788  0.00  0.00    +0.111 C 
ATOM     26  C   UNL     1       0.378  -1.059  -0.479  0.00  0.00    +0.027 C 
ATOM     27  C   UNL     1       1.352  -1.950  -0.067  0.00  0.00    +0.006 A 
ATOM     28  C   UNL     1       2.308  -2.723  -0.768  0.00  0.00    +0.010 A 
ATOM     29  C   UNL     1       3.157  -3.531  -0.094  0.00  0.00    +0.001 A 
ATOM     30  C   UNL     1       3.138  -3.646   1.305  0.00  0.00    +0.002 A 
ATOM     31  C   UNL     1       2.266  -2.952   2.067  0.00  0.00    +0.026 A 
ATOM     32  C   UNL     1       1.305  -2.048   1.413  0.00  0.00    +0.043 A 
ATOM     33  N   UNL     1       0.370  -1.276   1.893  0.00  0.00    -0.377 N 
ATOM     34  H   UNL     1       0.153  -1.175   2.833  0.00  0.00    +0.160 HD
ENDBRANCH  22  26
ENDBRANCH  21  22
ENDBRANCH  20  21
ENDBRANCH   1  20
TORSDOF 7
