REMARK  Name = ZINC02792966
REMARK  6 active torsions:
REMARK  status: ('A' for Active; 'I' for Inactive)
REMARK    1  A    between atoms: C_1  and  C_2
REMARK    2  A    between atoms: C_2  and  C_3
REMARK    3  A    between atoms: C_3  and  C_5
REMARK    4  A    between atoms: C_3  and  S_21
REMARK    5  A    between atoms: S_21  and  C_22
REMARK    6  A    between atoms: C_28  and  N_30
REMARK                            x       y       z     vdW  Elec       q    Type
REMARK                         _______ _______ _______ _____ _____    ______ ____
ROOT
ATOM      1  C   UNL     1      -1.782   3.356   2.550  0.00  0.00    +0.238 C 
ATOM      2  O   UNL     1      -1.205   3.927   3.451  0.00  0.00    -0.274 OA
ATOM      3  N   UNL     1      -3.130   3.343   2.514  0.00  0.00    -0.237 N 
ATOM      4  C   UNL     1      -3.776   2.882   1.360  0.00  0.00    +0.055 A 
ATOM      5  C   UNL     1      -3.256   3.155   0.108  0.00  0.00    +0.025 A 
ATOM      6  C   UNL     1      -3.901   2.694  -1.026  0.00  0.00    +0.002 A 
ATOM      7  C   UNL     1      -5.064   1.955  -0.918  0.00  0.00    +0.001 A 
ATOM      8  C   UNL     1      -5.593   1.671   0.329  0.00  0.00    +0.017 A 
ATOM      9  C   UNL     1      -4.952   2.129   1.466  0.00  0.00    +0.035 A 
ATOM     10  S   UNL     1      -5.601   1.782   3.071  0.00  0.00    -0.086 S 
ATOM     11  C   UNL     1      -5.029   3.160   4.015  0.00  0.00    +0.035 A 
ATOM     12  C   UNL     1      -3.845   3.795   3.630  0.00  0.00    +0.055 A 
ATOM     13  C   UNL     1      -3.385   4.878   4.364  0.00  0.00    +0.025 A 
ATOM     14  C   UNL     1      -4.098   5.320   5.464  0.00  0.00    +0.002 A 
ATOM     15  C   UNL     1      -5.269   4.689   5.841  0.00  0.00    +0.001 A 
ATOM     16  C   UNL     1      -5.737   3.606   5.116  0.00  0.00    +0.017 A 
ENDROOT
BRANCH   1  17
ATOM     17  C   UNL     1      -0.993   2.662   1.470  0.00  0.00    +0.140 C 
BRANCH  17  19
ATOM     18  C   UNL     1       0.408   1.597   3.244  0.00  0.00    +0.005 C 
ATOM     19  C   UNL     1      -0.453   1.335   2.006  0.00  0.00    +0.020 C 
ENDBRANCH  17  19
BRANCH  17  20
ATOM     20  S   UNL     1       0.388   3.715   0.961  0.00  0.00    -0.075 S 
BRANCH  20  21
ATOM     21  C   UNL     1       0.944   2.826  -0.456  0.00  0.00    +0.171 A 
ATOM     22  N   UNL     1       2.072   3.237  -1.100  0.00  0.00    -0.302 N 
ATOM     23  H   UNL     1       2.572   4.037  -0.770  0.00  0.00    +0.171 HD
ATOM     24  C   UNL     1       2.515   2.565  -2.184  0.00  0.00    +0.254 A 
ATOM     25  O   UNL     1       3.528   2.923  -2.765  0.00  0.00    -0.268 OA
ATOM     26  C   UNL     1       1.792   1.456  -2.633  0.00  0.00    +0.113 A 
ATOM     27  C   UNL     1       0.647   1.082  -1.944  0.00  0.00    +0.124 A 
ATOM     28  N   UNL     1       0.258   1.782  -0.873  0.00  0.00    -0.209 NA
BRANCH  27  29
ATOM     29  N   UNL     1      -0.089  -0.009  -2.363  0.00  0.00    -0.343 N 
ATOM     30  H   UNL     1      -0.889  -0.268  -1.881  0.00  0.00    +0.144 HD
ATOM     31  H   UNL     1       0.195  -0.515  -3.140  0.00  0.00    +0.144 HD
ENDBRANCH  27  29
ENDBRANCH  20  21
ENDBRANCH  17  20
ENDBRANCH   1  17
TORSDOF 5
