REMARK  Name = ZINC03416573
REMARK  4 active torsions:
REMARK  status: ('A' for Active; 'I' for Inactive)
REMARK    1  A    between atoms: C_12  and  C_18
REMARK    2  A    between atoms: C_18  and  O_20
REMARK    3  A    between atoms: O_20  and  C_21
REMARK    4  A    between atoms: C_21  and  C_22
REMARK                            x       y       z     vdW  Elec       q    Type
REMARK                         _______ _______ _______ _____ _____    ______ ____
ROOT
ATOM      1  C   UNL     1       3.075   9.351  -1.683  0.00  0.00    +0.340 C 
ATOM      2  O   UNL     1       2.121  10.102  -1.704  0.00  0.00    -0.245 OA
ENDROOT
BRANCH   1  14
ATOM      3  C   UNL     1      -0.013   1.076   0.008  0.00  0.00    +0.001 A 
ATOM      4  C   UNL     1      -1.222   1.750   0.017  0.00  0.00    +0.002 A 
ATOM      5  C   UNL     1      -1.245   3.132   0.029  0.00  0.00    +0.028 A 
ATOM      6  C   UNL     1      -0.066   3.849   0.021  0.00  0.00    +0.104 A 
ATOM      7  C   UNL     1       1.158   3.180   0.007  0.00  0.00    +0.047 A 
ATOM      8  C   UNL     1       1.172   1.779   0.000  0.00  0.00    +0.013 A 
ATOM      9  C   UNL     1       2.434   3.908   0.004  0.00  0.00    +0.197 C 
ATOM     10  O   UNL     1       3.431   3.321   0.377  0.00  0.00    -0.287 OA
ATOM     11  C   UNL     1       2.573   5.309  -0.428  0.00  0.00    +0.048 A 
ATOM     12  C   UNL     1       3.835   5.778  -0.817  0.00  0.00    +0.014 A 
ATOM     13  C   UNL     1       3.998   7.082  -1.223  0.00  0.00    +0.016 A 
ATOM     14  C   UNL     1       2.902   7.947  -1.248  0.00  0.00    +0.061 A 
ATOM     15  C   UNL     1       1.644   7.484  -0.862  0.00  0.00    +0.043 A 
ATOM     16  C   UNL     1       1.482   6.176  -0.456  0.00  0.00    +0.105 A 
ATOM     17  S   UNL     1      -0.115   5.610   0.027  0.00  0.00    +0.026 S 
ATOM     18  O   UNL     1      -0.296   6.007   1.379  0.00  0.00    -0.164 OA
ATOM     19  O   UNL     1      -1.012   5.994  -1.006  0.00  0.00    -0.164 OA
ENDBRANCH   1  14
BRANCH   1  20
ATOM     20  O   UNL     1       4.290   9.796  -2.056  0.00  0.00    -0.452 OA
BRANCH  20  21
ATOM     21  C   UNL     1       4.386  11.184  -2.470  0.00  0.00    +0.328 C 
BRANCH  21  22
ATOM     22  C   UNL     1       5.810  11.499  -2.848  0.00  0.00    +0.258 C 
ATOM     23  O   UNL     1       6.661  10.638  -2.775  0.00  0.00    -0.271 OA
ATOM     24  N   UNL     1       6.138  12.737  -3.267  0.00  0.00    -0.258 N 
ATOM     25  C   UNL     1       5.125  13.799  -3.364  0.00  0.00    +0.209 C 
ATOM     26  C   UNL     1       5.346  14.573  -4.638  0.00  0.00    +0.235 C 
ATOM     27  O   UNL     1       4.403  15.102  -5.188  0.00  0.00    -0.274 OA
ATOM     28  N   UNL     1       6.577  14.685  -5.173  0.00  0.00    -0.283 N 
ATOM     29  C   UNL     1       7.673  14.044  -4.586  0.00  0.00    +0.055 A 
ATOM     30  C   UNL     1       7.459  13.056  -3.619  0.00  0.00    +0.058 A 
ATOM     31  C   UNL     1       8.531  12.412  -3.030  0.00  0.00    +0.025 A 
ATOM     32  C   UNL     1       9.822  12.752  -3.395  0.00  0.00    +0.002 A 
ATOM     33  C   UNL     1      10.040  13.733  -4.344  0.00  0.00    +0.002 A 
ATOM     34  C   UNL     1       8.967  14.378  -4.949  0.00  0.00    +0.025 A 
ATOM     35  H   UNL     1       6.705  15.217  -5.974  0.00  0.00    +0.155 HD
ENDBRANCH  21  22
ENDBRANCH  20  21
ENDBRANCH   1  20
TORSDOF 4
