REMARK  Name = ZINC64074614
REMARK  8 active torsions:
REMARK  status: ('A' for Active; 'I' for Inactive)
REMARK    1  A    between atoms: C_1  and  C_2
REMARK    2  A    between atoms: C_6  and  C_8
REMARK    3  A    between atoms: N_22  and  C_23
REMARK    4  A    between atoms: C_23  and  C_24
REMARK    5  A    between atoms: C_28  and  O_30
REMARK    6  A    between atoms: O_30  and  C_31
REMARK    7  A    between atoms: C_31  and  C_32
REMARK    8  A    between atoms: C_32  and  O_33
REMARK                            x       y       z     vdW  Elec       q    Type
REMARK                         _______ _______ _______ _____ _____    ______ ____
ROOT
ATOM      1  C   UNL     1       0.050  -2.683   2.519  0.00  0.00    +0.132 C 
ATOM      2  C   UNL     1       1.220  -2.167   3.360  0.00  0.00    +0.129 C 
ATOM      3  C   UNL     1       0.911  -0.706   3.668  0.00  0.00    -0.035 C 
ATOM      4  C   UNL     1       1.966  -0.008   3.270  0.00  0.00    -0.001 A 
ATOM      5  C   UNL     1       2.294   1.422   3.378  0.00  0.00    +0.010 A 
ATOM      6  C   UNL     1       3.480   1.808   2.837  0.00  0.00    +0.001 A 
ATOM      7  C   UNL     1       4.361   0.925   2.207  0.00  0.00    +0.002 A 
ATOM      8  C   UNL     1       4.144  -0.407   2.067  0.00  0.00    +0.026 A 
ATOM      9  C   UNL     1       2.932  -0.933   2.601  0.00  0.00    +0.043 A 
ATOM     10  N   UNL     1       2.486  -2.175   2.629  0.00  0.00    -0.376 N 
ATOM     11  C   UNL     1      -0.425  -0.280   4.226  0.00  0.00    +0.049 C 
ATOM     12  C   UNL     1      -1.493  -0.971   3.358  0.00  0.00    +0.090 C 
ATOM     13  N   UNL     1      -1.200  -2.403   3.242  0.00  0.00    -0.288 NA
ATOM     14  H   UNL     1       2.910  -2.953   2.235  0.00  0.00    +0.160 HD
ENDROOT
BRANCH   1  20
ATOM     15  C   UNL     1      -0.018   1.503   0.010  0.00  0.00    +0.065 C 
ATOM     16  C   UNL     1       0.002  -0.004   0.002  0.00  0.00    +0.039 A 
ATOM     17  C   UNL     1       0.005  -0.681  -1.203  0.00  0.00    +0.023 A 
ATOM     18  C   UNL     1       0.024  -2.067  -1.200  0.00  0.00    +0.004 A 
ATOM     19  C   UNL     1       0.039  -2.724   0.021  0.00  0.00    +0.025 A 
ATOM     20  C   UNL     1       0.035  -1.980   1.186  0.00  0.00    +0.061 A 
ATOM     21  N   UNL     1       0.022  -0.662   1.145  0.00  0.00    -0.255 NA
ENDBRANCH   1  20
BRANCH  13  22
ATOM     22  C   UNL     1      -2.329  -3.126   2.641  0.00  0.00    +0.120 C 
BRANCH  22  23
ATOM     23  C   UNL     1      -3.533  -3.015   3.541  0.00  0.00    -0.030 A 
ATOM     24  C   UNL     1      -3.746  -3.960   4.528  0.00  0.00    +0.005 A 
ATOM     25  C   UNL     1      -4.849  -3.861   5.355  0.00  0.00    +0.004 A 
ATOM     26  C   UNL     1      -5.742  -2.818   5.197  0.00  0.00    +0.045 A 
ATOM     27  C   UNL     1      -5.530  -1.870   4.208  0.00  0.00    +0.121 A 
ATOM     28  C   UNL     1      -4.418  -1.967   3.383  0.00  0.00    +0.050 A 
BRANCH  27  29
ATOM     29  O   UNL     1      -6.406  -0.843   4.051  0.00  0.00    -0.490 OA
BRANCH  29  30
ATOM     30  C   UNL     1      -7.524  -0.802   4.940  0.00  0.00    +0.256 C 
BRANCH  30  31
ATOM     31  C   UNL     1      -8.392   0.415   4.612  0.00  0.00    +0.196 C 
BRANCH  31  32
ATOM     32  O   UNL     1      -8.952   0.263   3.307  0.00  0.00    -0.392 OA
ATOM     33  H   UNL     1      -9.516   1.000   3.032  0.00  0.00    +0.210 HD
ENDBRANCH  31  32
ENDBRANCH  30  31
ENDBRANCH  29  30
ENDBRANCH  27  29
ENDBRANCH  22  23
ENDBRANCH  13  22
TORSDOF 7
