REMARK  Name = ZINC63907285
REMARK  9 active torsions:
REMARK  status: ('A' for Active; 'I' for Inactive)
REMARK    1  A    between atoms: C_1  and  C_2
REMARK    2  A    between atoms: C_2  and  C_4
REMARK    3  A    between atoms: C_2  and  N_7
REMARK    4  A    between atoms: C_4  and  C_5
REMARK    5  A    between atoms: C_4  and  C_6
REMARK    6  A    between atoms: C_8  and  C_10
REMARK    7  A    between atoms: C_10  and  N_11
REMARK    8  A    between atoms: C_14  and  C_19
REMARK    9  A    between atoms: C_19  and  C_20
REMARK                            x       y       z     vdW  Elec       q    Type
REMARK                         _______ _______ _______ _____ _____    ______ ____
ROOT
ATOM      1  N   UNL     1       4.181  -1.104  -2.214  0.00  0.00    -0.216 N 
ATOM      2  C   UNL     1       5.010  -0.068  -2.449  0.00  0.00    +0.244 C 
ATOM      3  O   UNL     1       4.713   1.024  -2.883  0.00  0.00    -0.273 OA
ATOM      4  C   UNL     1       6.392  -0.552  -2.057  0.00  0.00    +0.165 C 
ATOM      5  N   UNL     1       6.160  -1.934  -1.605  0.00  0.00    -0.287 N 
ATOM      6  C   UNL     1       4.840  -2.163  -1.729  0.00  0.00    +0.310 C 
ATOM      7  O   UNL     1       4.306  -3.214  -1.436  0.00  0.00    -0.252 OA
ATOM      8  H   UNL     1       6.827  -2.557  -1.278  0.00  0.00    +0.151 HD
ENDROOT
BRANCH   1   9
ATOM      9  C   UNL     1       2.736  -1.073  -2.455  0.00  0.00    +0.213 C 
BRANCH   9  11
ATOM     10  N   UNL     1       0.688  -0.476  -1.203  0.00  0.00    -0.311 N 
ATOM     11  C   UNL     1       2.031  -0.587  -1.215  0.00  0.00    +0.231 C 
ATOM     12  O   UNL     1       2.672  -0.295  -0.228  0.00  0.00    -0.274 OA
ATOM     13  H   UNL     1       0.175  -0.710  -1.993  0.00  0.00    +0.149 HD
BRANCH  10  15
ATOM     14  C   UNL     1      -0.019   1.526   0.010  0.00  0.00    +0.028 C 
ATOM     15  C   UNL     1       0.002  -0.004   0.002  0.00  0.00    +0.072 C 
BRANCH  15  16
ATOM     16  C   UNL     1      -1.433  -0.534   0.013  0.00  0.00    +0.003 C 
ATOM     17  C   UNL     1      -2.149  -0.040   1.272  0.00  0.00    +0.009 C 
ATOM     18  C   UNL     1      -2.173  -0.027  -1.227  0.00  0.00    +0.009 C 
ENDBRANCH  15  16
ENDBRANCH  10  15
ENDBRANCH   9  11
ENDBRANCH   1   9
BRANCH   4  19
ATOM     19  C   UNL     1       6.959   0.302  -0.922  0.00  0.00    +0.065 C 
BRANCH  19  20
ATOM     20  C   UNL     1       8.377  -0.120  -0.636  0.00  0.00    -0.039 C 
ATOM     21  C   UNL     1       9.507   0.438  -1.128  0.00  0.00    -0.001 A 
ATOM     22  C   UNL     1       9.745   1.561  -2.042  0.00  0.00    +0.010 A 
ATOM     23  C   UNL     1      11.017   1.893  -2.357  0.00  0.00    +0.001 A 
ATOM     24  C   UNL     1      12.113   1.191  -1.835  0.00  0.00    +0.002 A 
ATOM     25  C   UNL     1      11.974   0.148  -0.989  0.00  0.00    +0.026 A 
ATOM     26  C   UNL     1      10.681  -0.286  -0.589  0.00  0.00    +0.043 A 
ATOM     27  N   UNL     1      10.292  -1.254   0.205  0.00  0.00    -0.380 N 
ATOM     28  C   UNL     1       8.826  -1.250   0.265  0.00  0.00    +0.144 C 
ATOM     29  H   UNL     1      10.876  -1.868   0.677  0.00  0.00    +0.160 HD
ENDBRANCH  19  20
ENDBRANCH   4  19
TORSDOF 6
