REMARK  Name = ZINC19523815
REMARK  14 active torsions:
REMARK  status: ('A' for Active; 'I' for Inactive)
REMARK    1  A    between atoms: C_1  and  C_2
REMARK    2  A    between atoms: C_2  and  N_3
REMARK    3  A    between atoms: C_4  and  C_28
REMARK    4  A    between atoms: C_5  and  C_9
REMARK    5  A    between atoms: C_6  and  C_8
REMARK    6  A    between atoms: C_9  and  N_10
REMARK    7  A    between atoms: N_10  and  C_11
REMARK    8  A    between atoms: N_10  and  C_18
REMARK    9  A    between atoms: C_11  and  C_12
REMARK   10  A    between atoms: C_15  and  C_17
REMARK   11  A    between atoms: C_20  and  C_26
REMARK   12  A    between atoms: C_20  and  C_27
REMARK   13  A    between atoms: C_22  and  C_24
REMARK   14  A    between atoms: C_22  and  C_25
REMARK                            x       y       z     vdW  Elec       q    Type
REMARK                         _______ _______ _______ _____ _____    ______ ____
ROOT
ATOM      1  N   UNL     1       0.184   5.319  -1.291  0.00  0.00    -0.288 NA
ENDROOT
BRANCH   1   2
ATOM      2  C   UNL     1       0.195   3.852  -1.169  0.00  0.00    +0.055 C 
ATOM      3  C   UNL     1       1.269   3.277  -2.092  0.00  0.00    +0.006 C 
ATOM      4  C   UNL     1       1.315   1.756  -1.970  0.00  0.00    -0.072 C 
ATOM      5  N   UNL     1       1.374   1.301  -0.597  0.00  0.00    +0.386 N 
ATOM      6  C   UNL     1       0.576   1.950   0.422  0.00  0.00    -0.072 C 
ATOM      7  C   UNL     1       0.536   3.469   0.271  0.00  0.00    +0.006 C 
ATOM      8  C   UNL     1      -0.855   1.399   0.441  0.00  0.00    -0.010 C 
ATOM      9  C   UNL     1       1.204   1.637   1.799  0.00  0.00    -0.010 C 
ATOM     10  C   UNL     1       2.590   1.270  -2.694  0.00  0.00    -0.010 C 
ATOM     11  C   UNL     1       0.116   1.146  -2.705  0.00  0.00    -0.010 C 
ATOM     12  H   UNL     1       1.060   0.248  -0.545  0.00  0.00    -0.084 HD
ATOM     13  H   UNL     1       2.404   1.395  -0.223  0.00  0.00    -0.084 HD
ENDBRANCH   1   2
BRANCH   1  14
ATOM     14  C   UNL     1      -0.727   5.752  -2.358  0.00  0.00    +0.124 C 
BRANCH  14  17
ATOM     15  N   UNL     1      -4.175   4.930  -1.502  0.00  0.00    -0.268 N 
ATOM     16  C   UNL     1      -3.006   4.636  -2.108  0.00  0.00    +0.041 A 
ATOM     17  C   UNL     1      -2.151   5.657  -1.872  0.00  0.00    +0.010 A 
ATOM     18  C   UNL     1      -2.823   6.612  -1.102  0.00  0.00    +0.065 A 
ATOM     19  N   UNL     1      -4.036   6.178  -0.880  0.00  0.00    -0.176 NA
ATOM     20  C   UNL     1      -2.248   7.917  -0.613  0.00  0.00    +0.068 C 
ATOM     21  C   UNL     1      -2.706   3.391  -2.903  0.00  0.00    +0.065 C 
BRANCH  15  23
ATOM     22  C   UNL     1      -6.253   4.456  -2.703  0.00  0.00    +0.029 C 
ATOM     23  C   UNL     1      -5.379   4.095  -1.500  0.00  0.00    +0.140 C 
ENDBRANCH  15  23
ENDBRANCH  14  17
ENDBRANCH   1  14
BRANCH   1  24
ATOM     24  C   UNL     1       1.540   5.838  -1.514  0.00  0.00    +0.159 C 
BRANCH  24  25
ATOM     25  C   UNL     1       2.312   5.801  -0.220  0.00  0.00    +0.119 A 
ATOM     26  C   UNL     1       3.183   4.845   0.149  0.00  0.00    +0.046 A 
ATOM     27  C   UNL     1       3.672   5.207   1.425  0.00  0.00    +0.044 A 
ATOM     28  C   UNL     1       3.065   6.359   1.763  0.00  0.00    +0.102 A 
ATOM     29  O   UNL     1       2.242   6.714   0.762  0.00  0.00    -0.464 OA
ATOM     30  C   UNL     1       3.272   7.122   3.046  0.00  0.00    +0.086 C 
ENDBRANCH  24  25
ENDBRANCH   1  24
TORSDOF 6
