REMARK  Name = ZINC00872267
REMARK  7 active torsions:
REMARK  status: ('A' for Active; 'I' for Inactive)
REMARK    1  A    between atoms: C_1  and  O_2
REMARK    2  A    between atoms: O_2  and  C_3
REMARK    3  A    between atoms: C_5  and  C_11
REMARK    4  A    between atoms: C_8  and  O_9
REMARK    5  A    between atoms: N_12  and  N_13
REMARK    6  A    between atoms: C_14  and  C_16
REMARK    7  A    between atoms: C_19  and  N_23
REMARK                            x       y       z     vdW  Elec       q    Type
REMARK                         _______ _______ _______ _____ _____    ______ ____
ROOT
ATOM      1  N   UNL     1      -7.189   0.360   0.055  0.00  0.00    -0.203 N 
ATOM      2  C   UNL     1      -8.380  -0.273   0.062  0.00  0.00    +0.265 C 
ATOM      3  O   UNL     1      -8.422  -1.488   0.061  0.00  0.00    -0.268 OA
ATOM      4  H   UNL     1      -7.155   1.329   0.056  0.00  0.00    +0.178 HD
ENDROOT
BRANCH   2   5
ATOM      5  C   UNL     1      -9.632   0.510   0.073  0.00  0.00    +0.057 A 
ATOM      6  C   UNL     1      -9.587   1.906   0.069  0.00  0.00    +0.017 A 
ATOM      7  C   UNL     1     -10.760   2.631   0.079  0.00  0.00    +0.033 A 
ATOM      8  C   UNL     1     -11.981   1.979   0.093  0.00  0.00    +0.128 A 
ATOM      9  C   UNL     1     -12.034   0.597   0.097  0.00  0.00    +0.053 A 
ATOM     10  C   UNL     1     -10.868  -0.142   0.081  0.00  0.00    +0.055 A 
ATOM     11 CL   UNL     1     -10.936  -1.877   0.078  0.00  0.00    -0.083 Cl
BRANCH   8  12
ATOM     12  N   UNL     1     -13.235   2.764   0.104  0.00  0.00    +0.056 N 
ATOM     13  O   UNL     1     -13.192   3.973   0.101  0.00  0.00    -0.126 OA
ATOM     14  O   UNL     1     -14.303   2.198   0.116  0.00  0.00    -0.126 OA
ENDBRANCH   8  12
ENDBRANCH   2   5
BRANCH   1  16
ATOM     15  C   UNL     1      -4.855   0.227   0.038  0.00  0.00    +0.138 C 
ATOM     16  N   UNL     1      -6.001  -0.383   0.045  0.00  0.00    -0.187 NA
BRANCH  15  19
ATOM     17  C   UNL     1      -1.201  -0.638   0.010  0.00  0.00    +0.163 A 
ATOM     18  C   UNL     1      -2.370   0.099   0.019  0.00  0.00    +0.059 A 
ATOM     19  C   UNL     1      -3.605  -0.555   0.027  0.00  0.00    -0.001 A 
ATOM     20  C   UNL     1      -3.652  -1.951   0.026  0.00  0.00    +0.028 A 
ATOM     21  C   UNL     1      -2.481  -2.680   0.016  0.00  0.00    +0.063 A 
ATOM     22  C   UNL     1      -1.255  -2.030   0.003  0.00  0.00    +0.173 A 
ATOM     23 BR   UNL     1      -2.546  -4.570   0.015  0.00  0.00    -0.046 Br
BRANCH  17  25
ATOM     24  C   UNL     1      -0.017   1.425   0.010  0.00  0.00    +0.277 C 
ATOM     25  O   UNL     1       0.002  -0.004   0.002  0.00  0.00    -0.491 OA
ENDBRANCH  17  25
BRANCH  22  26
ATOM     26  O   UNL     1      -0.104  -2.753  -0.011  0.00  0.00    -0.503 OA
ATOM     27  H   UNL     1       0.237  -2.967   0.868  0.00  0.00    +0.292 HD
ENDBRANCH  22  26
ENDBRANCH  15  19
ENDBRANCH   1  16
TORSDOF 6
