REMARK  Name = ZINC12879977
REMARK  3 active torsions:
REMARK  status: ('A' for Active; 'I' for Inactive)
REMARK    1  A    between atoms: C_5  and  C_7
REMARK    2  A    between atoms: C_9  and  C_12
REMARK    3  A    between atoms: C_18  and  O_23
REMARK                            x       y       z     vdW  Elec       q    Type
REMARK                         _______ _______ _______ _____ _____    ______ ____
ROOT
ATOM      1  C   UNL     1       1.247   1.962   0.001  0.00  0.00    +0.124 A 
ATOM      2  C   UNL     1       1.202   3.344   0.009  0.00  0.00    +0.032 A 
ATOM      3  C   UNL     1      -0.064   3.984   0.024  0.00  0.00    +0.022 A 
ATOM      4  C   UNL     1      -0.146   5.385   0.032  0.00  0.00    +0.012 A 
ATOM      5  C   UNL     1      -1.365   5.998   0.046  0.00  0.00    +0.004 A 
ATOM      6  C   UNL     1      -2.531   5.245   0.053  0.00  0.00    +0.049 A 
ATOM      7  C   UNL     1      -2.477   3.864   0.045  0.00  0.00    +0.160 A 
ATOM      8  C   UNL     1      -1.241   3.217   0.031  0.00  0.00    +0.180 A 
ATOM      9  O   UNL     1      -1.187   1.867   0.018  0.00  0.00    -0.418 OA
ATOM     10  C   UNL     1      -0.014   1.213   0.009  0.00  0.00    +0.350 A 
ATOM     11  O   UNL     1       0.002  -0.004   0.002  0.00  0.00    -0.244 OA
ENDROOT
BRANCH   1  14
ATOM     12  C   UNL     1       4.059  -0.233  -0.040  0.00  0.00    +0.205 A 
ATOM     13  N   UNL     1       2.721  -0.055  -0.025  0.00  0.00    -0.187 NA
ATOM     14  C   UNL     1       2.540   1.254  -0.016  0.00  0.00    +0.266 A 
ATOM     15  O   UNL     1       3.760   1.816  -0.030  0.00  0.00    -0.332 OA
ATOM     16  N   UNL     1       4.612   0.953  -0.039  0.00  0.00    -0.056 NA
BRANCH  12  21
ATOM     17  C   UNL     1       4.717  -3.935  -0.063  0.00  0.00    +0.001 A 
ATOM     18  C   UNL     1       6.100  -3.965  -0.078  0.00  0.00    +0.003 A 
ATOM     19  C   UNL     1       6.823  -2.787  -0.081  0.00  0.00    +0.039 A 
ATOM     20  C   UNL     1       6.166  -1.570  -0.069  0.00  0.00    +0.134 A 
ATOM     21  C   UNL     1       4.771  -1.535  -0.054  0.00  0.00    +0.058 A 
ATOM     22  C   UNL     1       4.050  -2.727  -0.046  0.00  0.00    +0.014 A 
ATOM     23  F   UNL     1       6.872  -0.419  -0.070  0.00  0.00    -0.205 F 
ENDBRANCH  12  21
ENDBRANCH   1  14
BRANCH   7  24
ATOM     24  O   UNL     1      -3.626   3.137   0.052  0.00  0.00    -0.503 OA
ATOM     25  H   UNL     1      -3.966   2.931  -0.829  0.00  0.00    +0.292 HD
ENDBRANCH   7  24
TORSDOF 3
