REMARK  Name = ZINC11909278
REMARK  9 active torsions:
REMARK  status: ('A' for Active; 'I' for Inactive)
REMARK    1  A    between atoms: C_2  and  C_3
REMARK    2  A    between atoms: C_3  and  N_4
REMARK    3  A    between atoms: C_5  and  C_18
REMARK    4  A    between atoms: C_8  and  S_9
REMARK    5  A    between atoms: S_9  and  C_10
REMARK    6  A    between atoms: C_10  and  C_11
REMARK    7  A    between atoms: C_23  and  C_24
REMARK    8  A    between atoms: C_23  and  N_58
REMARK    9  A    between atoms: C_29  and  O_30
REMARK                            x       y       z     vdW  Elec       q    Type
REMARK                         _______ _______ _______ _____ _____    ______ ____
ROOT
ATOM      1  N   UNL     1      -0.511   0.368  -3.472  0.00  0.00    -0.302 N 
ATOM      2  C   UNL     1      -0.018   1.161  -2.472  0.00  0.00    +0.137 A 
ATOM      3  N   UNL     1       1.208   1.466  -2.789  0.00  0.00    -0.133 NA
ATOM      4  N   UNL     1       1.521   0.930  -3.914  0.00  0.00    -0.122 NA
ATOM      5  C   UNL     1       0.501   0.247  -4.381  0.00  0.00    +0.192 A 
ENDROOT
BRANCH   2   6
ATOM      6  C   UNL     1      -0.755   1.594  -1.231  0.00  0.00    +0.054 C 
ATOM      7  C   UNL     1      -0.013   1.086   0.008  0.00  0.00    -0.008 C 
ATOM      8  C   UNL     1      -0.731   1.580   1.266  0.00  0.00    -0.078 C 
ATOM      9  C   UNL     1      -1.519   3.558   0.108  0.00  0.00    -0.078 C 
ATOM     10  C   UNL     1      -0.823   3.123  -1.184  0.00  0.00    -0.008 C 
ATOM     11  N   UNL     1      -0.742   3.058   1.262  0.00  0.00    +0.382 N 
ATOM     12  H   UNL     1       0.224   3.399   1.186  0.00  0.00    -0.081 HD
BRANCH  11  13
ATOM     13  C   UNL     1      -1.329   3.562   2.521  0.00  0.00    -0.039 C 
BRANCH  13  14
ATOM     14  C   UNL     1      -0.401   3.224   3.659  0.00  0.00    -0.022 A 
ATOM     15  C   UNL     1      -0.677   2.147   4.480  0.00  0.00    +0.005 A 
ATOM     16  C   UNL     1       0.177   1.834   5.521  0.00  0.00    +0.000 A 
ATOM     17  C   UNL     1       1.303   2.602   5.750  0.00  0.00    +0.004 A 
ATOM     18  C   UNL     1       1.581   3.683   4.935  0.00  0.00    +0.045 A 
ATOM     19  C   UNL     1       0.728   3.996   3.886  0.00  0.00    +0.118 A 
BRANCH  19  20
ATOM     20  O   UNL     1       0.999   5.059   3.083  0.00  0.00    -0.507 OA
ATOM     21  H   UNL     1       0.611   5.891   3.388  0.00  0.00    +0.292 HD
ENDBRANCH  19  20
ENDBRANCH  13  14
ENDBRANCH  11  13
ENDBRANCH   2   6
BRANCH   1  22
ATOM     22  C   UNL     1      -1.848  -0.224  -3.554  0.00  0.00    +0.152 C 
BRANCH  22  24
ATOM     23  C   UNL     1      -3.446   0.326  -5.316  0.00  0.00    +0.005 C 
ATOM     24  C   UNL     1      -2.777   0.727  -4.264  0.00  0.00    -0.013 C 
ENDBRANCH  22  24
ENDBRANCH   1  22
BRANCH   5  25
ATOM     25  S   UNL     1       0.451  -0.661  -5.890  0.00  0.00    -0.081 S 
BRANCH  25  26
ATOM     26  C   UNL     1       2.126  -0.347  -6.501  0.00  0.00    +0.112 C 
BRANCH  26  27
ATOM     27  C   UNL     1       2.318  -1.047  -7.822  0.00  0.00    -0.036 A 
ATOM     28  C   UNL     1       2.014  -0.392  -9.001  0.00  0.00    +0.004 A 
ATOM     29  C   UNL     1       2.191  -1.033 -10.213  0.00  0.00    +0.002 A 
ATOM     30  C   UNL     1       2.671  -2.329 -10.247  0.00  0.00    +0.020 A 
ATOM     31  C   UNL     1       2.974  -2.985  -9.067  0.00  0.00    +0.041 A 
ATOM     32  C   UNL     1       2.803  -2.341  -7.854  0.00  0.00    +0.024 A 
ATOM     33 CL   UNL     1       3.578  -4.612  -9.109  0.00  0.00    -0.084 Cl
ENDBRANCH  26  27
ENDBRANCH  25  26
ENDBRANCH   5  25
TORSDOF 9
