REMARK  Name = ZINC62779026
REMARK  4 active torsions:
REMARK  status: ('A' for Active; 'I' for Inactive)
REMARK    1  A    between atoms: C_1  and  C_2
REMARK    2  A    between atoms: C_4  and  C_8
REMARK    3  A    between atoms: C_5  and  C_7
REMARK    4  A    between atoms: C_8  and  C_10
REMARK                            x       y       z     vdW  Elec       q    Type
REMARK                         _______ _______ _______ _____ _____    ______ ____
ROOT
ATOM      1  C   UNL     1      -1.912  -3.169  -0.444  0.00  0.00    +0.159 C 
ATOM      2 CL   UNL     1      -3.292  -2.290  -1.201  0.00  0.00    -0.110 Cl
ENDROOT
BRANCH   1   6
ATOM      3  C   UNL     1      -0.005   1.471   0.431  0.00  0.00    +0.051 C 
ATOM      4  C   UNL     1       0.009  -0.020   0.209  0.00  0.00    -0.013 A 
ATOM      5  C   UNL     1      -1.032  -0.859  -0.015  0.00  0.00    +0.016 A 
ATOM      6  C   UNL     1      -0.780  -2.206  -0.194  0.00  0.00    -0.014 A 
ATOM      7  C   UNL     1       0.500  -2.648  -0.141  0.00  0.00    -0.008 A 
ATOM      8  S   UNL     1       1.401  -1.137   0.164  0.00  0.00    -0.098 S 
ATOM      9  C   UNL     1       1.028  -4.051  -0.303  0.00  0.00    +0.052 C 
ENDBRANCH   1   6
BRANCH   1  10
ATOM     10  C   UNL     1      -2.356  -3.772   0.863  0.00  0.00    +0.058 A 
ATOM     11  C   UNL     1      -2.254  -5.074   1.216  0.00  0.00    +0.046 A 
ATOM     12  C   UNL     1      -2.781  -5.213   2.505  0.00  0.00    +0.134 A 
ATOM     13  N   UNL     1      -3.185  -4.037   2.910  0.00  0.00    -0.182 NA
ATOM     14  N   UNL     1      -2.922  -3.110   1.893  0.00  0.00    -0.280 N 
ATOM     15  H   UNL     1      -3.116  -2.159   1.924  0.00  0.00    +0.189 HD
ENDBRANCH   1  10
TORSDOF 2
