REMARK  Name = ZINC34750148
REMARK  7 active torsions:
REMARK  status: ('A' for Active; 'I' for Inactive)
REMARK    1  A    between atoms: C_1  and  C_2
REMARK    2  A    between atoms: C_2  and  N_3
REMARK    3  A    between atoms: C_16  and  S_18
REMARK    4  A    between atoms: S_18  and  C_19
REMARK    5  A    between atoms: C_19  and  C_20
REMARK    6  A    between atoms: C_25  and  C_27
REMARK    7  A    between atoms: C_25  and  C_28
REMARK                            x       y       z     vdW  Elec       q    Type
REMARK                         _______ _______ _______ _____ _____    ______ ____
ROOT
ATOM      1  N   UNL     1      -2.409   0.370  -0.007  0.00  0.00    +0.382 N 
ATOM      2  C   UNL     1      -3.854   0.158  -0.162  0.00  0.00    -0.060 C 
ATOM      3  C   UNL     1      -4.142  -1.345  -0.246  0.00  0.00    +0.088 C 
ATOM      4  N   UNL     1      -3.556  -1.998   0.935  0.00  0.00    -0.318 N 
ATOM      5  C   UNL     1      -2.151  -1.710   1.260  0.00  0.00    +0.088 C 
ATOM      6  C   UNL     1      -1.956  -0.191   1.273  0.00  0.00    -0.060 C 
ATOM      7  C   UNL     1      -4.306  -2.858   1.717  0.00  0.00    +0.134 A 
ATOM      8  C   UNL     1      -4.434  -4.229   1.357  0.00  0.00    +0.051 A 
ATOM      9  C   UNL     1      -3.865  -4.934   0.210  0.00  0.00    -0.020 A 
ATOM     10  C   UNL     1      -4.142  -6.250   0.097  0.00  0.00    +0.021 A 
ATOM     11  S   UNL     1      -5.164  -6.628   1.492  0.00  0.00    -0.071 S 
ATOM     12  C   UNL     1      -5.220  -5.013   2.227  0.00  0.00    +0.115 A 
ATOM     13  N   UNL     1      -5.791  -4.497   3.297  0.00  0.00    -0.214 NA
ATOM     14  C   UNL     1      -5.637  -3.211   3.582  0.00  0.00    +0.191 A 
ATOM     15  N   UNL     1      -4.905  -2.417   2.809  0.00  0.00    -0.206 NA
ATOM     16  C   UNL     1      -3.671  -7.165  -0.991  0.00  0.00    +0.203 C 
ATOM     17  O   UNL     1      -3.147  -6.354  -2.054  0.00  0.00    -0.368 OA
ATOM     18  C   UNL     1      -2.234  -5.348  -1.606  0.00  0.00    +0.068 C 
ATOM     19  C   UNL     1      -2.988  -4.256  -0.841  0.00  0.00    +0.071 C 
ATOM     20  C   UNL     1      -1.190  -5.983  -0.687  0.00  0.00    +0.041 C 
ATOM     21  C   UNL     1      -1.532  -4.726  -2.815  0.00  0.00    +0.041 C 
ATOM     22  H   UNL     1      -1.921  -0.085  -0.763  0.00  0.00    -0.082 HD
ENDROOT
BRANCH   1  24
ATOM     23  C   UNL     1      -2.478   2.373  -1.415  0.00  0.00    -0.017 C 
ATOM     24  C   UNL     1      -2.122   1.810  -0.037  0.00  0.00    -0.082 C 
ENDBRANCH   1  24
BRANCH  14  25
ATOM     25  S   UNL     1      -6.412  -2.544   5.018  0.00  0.00    -0.077 S 
BRANCH  25  26
ATOM     26  C   UNL     1      -7.275  -3.963   5.749  0.00  0.00    +0.172 C 
BRANCH  26  27
ATOM     27  C   UNL     1      -7.990  -3.525   7.002  0.00  0.00    +0.221 C 
ATOM     28  O   UNL     1      -7.923  -2.370   7.365  0.00  0.00    -0.275 OA
ATOM     29  N   UNL     1      -8.703  -4.417   7.717  0.00  0.00    -0.329 N 
ATOM     30  H   UNL     1      -8.756  -5.340   7.426  0.00  0.00    +0.145 HD
ATOM     31  H   UNL     1      -9.162  -4.135   8.524  0.00  0.00    +0.145 HD
ENDBRANCH  26  27
ENDBRANCH  25  26
ENDBRANCH  14  25
TORSDOF 4
