REMARK  Name = ZINC49183292
REMARK  4 active torsions:
REMARK  status: ('A' for Active; 'I' for Inactive)
REMARK    1  A    between atoms: C_1  and  C_2
REMARK    2  A    between atoms: C_2  and  N_3
REMARK    3  A    between atoms: N_6  and  N_7
REMARK    4  A    between atoms: C_8  and  C_10
REMARK                            x       y       z     vdW  Elec       q    Type
REMARK                         _______ _______ _______ _____ _____    ______ ____
ROOT
ATOM      1  N   UNL     1       1.969  -1.311  -3.456  0.00  0.00    -0.227 N 
ATOM      2  C   UNL     1       2.600  -1.745  -4.565  0.00  0.00    +0.295 C 
ATOM      3  O   UNL     1       2.725  -2.939  -4.765  0.00  0.00    -0.265 OA
ATOM      4  H   UNL     1       1.869  -0.359  -3.296  0.00  0.00    +0.173 HD
ENDROOT
BRANCH   2   5
ATOM      5  C   UNL     1       3.136  -0.778  -5.532  0.00  0.00    +0.192 A 
ATOM      6  C   UNL     1       3.783  -1.099  -6.683  0.00  0.00    +0.063 A 
ATOM      7  C   UNL     1       4.132   0.171  -7.319  0.00  0.00    +0.022 A 
ATOM      8  C   UNL     1       4.792   0.518  -8.500  0.00  0.00    +0.027 A 
ATOM      9  C   UNL     1       4.963   1.837  -8.818  0.00  0.00    +0.019 A 
ATOM     10  C   UNL     1       4.484   2.831  -7.975  0.00  0.00    +0.019 A 
ATOM     11  C   UNL     1       3.830   2.508  -6.805  0.00  0.00    +0.048 A 
ATOM     12  C   UNL     1       3.645   1.174  -6.461  0.00  0.00    +0.136 A 
ATOM     13  O   UNL     1       3.055   0.564  -5.415  0.00  0.00    -0.450 OA
ATOM     14 BR   UNL     1       5.857   2.310 -10.416  0.00  0.00    -0.050 Br
ENDBRANCH   2   5
BRANCH   1  18
ATOM     15  N   UNL     1       0.688  -0.476  -1.203  0.00  0.00    -0.298 N 
ATOM     16  C   UNL     1       0.827  -1.799  -1.425  0.00  0.00    +0.316 C 
ATOM     17  O   UNL     1       0.383  -2.599  -0.625  0.00  0.00    -0.251 OA
ATOM     18  N   UNL     1       1.458  -2.233  -2.534  0.00  0.00    -0.218 N 
ATOM     19  H   UNL     1       1.042   0.162  -1.842  0.00  0.00    +0.150 HD
ATOM     20  H   UNL     1       1.558  -3.185  -2.693  0.00  0.00    +0.174 HD
BRANCH  15  22
ATOM     21  C   UNL     1      -0.019   1.526   0.010  0.00  0.00    +0.024 C 
ATOM     22  C   UNL     1       0.002  -0.004   0.002  0.00  0.00    +0.102 C 
ENDBRANCH  15  22
ENDBRANCH   1  18
TORSDOF 3
