REMARK  Name = ZINC33469971
REMARK  5 active torsions:
REMARK  status: ('A' for Active; 'I' for Inactive)
REMARK    1  A    between atoms: C_1  and  C_2
REMARK    2  A    between atoms: C_9  and  N_29
REMARK    3  A    between atoms: C_10  and  C_13
REMARK    4  A    between atoms: N_17  and  C_21
REMARK    5  A    between atoms: C_21  and  C_22
REMARK                            x       y       z     vdW  Elec       q    Type
REMARK                         _______ _______ _______ _____ _____    ______ ____
ROOT
ATOM      1  C   UNL     1       2.726  -1.458   0.346  0.00  0.00    +0.047 C 
ATOM      2  C   UNL     1       2.083  -2.818   0.429  0.00  0.00    -0.007 A 
ATOM      3  C   UNL     1       2.856  -3.938   0.506  0.00  0.00    +0.008 A 
ATOM      4  C   UNL     1       2.244  -5.197   0.583  0.00  0.00    +0.019 A 
ATOM      5  C   UNL     1       0.895  -5.296   0.580  0.00  0.00    +0.096 A 
ATOM      6  N   UNL     1       0.114  -4.182   0.502  0.00  0.00    -0.267 N 
ATOM      7  C   UNL     1       0.682  -2.941   0.432  0.00  0.00    +0.145 A 
ATOM      8  N   UNL     1      -0.066  -1.839   0.361  0.00  0.00    -0.213 NA
ATOM      9  C   UNL     1      -1.390  -1.896   0.361  0.00  0.00    +0.136 A 
ATOM     10  C   UNL     1      -2.034  -3.154   0.437  0.00  0.00    +0.081 A 
ATOM     11  C   UNL     1      -1.230  -4.317   0.501  0.00  0.00    +0.267 A 
ATOM     12  O   UNL     1      -1.742  -5.421   0.569  0.00  0.00    -0.267 OA
ENDROOT
BRANCH  10  13
ATOM     13  C   UNL     1      -3.445  -3.246   0.439  0.00  0.00    +0.037 C 
ATOM     14  C   UNL     1      -4.087  -3.899  -0.574  0.00  0.00    +0.077 C 
ATOM     15  C   UNL     1      -3.561  -4.430  -1.786  0.00  0.00    +0.259 C 
ATOM     16  O   UNL     1      -2.375  -4.337  -2.048  0.00  0.00    -0.269 OA
ATOM     17  N   UNL     1      -4.396  -5.030  -2.617  0.00  0.00    -0.251 N 
ATOM     18  C   UNL     1      -5.713  -5.126  -2.329  0.00  0.00    +0.121 C 
ATOM     19  S   UNL     1      -6.964  -5.845  -3.252  0.00  0.00    -0.027 S 
ATOM     20  S   UNL     1      -5.818  -4.312  -0.743  0.00  0.00    -0.061 S 
BRANCH  17  21
ATOM     21  C   UNL     1      -3.888  -5.593  -3.870  0.00  0.00    +0.151 C 
BRANCH  21  22
ATOM     22  C   UNL     1      -3.586  -4.476  -4.836  0.00  0.00    -0.011 A 
ATOM     23  C   UNL     1      -2.302  -3.973  -4.932  0.00  0.00    +0.006 A 
ATOM     24  C   UNL     1      -2.025  -2.949  -5.818  0.00  0.00    +0.000 A 
ATOM     25  C   UNL     1      -3.032  -2.427  -6.609  0.00  0.00    +0.001 A 
ATOM     26  C   UNL     1      -4.316  -2.929  -6.514  0.00  0.00    +0.020 A 
ATOM     27  C   UNL     1      -4.593  -3.958  -5.631  0.00  0.00    +0.046 A 
ATOM     28 CL   UNL     1      -6.204  -4.595  -5.517  0.00  0.00    -0.083 Cl
ENDBRANCH  21  22
ENDBRANCH  17  21
ENDBRANCH  10  13
BRANCH   9  29
ATOM     29  N   UNL     1      -2.134  -0.739   0.286  0.00  0.00    -0.315 N 
ATOM     30  C   UNL     1      -2.977  -0.729  -0.931  0.00  0.00    +0.106 C 
ATOM     31  C   UNL     1      -3.597   0.615  -1.199  0.00  0.00    +0.019 C 
ATOM     32  C   UNL     1      -2.680   1.393  -2.166  0.00  0.00    +0.002 C 
ATOM     33  C   UNL     1      -1.527   1.972  -1.486  0.00  0.00    +0.002 C 
ATOM     34  C   UNL     1      -0.633   0.895  -0.836  0.00  0.00    +0.019 C 
ATOM     35  C   UNL     1      -1.276   0.455   0.451  0.00  0.00    +0.106 C 
ENDBRANCH   9  29
TORSDOF 4
