REMARK  Name = ZINC19525176
REMARK  9 active torsions:
REMARK  status: ('A' for Active; 'I' for Inactive)
REMARK    1  A    between atoms: C_1  and  C_2
REMARK    2  A    between atoms: C_2  and  C_3
REMARK    3  A    between atoms: C_3  and  S_4
REMARK    4  A    between atoms: S_4  and  N_7
REMARK    5  A    between atoms: C_10  and  C_13
REMARK    6  A    between atoms: N_22  and  C_23
REMARK    7  A    between atoms: C_23  and  C_24
REMARK    8  A    between atoms: C_26  and  C_31
REMARK    9  A    between atoms: C_29  and  C_30
REMARK                            x       y       z     vdW  Elec       q    Type
REMARK                         _______ _______ _______ _____ _____    ______ ____
ROOT
ATOM      1  C   UNL     1      -5.133   1.320   2.691  0.00  0.00    +0.116 A 
ATOM      2  N   UNL     1      -4.400   1.953   1.802  0.00  0.00    -0.326 N 
ATOM      3  C   UNL     1      -3.827   3.116   2.099  0.00  0.00    +0.164 A 
ATOM      4  C   UNL     1      -4.006   3.658   3.385  0.00  0.00    +0.195 A 
ATOM      5  C   UNL     1      -4.800   2.941   4.299  0.00  0.00    +0.303 A 
ATOM      6  N   UNL     1      -5.334   1.792   3.909  0.00  0.00    -0.194 NA
ATOM      7  O   UNL     1      -5.014   3.414   5.550  0.00  0.00    -0.263 OA
ATOM      8  N   UNL     1      -3.331   4.819   3.439  0.00  0.00    -0.122 NA
ATOM      9  N   UNL     1      -2.748   5.046   2.314  0.00  0.00    -0.063 NA
ATOM     10  N   UNL     1      -3.025   3.995   1.426  0.00  0.00    -0.224 N 
ATOM     11  H   UNL     1      -4.255   1.521   0.800  0.00  0.00    +0.169 HD
ENDROOT
BRANCH   1  15
ATOM     12  N   UNL     1      -7.341  -2.290   2.800  0.00  0.00    -0.181 NA
ATOM     13  C   UNL     1      -5.879  -2.433   2.824  0.00  0.00    +0.110 C 
ATOM     14  C   UNL     1      -5.259  -1.095   3.239  0.00  0.00    +0.028 C 
ATOM     15  C   UNL     1      -5.767   0.008   2.308  0.00  0.00    +0.058 C 
ATOM     16  C   UNL     1      -7.288   0.122   2.431  0.00  0.00    +0.028 C 
ATOM     17  C   UNL     1      -7.931  -1.203   2.007  0.00  0.00    +0.110 C 
BRANCH  12  18
ATOM     18  S   UNL     1      -8.306  -3.334   3.650  0.00  0.00    +0.032 S 
ATOM     19  O   UNL     1      -9.547  -3.326   2.958  0.00  0.00    -0.158 OA
ATOM     20  O   UNL     1      -7.543  -4.528   3.755  0.00  0.00    -0.158 OA
BRANCH  18  21
ATOM     21  C   UNL     1      -8.496  -2.568   5.283  0.00  0.00    +0.185 C 
BRANCH  21  23
ATOM     22  C   UNL     1      -9.539  -2.810   7.540  0.00  0.00    +0.005 C 
ATOM     23  C   UNL     1      -9.379  -3.456   6.163  0.00  0.00    +0.021 C 
ENDBRANCH  21  23
ENDBRANCH  18  21
ENDBRANCH  12  18
ENDBRANCH   1  15
BRANCH  10  24
ATOM     24  C   UNL     1      -2.553   3.868   0.045  0.00  0.00    +0.183 C 
BRANCH  24  25
ATOM     25  C   UNL     1      -1.238   3.133   0.030  0.00  0.00    -0.023 A 
ATOM     26  C   UNL     1      -0.050   3.840   0.022  0.00  0.00    +0.009 A 
ATOM     27  C   UNL     1       1.156   3.166   0.008  0.00  0.00    -0.050 A 
ATOM     28  C   UNL     1       1.175   1.783   0.000  0.00  0.00    +0.003 A 
ATOM     29  C   UNL     1      -0.013   1.076   0.008  0.00  0.00    +0.004 A 
ATOM     30  C   UNL     1      -1.219   1.751   0.017  0.00  0.00    -0.046 A 
ATOM     31  C   UNL     1      -2.514   0.980   0.019  0.00  0.00    +0.044 C 
ATOM     32  C   UNL     1       2.451   3.937  -0.001  0.00  0.00    +0.044 C 
ENDBRANCH  24  25
ENDBRANCH  10  24
TORSDOF 6
