REMARK  Name = ZINC45328900
REMARK  7 active torsions:
REMARK  status: ('A' for Active; 'I' for Inactive)
REMARK    1  A    between atoms: C_1  and  C_2
REMARK    2  A    between atoms: C_2  and  C_4
REMARK    3  A    between atoms: C_2  and  O_18
REMARK    4  A    between atoms: N_6  and  N_7
REMARK    5  A    between atoms: C_8  and  C_10
REMARK    6  A    between atoms: N_15  and  C_17
REMARK    7  A    between atoms: O_18  and  C_19
REMARK                            x       y       z     vdW  Elec       q    Type
REMARK                         _______ _______ _______ _____ _____    ______ ____
ROOT
ATOM      1  C   UNL     1       0.693  -0.725   1.266  0.00  0.00    +0.270 C 
ATOM      2  O   UNL     1      -0.005  -1.176   2.149  0.00  0.00    -0.270 OA
ATOM      3  N   UNL     1       2.030  -0.668   1.425  0.00  0.00    -0.231 N 
ATOM      4  H   UNL     1       2.588  -0.307   0.719  0.00  0.00    +0.173 HD
ENDROOT
BRANCH   3   5
ATOM      5  N   UNL     1       2.614  -1.130   2.612  0.00  0.00    -0.229 N 
ATOM      6  C   UNL     1       3.951  -1.073   2.772  0.00  0.00    +0.280 C 
ATOM      7  O   UNL     1       4.650  -0.621   1.886  0.00  0.00    -0.267 OA
ATOM      8  H   UNL     1       2.056  -1.491   3.319  0.00  0.00    +0.173 HD
BRANCH   6   9
ATOM      9  C   UNL     1       4.568  -1.561   4.024  0.00  0.00    +0.147 A 
ATOM     10  C   UNL     1       5.972  -1.495   4.192  0.00  0.00    +0.040 A 
ATOM     11  C   UNL     1       6.504  -1.954   5.360  0.00  0.00    +0.074 A 
ATOM     12  C   UNL     1       5.620  -2.469   6.333  0.00  0.00    +0.267 A 
ATOM     13  O   UNL     1       6.051  -2.890   7.394  0.00  0.00    -0.266 OA
ATOM     14  N   UNL     1       4.297  -2.491   6.083  0.00  0.00    -0.232 N 
ATOM     15  N   UNL     1       3.810  -2.050   4.980  0.00  0.00    -0.164 NA
ATOM     16  C   UNL     1       3.389  -3.027   7.099  0.00  0.00    +0.176 C 
ENDBRANCH   6   9
ENDBRANCH   3   5
BRANCH   1  18
ATOM     17  C   UNL     1       0.290   1.281  -0.136  0.00  0.00    +0.062 C 
ATOM     18  C   UNL     1       0.064  -0.227  -0.010  0.00  0.00    +0.257 C 
BRANCH  18  19
ATOM     19  O   UNL     1      -1.339  -0.499   0.012  0.00  0.00    -0.480 OA
BRANCH  19  20
ATOM     20  C   UNL     1      -1.965  -0.607  -1.189  0.00  0.00    +0.122 A 
ATOM     21  C   UNL     1      -1.255  -0.345  -2.364  0.00  0.00    +0.046 A 
ATOM     22  C   UNL     1      -1.854  -0.444  -3.581  0.00  0.00    +0.012 A 
ATOM     23  C   UNL     1      -3.208  -0.816  -3.662  0.00  0.00    -0.018 A 
ATOM     24  C   UNL     1      -3.858  -0.929  -4.903  0.00  0.00    +0.008 A 
ATOM     25  C   UNL     1      -5.169  -1.292  -4.945  0.00  0.00    +0.001 A 
ATOM     26  C   UNL     1      -5.880  -1.554  -3.775  0.00  0.00    +0.001 A 
ATOM     27  C   UNL     1      -5.283  -1.455  -2.556  0.00  0.00    +0.008 A 
ATOM     28  C   UNL     1      -3.930  -1.083  -2.472  0.00  0.00    -0.014 A 
ATOM     29  C   UNL     1      -3.280  -0.975  -1.232  0.00  0.00    +0.054 A 
ENDBRANCH  19  20
ENDBRANCH  18  19
ENDBRANCH   1  18
TORSDOF 5
