REMARK  Name = ZINC08962284
REMARK  5 active torsions:
REMARK  status: ('A' for Active; 'I' for Inactive)
REMARK    1  A    between atoms: C_1  and  C_2
REMARK    2  A    between atoms: C_2  and  C_24
REMARK    3  A    between atoms: C_8  and  N_14
REMARK    4  A    between atoms: N_14  and  S_15
REMARK    5  A    between atoms: S_15  and  C_18
REMARK                            x       y       z     vdW  Elec       q    Type
REMARK                         _______ _______ _______ _____ _____    ______ ____
ROOT
ATOM      1  C   UNL     1       0.888  -1.980   1.527  0.00  0.00    +0.035 C 
ATOM      2  C   UNL     1       1.027  -0.557   0.983  0.00  0.00    +0.063 C 
ATOM      3  C   UNL     1      -0.004  -0.336  -0.116  0.00  0.00    +0.254 C 
ATOM      4  O   UNL     1      -0.150   1.043  -0.427  0.00  0.00    -0.489 OA
ATOM      5  C   UNL     1       0.987   1.774  -0.556  0.00  0.00    +0.133 A 
ATOM      6  C   UNL     1       1.437   2.176  -1.802  0.00  0.00    +0.048 A 
ATOM      7  C   UNL     1       2.599   2.914  -1.912  0.00  0.00    +0.028 A 
ATOM      8  C   UNL     1       3.326   3.257  -0.776  0.00  0.00    +0.049 A 
ATOM      9  C   UNL     1       2.887   2.863   0.477  0.00  0.00    +0.041 A 
ATOM     10  C   UNL     1       1.713   2.121   0.594  0.00  0.00    +0.080 A 
ATOM     11  C   UNL     1       1.212   1.688   1.912  0.00  0.00    +0.248 C 
ATOM     12  O   UNL     1       1.140   2.476   2.836  0.00  0.00    -0.270 OA
ATOM     13  N   UNL     1       0.834   0.398   2.076  0.00  0.00    -0.303 N 
ATOM     14  C   UNL     1       2.430  -0.376   0.401  0.00  0.00    +0.035 C 
ATOM     15  H   UNL     1       0.437   0.108   2.913  0.00  0.00    +0.150 HD
ENDROOT
BRANCH   8  16
ATOM     16  N   UNL     1       4.504   4.003  -0.901  0.00  0.00    -0.216 N 
ATOM     17  H   UNL     1       5.296   3.745  -0.403  0.00  0.00    +0.174 HD
BRANCH  16  18
ATOM     18  S   UNL     1       4.546   5.324  -1.898  0.00  0.00    +0.072 S 
ATOM     19  O   UNL     1       5.851   5.875  -1.788  0.00  0.00    -0.150 OA
ATOM     20  O   UNL     1       3.995   4.912  -3.141  0.00  0.00    -0.150 OA
BRANCH  18  21
ATOM     21  C   UNL     1       3.438   6.519  -1.226  0.00  0.00    +0.108 A 
ATOM     22  C   UNL     1       2.112   6.528  -1.618  0.00  0.00    +0.029 A 
ATOM     23  C   UNL     1       1.242   7.462  -1.087  0.00  0.00    +0.002 A 
ATOM     24  C   UNL     1       1.700   8.393  -0.173  0.00  0.00    +0.000 A 
ATOM     25  C   UNL     1       3.026   8.387   0.213  0.00  0.00    +0.002 A 
ATOM     26  C   UNL     1       3.896   7.449  -0.313  0.00  0.00    +0.029 A 
ENDBRANCH  18  21
ENDBRANCH  16  18
ENDBRANCH   8  16
TORSDOF 3
