REMARK  Name = ZINC04747615
REMARK  8 active torsions:
REMARK  status: ('A' for Active; 'I' for Inactive)
REMARK    1  A    between atoms: C_1  and  N_2
REMARK    2  A    between atoms: N_2  and  C_3
REMARK    3  A    between atoms: N_2  and  C_4
REMARK    4  A    between atoms: C_8  and  C_10
REMARK    5  A    between atoms: N_12  and  N_13
REMARK    6  A    between atoms: C_14  and  C_15
REMARK    7  A    between atoms: N_19  and  C_20
REMARK    8  A    between atoms: C_23  and  C_26
REMARK                            x       y       z     vdW  Elec       q    Type
REMARK                         _______ _______ _______ _____ _____    ______ ____
ROOT
ATOM      1  N   UNL     1      -4.899   6.499   2.726  0.00  0.00    -0.186 NA
ATOM      2  C   UNL     1      -4.447   5.535   1.977  0.00  0.00    +0.156 C 
ENDROOT
BRANCH   2   3
ATOM      3  C   UNL     1      -5.286   4.981   0.910  0.00  0.00    +0.066 A 
ATOM      4  C   UNL     1      -6.565   5.381   0.590  0.00  0.00    +0.029 A 
ATOM      5  C   UNL     1      -6.989   4.588  -0.487  0.00  0.00    +0.020 A 
ATOM      6  C   UNL     1      -5.984   3.742  -0.802  0.00  0.00    +0.092 A 
ATOM      7  N   UNL     1      -4.939   3.966   0.047  0.00  0.00    -0.315 N 
BRANCH   7   8
ATOM      8  C   UNL     1      -3.720   3.284   0.037  0.00  0.00    +0.047 A 
ATOM      9  C   UNL     1      -3.703   1.893   0.030  0.00  0.00    +0.027 A 
ATOM     10  C   UNL     1      -2.504   1.217   0.021  0.00  0.00    +0.017 A 
ATOM     11  C   UNL     1      -1.302   1.931   0.019  0.00  0.00    +0.063 A 
ATOM     12  C   UNL     1      -1.323   3.329   0.032  0.00  0.00    +0.017 A 
ATOM     13  C   UNL     1      -2.526   3.997   0.035  0.00  0.00    +0.027 A 
BRANCH  11  14
ATOM     14  C   UNL     1      -0.014   1.211   0.009  0.00  0.00    +0.387 C 
ATOM     15  O   UNL     1       0.002  -0.004   0.002  0.00  0.00    -0.241 OA
ATOM     16  O   UNL     1       1.143   1.900   0.001  0.00  0.00    -0.241 OA
ENDBRANCH  11  14
ENDBRANCH   7   8
ENDBRANCH   2   3
BRANCH   1  19
ATOM     17  C   UNL     1      -4.565   8.027   4.521  0.00  0.00    +0.263 C 
ATOM     18  O   UNL     1      -5.683   8.467   4.336  0.00  0.00    -0.268 OA
ATOM     19  N   UNL     1      -4.097   7.029   3.745  0.00  0.00    -0.203 N 
ATOM     20  H   UNL     1      -3.205   6.678   3.893  0.00  0.00    +0.178 HD
BRANCH  17  25
ATOM     21  C   UNL     1      -3.401  10.138   7.407  0.00  0.00    +0.030 A 
ATOM     22  C   UNL     1      -2.124   9.629   7.612  0.00  0.00    +0.023 A 
ATOM     23  C   UNL     1      -1.647   8.605   6.816  0.00  0.00    +0.003 A 
ATOM     24  C   UNL     1      -2.437   8.078   5.814  0.00  0.00    +0.013 A 
ATOM     25  C   UNL     1      -3.719   8.586   5.596  0.00  0.00    +0.040 A 
ATOM     26  C   UNL     1      -4.201   9.619   6.400  0.00  0.00    +0.036 A 
BRANCH  21  28
ATOM     27  C   UNL     1      -5.226  11.708   7.999  0.00  0.00    +0.129 C 
ATOM     28  N   UNL     1      -3.879  11.172   8.215  0.00  0.00    -0.336 N 
ATOM     29  C   UNL     1      -3.035  11.720   9.279  0.00  0.00    +0.129 C 
ENDBRANCH  21  28
ENDBRANCH  17  25
ENDBRANCH   1  19
TORSDOF 6
