REMARK  Name = ZINC55552923
REMARK  6 active torsions:
REMARK  status: ('A' for Active; 'I' for Inactive)
REMARK    1  A    between atoms: C_1  and  C_2
REMARK    2  A    between atoms: C_4  and  C_7
REMARK    3  A    between atoms: C_7  and  N_12
REMARK    4  A    between atoms: C_13  and  C_15
REMARK    5  A    between atoms: C_15  and  C_16
REMARK    6  A    between atoms: C_16  and  C_17
REMARK                            x       y       z     vdW  Elec       q    Type
REMARK                         _______ _______ _______ _____ _____    ______ ____
ROOT
ATOM      1  N   UNL     1      -2.431  -3.059   1.211  0.00  0.00    -0.303 N 
ATOM      2  C   UNL     1      -3.320  -2.046   1.220  0.00  0.00    +0.214 C 
ATOM      3  O   UNL     1      -3.316  -1.228   0.325  0.00  0.00    -0.276 OA
ATOM      4  H   UNL     1      -2.434  -3.713   1.927  0.00  0.00    +0.150 HD
ENDROOT
BRANCH   1   5
ATOM      5  C   UNL     1      -1.460  -3.172   0.119  0.00  0.00    +0.097 C 
ATOM      6  C   UNL     1      -2.183  -3.406  -1.230  0.00  0.00    +0.034 C 
ATOM      7  C   UNL     1      -2.483  -4.925  -1.198  0.00  0.00    +0.003 C 
ATOM      8  C   UNL     1      -1.236  -5.544  -0.534  0.00  0.00    +0.003 C 
ATOM      9  C   UNL     1      -0.585  -4.429   0.303  0.00  0.00    +0.034 C 
BRANCH   5  13
ATOM     10  C   UNL     1      -0.149   1.656  -0.137  0.00  0.00    +0.112 C 
ATOM     11  C   UNL     1      -0.048   0.154  -0.061  0.00  0.00    +0.224 A 
ATOM     12  N   UNL     1      -1.050  -0.678  -0.011  0.00  0.00    -0.194 NA
ATOM     13  C   UNL     1      -0.600  -1.936   0.050  0.00  0.00    +0.195 A 
ATOM     14  N   UNL     1       0.702  -1.919   0.040  0.00  0.00    -0.059 NA
ATOM     15  O   UNL     1       1.088  -0.555  -0.038  0.00  0.00    -0.338 OA
ENDBRANCH   5  13
ENDBRANCH   1   5
BRANCH   2  16
ATOM     16  C   UNL     1      -4.318  -1.929   2.342  0.00  0.00    +0.096 C 
BRANCH  16  17
ATOM     17  C   UNL     1      -5.203  -0.702   2.113  0.00  0.00    +0.022 C 
BRANCH  17  18
ATOM     18  C   UNL     1      -6.297  -0.655   3.182  0.00  0.00    +0.080 C 
ATOM     19  C   UNL     1      -5.658  -0.435   4.553  0.00  0.00    +0.049 C 
ATOM     20  C   UNL     1      -6.726  -0.102   5.563  0.00  0.00    -0.025 A 
ATOM     21  C   UNL     1      -6.589  -0.516   6.874  0.00  0.00    +0.005 A 
ATOM     22  C   UNL     1      -7.561  -0.200   7.805  0.00  0.00    +0.000 A 
ATOM     23  C   UNL     1      -8.672   0.532   7.427  0.00  0.00    +0.002 A 
ATOM     24  C   UNL     1      -8.817   0.944   6.117  0.00  0.00    +0.023 A 
ATOM     25  C   UNL     1      -7.845   0.623   5.178  0.00  0.00    +0.037 A 
ATOM     26  N   UNL     1      -8.007   1.011   3.845  0.00  0.00    -0.285 N 
ATOM     27  C   UNL     1      -7.247   0.473   2.877  0.00  0.00    +0.221 C 
ATOM     28  O   UNL     1      -7.328   0.899   1.744  0.00  0.00    -0.275 OA
ATOM     29  H   UNL     1      -8.675   1.676   3.617  0.00  0.00    +0.155 HD
ENDBRANCH  17  18
ENDBRANCH  16  17
ENDBRANCH   2  16
TORSDOF 5
