REMARK  Name = ZINC00626591
REMARK  10 active torsions:
REMARK  status: ('A' for Active; 'I' for Inactive)
REMARK    1  A    between atoms: C_1  and  C_2
REMARK    2  A    between atoms: C_3  and  C_24
REMARK    3  A    between atoms: C_4  and  C_14
REMARK    4  A    between atoms: C_16  and  O_22
REMARK    5  A    between atoms: C_17  and  O_21
REMARK    6  A    between atoms: O_22  and  C_23
REMARK    7  A    between atoms: C_24  and  O_26
REMARK    8  A    between atoms: O_26  and  C_27
REMARK    9  A    between atoms: C_27  and  C_28
REMARK   10  A    between atoms: C_27  and  C_29
REMARK                            x       y       z     vdW  Elec       q    Type
REMARK                         _______ _______ _______ _____ _____    ______ ____
ROOT
ATOM      1  C   UNL     1       5.176   2.789   2.269  0.00  0.00    +0.061 C 
ATOM      2  C   UNL     1       4.354   2.356   1.082  0.00  0.00    +0.016 C 
ATOM      3  C   UNL     1       3.366   1.459   1.246  0.00  0.00    +0.065 C 
ATOM      4  C   UNL     1       2.522   1.011   0.089  0.00  0.00    +0.092 C 
ATOM      5  C   UNL     1       3.188   1.335  -1.225  0.00  0.00    +0.024 C 
ATOM      6  C   UNL     1       4.189   2.239  -1.286  0.00  0.00    +0.015 C 
ATOM      7  N   UNL     1       4.618   2.877  -0.154  0.00  0.00    -0.321 N 
ATOM      8  C   UNL     1       4.863   2.565  -2.596  0.00  0.00    +0.051 C 
ATOM      9  C   UNL     1       3.864   2.399  -3.743  0.00  0.00    +0.014 C 
ATOM     10  C   UNL     1       3.341   0.959  -3.728  0.00  0.00    +0.080 C 
ATOM     11  C   UNL     1       2.736   0.672  -2.380  0.00  0.00    +0.162 C 
ATOM     12  O   UNL     1       1.842  -0.145  -2.288  0.00  0.00    -0.292 OA
ATOM     13  H   UNL     1       5.179   3.819  -0.245  0.00  0.00    +0.152 HD
ENDROOT
BRANCH   4  14
ATOM     14  C   UNL     1       1.187   1.707   0.152  0.00  0.00    -0.030 A 
ATOM     15  C   UNL     1       0.026   0.964   0.259  0.00  0.00    +0.054 A 
ATOM     16  C   UNL     1      -1.203   1.602   0.312  0.00  0.00    +0.163 A 
ATOM     17  C   UNL     1      -1.265   2.991   0.267  0.00  0.00    +0.177 A 
ATOM     18  C   UNL     1      -0.098   3.731   0.159  0.00  0.00    +0.086 A 
ATOM     19  C   UNL     1       1.126   3.087   0.102  0.00  0.00    +0.028 A 
ATOM     20 CL   UNL     1      -0.171   5.464   0.095  0.00  0.00    -0.080 Cl
BRANCH  17  21
ATOM     21  O   UNL     1      -2.469   3.622   0.323  0.00  0.00    -0.502 OA
ATOM     22  H   UNL     1      -2.517   4.720   0.287  0.00  0.00    +0.292 HD
ENDBRANCH  17  21
BRANCH  16  23
ATOM     23  O   UNL     1      -2.346   0.871   0.412  0.00  0.00    -0.491 OA
ATOM     24  C   UNL     1      -2.206  -0.550   0.458  0.00  0.00    +0.277 C 
ENDBRANCH  16  23
ENDBRANCH   4  14
BRANCH   3  25
ATOM     25  C   UNL     1       3.118   0.927   2.533  0.00  0.00    +0.338 C 
ATOM     26  O   UNL     1       3.859   1.201   3.458  0.00  0.00    -0.245 OA
BRANCH  25  27
ATOM     27  O   UNL     1       2.058   0.117   2.735  0.00  0.00    -0.459 OA
BRANCH  27  28
ATOM     28  C   UNL     1       1.867  -0.383   4.060  0.00  0.00    +0.171 C 
ATOM     29  C   UNL     1       0.982   0.585   4.848  0.00  0.00    +0.052 C 
ATOM     30  C   UNL     1       1.191  -1.754   3.995  0.00  0.00    +0.052 C 
ENDBRANCH  27  28
ENDBRANCH  25  27
ENDBRANCH   3  25
TORSDOF 6
