REMARK  Name = ZINC35742006
REMARK  12 active torsions:
REMARK  status: ('A' for Active; 'I' for Inactive)
REMARK    1  A    between atoms: C_1  and  C_2
REMARK    2  A    between atoms: C_2  and  C_3
REMARK    3  A    between atoms: C_2  and  C_4
REMARK    4  A    between atoms: C_2  and  N_5
REMARK    5  A    between atoms: N_5  and  C_6
REMARK    6  A    between atoms: C_6  and  C_7
REMARK    7  A    between atoms: C_17  and  C_19
REMARK    8  A    between atoms: C_19  and  O_20
REMARK    9  A    between atoms: O_20  and  C_21
REMARK   10  A    between atoms: C_28  and  C_30
REMARK   11  A    between atoms: C_35  and  O_36
REMARK   12  A    between atoms: O_36  and  C_37
REMARK                            x       y       z     vdW  Elec       q    Type
REMARK                         _______ _______ _______ _____ _____    ______ ____
ROOT
ATOM      1  C   UNL     1       2.961  -0.048  -1.128  0.00  0.00    +0.234 C 
ATOM      2  O   UNL     1       2.763  -1.042  -0.461  0.00  0.00    -0.274 OA
ATOM      3  N   UNL     1       4.217   0.409  -1.300  0.00  0.00    -0.289 N 
ATOM      4  C   UNL     1       4.468   1.616  -2.101  0.00  0.00    +0.114 C 
ATOM      5  C   UNL     1       5.282   1.213  -3.341  0.00  0.00    +0.061 C 
ATOM      6  C   UNL     1       6.352   0.258  -2.921  0.00  0.00    -0.004 A 
ATOM      7  C   UNL     1       6.436  -0.445  -1.759  0.00  0.00    -0.014 A 
ATOM      8  C   UNL     1       7.541  -1.282  -1.613  0.00  0.00    +0.013 A 
ATOM      9  C   UNL     1       8.466  -1.359  -2.598  0.00  0.00    +0.046 A 
ATOM     10  S   UNL     1       7.806  -0.227  -3.812  0.00  0.00    -0.101 S 
ATOM     11  C   UNL     1       5.354  -0.289  -0.686  0.00  0.00    +0.144 C 
ENDROOT
BRANCH   1  12
ATOM     12  C   UNL     1       1.802   0.676  -1.763  0.00  0.00    +0.204 C 
BRANCH  12  13
ATOM     13  N   UNL     1       0.553  -0.013  -1.428  0.00  0.00    -0.284 N 
ATOM     14  C   UNL     1       0.003  -0.875  -2.306  0.00  0.00    +0.251 C 
ATOM     15  O   UNL     1      -0.958  -1.545  -1.979  0.00  0.00    -0.270 OA
BRANCH  14  16
ATOM     16  C   UNL     1       0.566  -1.006  -3.663  0.00  0.00    +0.078 A 
ATOM     17  C   UNL     1       1.928  -0.783  -3.883  0.00  0.00    +0.017 A 
ATOM     18  C   UNL     1       2.448  -0.907  -5.153  0.00  0.00    +0.001 A 
ATOM     19  C   UNL     1       1.627  -1.252  -6.214  0.00  0.00    +0.004 A 
ATOM     20  C   UNL     1       0.279  -1.476  -6.010  0.00  0.00    +0.046 A 
ATOM     21  C   UNL     1      -0.260  -1.360  -4.738  0.00  0.00    +0.132 A 
BRANCH  21  22
ATOM     22  O   UNL     1      -1.583  -1.584  -4.536  0.00  0.00    -0.494 OA
ATOM     23  C   UNL     1      -2.362  -1.942  -5.678  0.00  0.00    +0.277 C 
ENDBRANCH  21  22
ENDBRANCH  14  16
BRANCH  13  25
ATOM     24  C   UNL     1      -0.634   1.669  -0.106  0.00  0.00    +0.031 C 
ATOM     25  C   UNL     1      -0.098   0.236  -0.139  0.00  0.00    +0.030 C 
ATOM     26  C   UNL     1       0.916   0.044   0.990  0.00  0.00    +0.031 C 
ATOM     27  C   UNL     1      -1.257  -0.746   0.045  0.00  0.00    +0.031 C 
ENDBRANCH  13  25
ENDBRANCH  12  13
ENDBRANCH   1  12
BRANCH  11  28
ATOM     28  C   UNL     1       5.895   0.532   0.485  0.00  0.00    +0.256 C 
BRANCH  28  29
ATOM     29  O   UNL     1       6.431   1.763  -0.004  0.00  0.00    -0.490 OA
BRANCH  29  30
ATOM     30  C   UNL     1       6.957   2.616   0.915  0.00  0.00    +0.121 A 
ATOM     31  C   UNL     1       6.961   2.272   2.259  0.00  0.00    +0.047 A 
ATOM     32  C   UNL     1       7.495   3.140   3.192  0.00  0.00    +0.023 A 
ATOM     33  C   UNL     1       8.025   4.352   2.786  0.00  0.00    +0.041 A 
ATOM     34  C   UNL     1       8.021   4.697   1.446  0.00  0.00    +0.023 A 
ATOM     35  C   UNL     1       7.494   3.829   0.510  0.00  0.00    +0.047 A 
ATOM     36 CL   UNL     1       8.695   5.442   3.960  0.00  0.00    -0.084 Cl
ENDBRANCH  29  30
ENDBRANCH  28  29
ENDBRANCH  11  28
TORSDOF 8
