REMARK  Name = ZINC07956694
REMARK  4 active torsions:
REMARK  status: ('A' for Active; 'I' for Inactive)
REMARK    1  A    between atoms: C_1  and  C_2
REMARK    2  A    between atoms: C_3  and  N_11
REMARK    3  A    between atoms: C_7  and  N_8
REMARK    4  A    between atoms: C_12  and  C_14
REMARK                            x       y       z     vdW  Elec       q    Type
REMARK                         _______ _______ _______ _____ _____    ______ ____
ROOT
ATOM      1  N   UNL     1       1.101   1.821   0.015  0.00  0.00    -0.282 N 
ATOM      2  C   UNL     1      -0.034   1.095   0.033  0.00  0.00    +0.258 C 
ATOM      3  O   UNL     1       0.020  -0.117   0.017  0.00  0.00    -0.271 OA
ATOM      4  H   UNL     1       1.058   2.787  -0.056  0.00  0.00    +0.155 HD
ENDROOT
BRANCH   2   5
ATOM      5  C   UNL     1      -1.372   1.789   0.065  0.00  0.00    +0.263 C 
ATOM      6  C   UNL     1      -1.579   2.517   1.415  0.00  0.00    +0.093 C 
ATOM      7  C   UNL     1      -3.064   2.308   1.655  0.00  0.00    -0.002 A 
ATOM      8  C   UNL     1      -3.956   2.919   2.509  0.00  0.00    +0.007 A 
ATOM      9  C   UNL     1      -5.287   2.541   2.505  0.00  0.00    +0.000 A 
ATOM     10  C   UNL     1      -5.716   1.549   1.642  0.00  0.00    +0.004 A 
ATOM     11  C   UNL     1      -4.824   0.934   0.789  0.00  0.00    +0.046 A 
ATOM     12  C   UNL     1      -3.482   1.306   0.790  0.00  0.00    +0.125 A 
ATOM     13  O   UNL     1      -2.443   0.831   0.048  0.00  0.00    -0.479 OA
ENDBRANCH   2   5
BRANCH   1  16
ATOM     14  C   UNL     1       3.372   3.143  -1.077  0.00  0.00    +0.048 C 
ATOM     15  C   UNL     1       3.477   1.790  -0.422  0.00  0.00    +0.001 A 
ATOM     16  C   UNL     1       2.342   1.180   0.098  0.00  0.00    +0.039 A 
ATOM     17  C   UNL     1       2.442  -0.069   0.696  0.00  0.00    +0.024 A 
ATOM     18  C   UNL     1       3.668  -0.699   0.777  0.00  0.00    +0.004 A 
ATOM     19  C   UNL     1       4.796  -0.087   0.264  0.00  0.00    +0.033 A 
ATOM     20  C   UNL     1       4.701   1.158  -0.332  0.00  0.00    +0.131 A 
BRANCH  20  21
ATOM     21  N   UNL     1       5.912   1.810  -0.880  0.00  0.00    +0.057 N 
ATOM     22  O   UNL     1       6.782   1.137  -1.403  0.00  0.00    -0.126 OA
ATOM     23  O   UNL     1       6.037   3.019  -0.809  0.00  0.00    -0.126 OA
ENDBRANCH  20  21
ENDBRANCH   1  16
TORSDOF 3
