REMARK  Name = ZINC21726184
REMARK  4 active torsions:
REMARK  status: ('A' for Active; 'I' for Inactive)
REMARK    1  A    between atoms: C_1  and  C_2
REMARK    2  A    between atoms: C_20  and  C_22
REMARK    3  A    between atoms: C_26  and  O_28
REMARK    4  A    between atoms: O_28  and  C_29
REMARK                            x       y       z     vdW  Elec       q    Type
REMARK                         _______ _______ _______ _____ _____    ______ ____
ROOT
ATOM      1  C   UNL     1       5.599  -6.283  -0.810  0.00  0.00    +0.068 C 
ATOM      2  C   UNL     1       4.379  -5.408  -0.678  0.00  0.00    +0.066 A 
ATOM      3  C   UNL     1       3.087  -5.848  -0.431  0.00  0.00    +0.023 A 
ATOM      4  C   UNL     1       2.270  -4.750  -0.373  0.00  0.00    +0.135 A 
ATOM      5  N   UNL     1       3.036  -3.660  -0.596  0.00  0.00    -0.193 N 
ATOM      6  N   UNL     1       4.358  -4.099  -0.777  0.00  0.00    -0.168 NA
ATOM      7  C   UNL     1       2.597  -2.342  -0.633  0.00  0.00    +0.196 A 
ATOM      8  N   UNL     1       1.382  -1.875  -0.472  0.00  0.00    -0.221 NA
ATOM      9  C   UNL     1       1.096  -0.557  -0.535  0.00  0.00    +0.081 A 
ATOM     10  C   UNL     1      -0.161   0.073  -0.379  0.00  0.00    +0.029 A 
ATOM     11  C   UNL     1      -0.277   1.435  -0.473  0.00  0.00    +0.002 A 
ATOM     12  C   UNL     1       0.824   2.242  -0.723  0.00  0.00    +0.001 A 
ATOM     13  C   UNL     1       2.068   1.660  -0.880  0.00  0.00    +0.017 A 
ATOM     14  C   UNL     1       2.195   0.297  -0.787  0.00  0.00    +0.041 A 
ATOM     15  S   UNL     1       3.544  -0.853  -0.914  0.00  0.00    -0.048 S 
ATOM     16  N   UNL     1       0.899  -4.865  -0.149  0.00  0.00    -0.270 N 
ATOM     17  C   UNL     1       0.419  -6.061   0.253  0.00  0.00    +0.219 C 
ATOM     18  O   UNL     1      -0.781  -6.230   0.291  0.00  0.00    -0.275 OA
ATOM     19  C   UNL     1       1.327  -7.189   0.655  0.00  0.00    +0.109 C 
ATOM     20  C   UNL     1       2.566  -7.251  -0.245  0.00  0.00    +0.063 C 
ATOM     21  H   UNL     1       0.242  -3.995  -0.301  0.00  0.00    +0.156 HD
ENDROOT
BRANCH  20  22
ATOM     22  C   UNL     1       2.194  -7.836  -1.583  0.00  0.00    -0.036 A 
ATOM     23  C   UNL     1       1.226  -7.224  -2.359  0.00  0.00    +0.004 A 
ATOM     24  C   UNL     1       0.882  -7.759  -3.587  0.00  0.00    +0.004 A 
ATOM     25  C   UNL     1       1.505  -8.905  -4.041  0.00  0.00    +0.045 A 
ATOM     26  C   UNL     1       2.476  -9.521  -3.264  0.00  0.00    +0.121 A 
ATOM     27  C   UNL     1       2.823  -8.980  -2.034  0.00  0.00    +0.050 A 
BRANCH  26  28
ATOM     28  O   UNL     1       3.090 -10.649  -3.709  0.00  0.00    -0.489 OA
BRANCH  28  29
ATOM     29  C   UNL     1       2.777 -11.077  -5.036  0.00  0.00    +0.173 C 
ATOM     30  C   UNL     1       1.518 -11.968  -5.021  0.00  0.00    +0.044 C 
ATOM     31  C   UNL     1       1.807 -13.051  -6.091  0.00  0.00    +0.004 C 
ATOM     32  C   UNL     1       3.319 -13.328  -5.899  0.00  0.00    +0.004 C 
ATOM     33  C   UNL     1       3.922 -11.941  -5.594  0.00  0.00    +0.044 C 
ENDBRANCH  28  29
ENDBRANCH  26  28
ENDBRANCH  20  22
TORSDOF 3
