REMARK  Name = ZINC29836033
REMARK  13 active torsions:
REMARK  status: ('A' for Active; 'I' for Inactive)
REMARK    1  A    between atoms: C_1  and  N_2
REMARK    2  A    between atoms: N_2  and  C_3
REMARK    3  A    between atoms: N_2  and  C_4
REMARK    4  A    between atoms: C_4  and  C_6
REMARK    5  A    between atoms: C_4  and  C_26
REMARK    6  A    between atoms: C_6  and  N_7
REMARK    7  A    between atoms: C_8  and  C_10
REMARK    8  A    between atoms: C_10  and  C_12
REMARK    9  A    between atoms: C_10  and  N_16
REMARK   10  A    between atoms: C_12  and  C_13
REMARK   11  A    between atoms: C_13  and  S_14
REMARK   12  A    between atoms: S_14  and  C_15
REMARK   13  A    between atoms: C_17  and  C_19
REMARK                            x       y       z     vdW  Elec       q    Type
REMARK                         _______ _______ _______ _____ _____    ______ ____
ROOT
ATOM      1  N   UNL     1      -0.029   1.448   0.481  0.00  0.00    -0.315 N 
ATOM      2  C   UNL     1      -0.071   0.106   0.600  0.00  0.00    +0.233 C 
ATOM      3  O   UNL     1       0.918  -0.555   0.367  0.00  0.00    -0.274 OA
ATOM      4  H   UNL     1      -0.927   2.047   0.692  0.00  0.00    +0.149 HD
ENDROOT
BRANCH   1   5
ATOM      5  C   UNL     1       1.212   2.108   0.069  0.00  0.00    +0.093 C 
BRANCH   5   6
ATOM      6  C   UNL     1       0.951   3.601  -0.139  0.00  0.00    -0.021 C 
BRANCH   6   7
ATOM      7  C   UNL     1       2.241   4.291  -0.501  0.00  0.00    -0.057 A 
ATOM      8  C   UNL     1       2.767   4.148  -1.772  0.00  0.00    +0.002 A 
ATOM      9  C   UNL     1       3.947   4.784  -2.108  0.00  0.00    +0.003 A 
ATOM     10  C   UNL     1       4.609   5.555  -1.170  0.00  0.00    +0.038 A 
ATOM     11  C   UNL     1       4.085   5.694   0.104  0.00  0.00    +0.124 A 
ATOM     12  C   UNL     1       2.900   5.061   0.437  0.00  0.00    +0.040 A 
ATOM     13  F   UNL     1       4.731   6.447   1.021  0.00  0.00    -0.205 F 
ENDBRANCH   6   7
BRANCH   6  15
ATOM     14  C   UNL     1       0.051   2.675  -2.187  0.00  0.00    -0.096 C 
ATOM     15  N   UNL     1      -0.023   3.782  -1.224  0.00  0.00    +0.382 N 
ATOM     16  C   UNL     1      -1.384   3.926  -0.691  0.00  0.00    -0.096 C 
ATOM     17  H   UNL     1       0.232   4.710  -1.756  0.00  0.00    -0.082 HD
ENDBRANCH   6  15
ENDBRANCH   5   6
ENDBRANCH   1   5
BRANCH   2  18
ATOM     18  C   UNL     1      -1.349  -0.573   1.024  0.00  0.00    +0.160 C 
BRANCH  18  19
ATOM     19  N   UNL     1      -1.136  -2.022   1.078  0.00  0.00    -0.300 N 
ATOM     20  C   UNL     1      -2.180  -2.861   0.932  0.00  0.00    +0.246 C 
ATOM     21  O   UNL     1      -3.298  -2.417   0.755  0.00  0.00    -0.270 OA
ATOM     22  H   UNL     1      -0.125  -2.424   1.239  0.00  0.00    +0.150 HD
BRANCH  20  23
ATOM     23  C   UNL     1      -1.966  -4.323   0.987  0.00  0.00    +0.051 A 
ATOM     24  C   UNL     1      -0.683  -4.837   1.185  0.00  0.00    +0.014 A 
ATOM     25  C   UNL     1      -0.491  -6.201   1.240  0.00  0.00    +0.001 A 
ATOM     26  C   UNL     1      -1.565  -7.061   1.090  0.00  0.00    +0.001 A 
ATOM     27  C   UNL     1      -2.838  -6.560   0.889  0.00  0.00    +0.016 A 
ATOM     28  C   UNL     1      -3.046  -5.196   0.836  0.00  0.00    +0.030 A 
ATOM     29 BR   UNL     1      -4.787  -4.512   0.560  0.00  0.00    -0.050 Br
ENDBRANCH  20  23
ENDBRANCH  18  19
BRANCH  18  30
ATOM     30  C   UNL     1      -1.762  -0.065   2.406  0.00  0.00    +0.042 C 
BRANCH  30  31
ATOM     31  C   UNL     1      -3.121  -0.660   2.783  0.00  0.00    +0.071 C 
BRANCH  31  32
ATOM     32  S   UNL     1      -3.611  -0.058   4.422  0.00  0.00    -0.164 S 
ATOM     33  C   UNL     1      -5.219  -0.844   4.715  0.00  0.00    +0.084 C 
ENDBRANCH  31  32
ENDBRANCH  30  31
ENDBRANCH  18  30
ENDBRANCH   2  18
TORSDOF 10
