REMARK  Name = ZINC31836940
REMARK  6 active torsions:
REMARK  status: ('A' for Active; 'I' for Inactive)
REMARK    1  A    between atoms: C_1  and  C_2
REMARK    2  A    between atoms: C_2  and  C_3
REMARK    3  A    between atoms: C_2  and  N_4
REMARK    4  A    between atoms: C_5  and  N_9
REMARK    5  A    between atoms: C_10  and  C_12
REMARK    6  A    between atoms: C_12  and  N_13
REMARK                            x       y       z     vdW  Elec       q    Type
REMARK                         _______ _______ _______ _____ _____    ______ ____
ROOT
ATOM      1  N   UNL     1       5.695   3.524  -0.032  0.00  0.00    -0.215 N 
ATOM      2  C   UNL     1       6.156   4.128   1.082  0.00  0.00    +0.251 C 
ATOM      3  O   UNL     1       5.937   3.812   2.232  0.00  0.00    -0.272 OA
ATOM      4  C   UNL     1       7.002   5.283   0.596  0.00  0.00    +0.138 C 
ATOM      5  C   UNL     1       8.445   5.112   1.055  0.00  0.00    +0.040 C 
ATOM      6  C   UNL     1       8.513   5.399   2.561  0.00  0.00    +0.008 C 
ATOM      7  C   UNL     1       8.262   6.889   2.781  0.00  0.00    +0.035 C 
ATOM      8  C   UNL     1       7.002   7.325   2.081  0.00  0.00    -0.042 A 
ATOM      9  C   UNL     1       6.424   6.587   1.071  0.00  0.00    -0.012 A 
ATOM     10  C   UNL     1       5.265   7.047   0.461  0.00  0.00    +0.006 A 
ATOM     11  C   UNL     1       4.686   8.235   0.859  0.00  0.00    +0.000 A 
ATOM     12  C   UNL     1       5.265   8.974   1.874  0.00  0.00    +0.000 A 
ATOM     13  C   UNL     1       6.417   8.519   2.481  0.00  0.00    +0.004 A 
ATOM     14  N   UNL     1       6.918   5.193  -0.868  0.00  0.00    -0.281 N 
ATOM     15  C   UNL     1       6.136   4.131  -1.141  0.00  0.00    +0.310 C 
ATOM     16  O   UNL     1       5.860   3.766  -2.267  0.00  0.00    -0.252 OA
ATOM     17  H   UNL     1       7.446   5.926  -1.496  0.00  0.00    +0.152 HD
ENDROOT
BRANCH   1  18
ATOM     18  C   UNL     1       4.825   2.345  -0.030  0.00  0.00    +0.214 C 
BRANCH  18  20
ATOM     19  N   UNL     1       2.399   1.865  -0.010  0.00  0.00    -0.269 N 
ATOM     20  C   UNL     1       3.384   2.785  -0.015  0.00  0.00    +0.236 C 
ATOM     21  O   UNL     1       3.110   3.966  -0.006  0.00  0.00    -0.274 OA
ATOM     22  H   UNL     1       2.647   0.793  -0.018  0.00  0.00    +0.156 HD
BRANCH  19  24
ATOM     23  N   UNL     1      -0.018   1.461   0.010  0.00  0.00    -0.248 N 
ATOM     24  C   UNL     1       1.065   2.272   0.004  0.00  0.00    +0.123 A 
ATOM     25  C   UNL     1       0.616   3.556   0.014  0.00  0.00    +0.065 A 
ATOM     26  C   UNL     1      -0.781   3.522   0.027  0.00  0.00    +0.136 A 
ATOM     27  N   UNL     1      -1.161   2.269   0.019  0.00  0.00    -0.178 NA
BRANCH  23  29
ATOM     28  C   UNL     1      -0.700  -0.530   1.255  0.00  0.00    +0.032 C 
ATOM     29  C   UNL     1       0.002  -0.004   0.002  0.00  0.00    +0.103 C 
ATOM     30  C   UNL     1      -0.724  -0.517  -1.243  0.00  0.00    +0.032 C 
ENDBRANCH  23  29
ENDBRANCH  19  24
ENDBRANCH  18  20
ENDBRANCH   1  18
TORSDOF 4
