REMARK  Name = ZINC40685610
REMARK  7 active torsions:
REMARK  status: ('A' for Active; 'I' for Inactive)
REMARK    1  A    between atoms: C_1  and  C_2
REMARK    2  A    between atoms: C_6  and  N_8
REMARK    3  A    between atoms: C_10  and  N_29
REMARK    4  A    between atoms: C_11  and  N_15
REMARK    5  A    between atoms: N_15  and  C_16
REMARK    6  A    between atoms: C_16  and  C_17
REMARK    7  A    between atoms: C_16  and  C_23
REMARK                            x       y       z     vdW  Elec       q    Type
REMARK                         _______ _______ _______ _____ _____    ______ ____
ROOT
ATOM      1  N   UNL     1       0.050  -2.637   2.415  0.00  0.00    -0.283 N 
ATOM      2  C   UNL     1      -0.036  -4.025   2.467  0.00  0.00    +0.150 A 
ATOM      3  C   UNL     1      -0.133  -4.683   3.694  0.00  0.00    +0.106 A 
ATOM      4  C   UNL     1      -0.216  -6.077   3.689  0.00  0.00    +0.145 A 
ATOM      5  N   UNL     1      -0.201  -6.720   2.524  0.00  0.00    -0.219 NA
ATOM      6  C   UNL     1      -0.108  -6.059   1.387  0.00  0.00    +0.225 A 
ATOM      7  N   UNL     1      -0.033  -4.744   1.347  0.00  0.00    -0.219 NA
ATOM      8  H   UNL     1       0.118  -2.124   3.235  0.00  0.00    +0.155 HD
ENDROOT
BRANCH   1  14
ATOM      9  C   UNL     1       0.052  -2.966  -2.362  0.00  0.00    +0.065 C 
ATOM     10  C   UNL     1       0.039  -2.115  -1.119  0.00  0.00    +0.040 A 
ATOM     11  C   UNL     1       0.017  -0.739  -1.234  0.00  0.00    +0.023 A 
ATOM     12  C   UNL     1       0.005   0.041  -0.086  0.00  0.00    +0.005 A 
ATOM     13  C   UNL     1       0.016  -0.595   1.143  0.00  0.00    +0.044 A 
ATOM     14  C   UNL     1       0.038  -1.985   1.186  0.00  0.00    +0.124 A 
ATOM     15  N   UNL     1       0.044  -2.693   0.067  0.00  0.00    -0.237 NA
ENDBRANCH   1  14
BRANCH   3  16
ATOM     16  N   UNL     1      -0.145  -3.964   4.899  0.00  0.00    -0.353 N 
ATOM     17  H   UNL     1      -0.086  -2.996   4.887  0.00  0.00    +0.143 HD
ATOM     18  H   UNL     1      -0.213  -4.435   5.745  0.00  0.00    +0.143 HD
ENDBRANCH   3  16
BRANCH   4  19
ATOM     19  N   UNL     1      -0.314  -6.782   4.883  0.00  0.00    -0.317 N 
ATOM     20  H   UNL     1      -0.324  -6.306   5.728  0.00  0.00    +0.148 HD
BRANCH  19  21
ATOM     21  C   UNL     1      -0.401  -8.245   4.864  0.00  0.00    +0.132 C 
BRANCH  21  22
ATOM     22  C   UNL     1       0.108  -8.794   6.172  0.00  0.00    -0.023 A 
ATOM     23  C   UNL     1      -0.207  -8.158   7.358  0.00  0.00    +0.006 A 
ATOM     24  C   UNL     1       0.260  -8.663   8.558  0.00  0.00    +0.000 A 
ATOM     25  C   UNL     1       1.041  -9.803   8.571  0.00  0.00    +0.000 A 
ATOM     26  C   UNL     1       1.355 -10.440   7.385  0.00  0.00    +0.000 A 
ATOM     27  C   UNL     1       0.884  -9.938   6.186  0.00  0.00    +0.006 A 
ENDBRANCH  21  22
BRANCH  21  28
ATOM     28  C   UNL     1      -1.836  -8.660   4.669  0.00  0.00    -0.023 A 
ATOM     29  C   UNL     1      -2.849  -7.969   5.308  0.00  0.00    +0.006 A 
ATOM     30  C   UNL     1      -4.165  -8.350   5.129  0.00  0.00    +0.000 A 
ATOM     31  C   UNL     1      -4.470  -9.422   4.311  0.00  0.00    +0.000 A 
ATOM     32  C   UNL     1      -3.457 -10.112   3.671  0.00  0.00    +0.000 A 
ATOM     33  C   UNL     1      -2.141  -9.729   3.847  0.00  0.00    +0.006 A 
ENDBRANCH  21  28
ENDBRANCH  19  21
ENDBRANCH   4  19
TORSDOF 6
