REMARK  Name = ZINC12475334
REMARK  7 active torsions:
REMARK  status: ('A' for Active; 'I' for Inactive)
REMARK    1  A    between atoms: C_1  and  C_2
REMARK    2  A    between atoms: C_7  and  N_8
REMARK    3  A    between atoms: C_12  and  S_13
REMARK    4  A    between atoms: S_13  and  C_14
REMARK    5  A    between atoms: C_14  and  C_15
REMARK    6  A    between atoms: C_19  and  C_25
REMARK    7  A    between atoms: C_20  and  C_24
REMARK                            x       y       z     vdW  Elec       q    Type
REMARK                         _______ _______ _______ _____ _____    ______ ____
ROOT
ATOM      1  C   UNL     1       3.553   6.377   3.443  0.00  0.00    +0.153 C 
ENDROOT
BRANCH   1   2
ATOM      2  C   UNL     1       3.143   6.834   4.819  0.00  0.00    +0.143 A 
ATOM      3  N   UNL     1       2.446   7.949   4.949  0.00  0.00    -0.216 NA
ATOM      4  C   UNL     1       2.053   8.401   6.128  0.00  0.00    +0.128 A 
ATOM      5  C   UNL     1       2.397   7.671   7.300  0.00  0.00    +0.050 A 
ATOM      6  C   UNL     1       2.095   7.954   8.692  0.00  0.00    -0.028 A 
ATOM      7  C   UNL     1       2.530   7.111   9.641  0.00  0.00    -0.008 A 
ATOM      8  S   UNL     1       3.392   5.854   8.717  0.00  0.00    -0.074 S 
ATOM      9  C   UNL     1       3.145   6.494   7.082  0.00  0.00    +0.114 A 
ATOM     10  N   UNL     1       3.492   6.115   5.868  0.00  0.00    -0.224 NA
ATOM     11  C   UNL     1       2.335   7.205  11.132  0.00  0.00    +0.052 C 
ATOM     12  C   UNL     1       1.301   9.179   9.067  0.00  0.00    +0.045 C 
ATOM     13  N   UNL     1       1.320   9.570   6.221  0.00  0.00    -0.343 N 
ATOM     14  H   UNL     1       1.309  10.071   7.052  0.00  0.00    +0.144 HD
ATOM     15  H   UNL     1       0.816   9.889   5.456  0.00  0.00    +0.144 HD
ENDBRANCH   1   2
BRANCH   1  16
ATOM     16  S   UNL     1       2.271   5.298   2.759  0.00  0.00    -0.078 S 
BRANCH  16  21
ATOM     17  N   UNL     1       2.451   4.125   0.222  0.00  0.00    -0.277 N 
ATOM     18  C   UNL     1       3.361   4.125  -0.802  0.00  0.00    +0.230 A 
ATOM     19  N   UNL     1       4.355   4.885  -0.436  0.00  0.00    -0.137 NA
ATOM     20  N   UNL     1       4.143   5.356   0.741  0.00  0.00    -0.122 NA
ATOM     21  C   UNL     1       2.989   4.923   1.194  0.00  0.00    +0.196 A 
BRANCH  17  28
ATOM     22  C   UNL     1       0.059   5.665   0.326  0.00  0.00    +0.046 C 
ATOM     23  C   UNL     1       0.035   4.159   0.317  0.00  0.00    -0.027 A 
ATOM     24  C   UNL     1      -1.171   3.486   0.361  0.00  0.00    +0.005 A 
ATOM     25  C   UNL     1      -1.194   2.104   0.348  0.00  0.00    +0.000 A 
ATOM     26  C   UNL     1      -0.010   1.390   0.302  0.00  0.00    +0.002 A 
ATOM     27  C   UNL     1       1.199   2.057   0.258  0.00  0.00    +0.026 A 
ATOM     28  C   UNL     1       1.225   3.445   0.266  0.00  0.00    +0.053 A 
ENDBRANCH  17  28
ENDBRANCH  16  21
ENDBRANCH   1  16
TORSDOF 4
