REMARK  Name = ZINC66803309
REMARK  3 active torsions:
REMARK  status: ('A' for Active; 'I' for Inactive)
REMARK    1  A    between atoms: C_3  and  N_16
REMARK    2  A    between atoms: C_6  and  C_7
REMARK    3  A    between atoms: C_17  and  C_19
REMARK                            x       y       z     vdW  Elec       q    Type
REMARK                         _______ _______ _______ _____ _____    ______ ____
ROOT
ATOM      1  C   UNL     1       0.064   1.133  -0.380  0.00  0.00    +0.013 A 
ATOM      2  C   UNL     1       1.197   1.917  -0.330  0.00  0.00    +0.024 A 
ATOM      3  C   UNL     1       2.434   1.337  -0.071  0.00  0.00    +0.034 A 
ATOM      4  C   UNL     1       2.532  -0.035   0.136  0.00  0.00    +0.024 A 
ATOM      5  C   UNL     1       1.403  -0.823   0.086  0.00  0.00    +0.013 A 
ATOM      6  C   UNL     1       0.160  -0.244  -0.172  0.00  0.00    +0.019 A 
ENDROOT
BRANCH   6   7
ATOM      7  C   UNL     1      -1.054  -1.087  -0.225  0.00  0.00    +0.164 A 
ATOM      8  N   UNL     1      -2.216  -0.761  -0.756  0.00  0.00    -0.129 NA
ATOM      9  N   UNL     1      -3.045  -1.738  -0.624  0.00  0.00    -0.134 NA
ATOM     10  C   UNL     1      -2.469  -2.728  -0.011  0.00  0.00    +0.134 A 
ATOM     11  N   UNL     1      -1.186  -2.351   0.259  0.00  0.00    -0.311 N 
ATOM     12  C   UNL     1      -0.197  -3.184   0.941  0.00  0.00    +0.125 C 
ATOM     13  C   UNL     1      -0.926  -4.327   1.657  0.00  0.00    +0.022 C 
ATOM     14  C   UNL     1      -1.881  -5.019   0.680  0.00  0.00    +0.009 C 
ATOM     15  C   UNL     1      -3.047  -4.071   0.358  0.00  0.00    +0.076 C 
ENDBRANCH   6   7
BRANCH   3  16
ATOM     16  N   UNL     1       3.580   2.133  -0.021  0.00  0.00    -0.280 N 
ATOM     17  C   UNL     1       3.505   3.394   0.450  0.00  0.00    +0.267 C 
ATOM     18  O   UNL     1       2.460   3.807   0.917  0.00  0.00    -0.268 OA
ATOM     19  H   UNL     1       4.431   1.779  -0.324  0.00  0.00    +0.155 HD
BRANCH  17  20
ATOM     20  C   UNL     1       4.686   4.271   0.398  0.00  0.00    +0.133 A 
ATOM     21  C   UNL     1       4.656   5.556   0.869  0.00  0.00    +0.079 A 
ATOM     22  S   UNL     1       6.222   6.087   0.574  0.00  0.00    -0.083 S 
ATOM     23  C   UNL     1       6.854   4.696  -0.121  0.00  0.00    +0.156 A 
ATOM     24  N   UNL     1       5.853   3.857  -0.106  0.00  0.00    -0.243 NA
ENDBRANCH  17  20
ENDBRANCH   3  16
TORSDOF 3
