REMARK  Name = ZINC66353533
REMARK  7 active torsions:
REMARK  status: ('A' for Active; 'I' for Inactive)
REMARK    1  A    between atoms: C_1  and  C_2
REMARK    2  A    between atoms: C_5  and  N_9
REMARK    3  A    between atoms: C_10  and  C_12
REMARK    4  A    between atoms: C_12  and  N_13
REMARK    5  A    between atoms: C_14  and  C_16
REMARK    6  A    between atoms: N_19  and  C_24
REMARK    7  A    between atoms: C_20  and  C_21
REMARK                            x       y       z     vdW  Elec       q    Type
REMARK                         _______ _______ _______ _____ _____    ______ ____
ROOT
ATOM      1  C   UNL     1      -0.136  -6.343  -1.191  0.00  0.00    +0.200 C 
ENDROOT
BRANCH   1   3
ATOM      2  N   UNL     1       0.057  -4.171  -0.023  0.00  0.00    -0.283 N 
ATOM      3  C   UNL     1      -0.042  -4.839  -1.190  0.00  0.00    +0.234 C 
ATOM      4  O   UNL     1      -0.055  -4.230  -2.238  0.00  0.00    -0.274 OA
ATOM      5  H   UNL     1       0.149  -4.660   0.809  0.00  0.00    +0.155 HD
BRANCH   2  10
ATOM      6  C   UNL     1      -0.064   1.502   0.016  0.00  0.00    +0.044 C 
ATOM      7  C   UNL     1      -0.031  -0.005   0.006  0.00  0.00    -0.049 A 
ATOM      8  C   UNL     1      -0.622  -0.701  -1.033  0.00  0.00    +0.005 A 
ATOM      9  C   UNL     1      -0.594  -2.082  -1.045  0.00  0.00    +0.025 A 
ATOM     10  C   UNL     1       0.028  -2.772  -0.014  0.00  0.00    +0.052 A 
ATOM     11  C   UNL     1       0.621  -2.070   1.029  0.00  0.00    +0.062 A 
ATOM     12  C   UNL     1       0.595  -0.688   1.032  0.00  0.00    +0.025 A 
ATOM     13 CL   UNL     1       1.401  -2.928   2.321  0.00  0.00    -0.082 Cl
ENDBRANCH   2  10
ENDBRANCH   1   3
BRANCH   1  14
ATOM     14  N   UNL     1      -0.234  -6.825  -2.571  0.00  0.00    -0.303 N 
ATOM     15  C   UNL     1      -0.329  -8.147  -2.818  0.00  0.00    +0.248 C 
ATOM     16  O   UNL     1      -0.333  -8.939  -1.895  0.00  0.00    -0.270 OA
ATOM     17  H   UNL     1      -0.231  -6.193  -3.307  0.00  0.00    +0.150 HD
BRANCH  15  18
ATOM     18  C   UNL     1      -0.427  -8.632  -4.206  0.00  0.00    +0.083 A 
ATOM     19  C   UNL     1      -0.429  -7.837  -5.374  0.00  0.00    +0.148 A 
ATOM     20  N   UNL     1      -0.531  -8.632  -6.404  0.00  0.00    -0.179 NA
ATOM     21  N   UNL     1      -0.598  -9.954  -5.950  0.00  0.00    -0.265 N 
ATOM     22  C   UNL     1      -0.529  -9.948  -4.609  0.00  0.00    +0.116 A 
ATOM     23  C   UNL     1      -0.718 -11.144  -6.796  0.00  0.00    +0.173 C 
BRANCH  22  24
ATOM     24  C   UNL     1      -0.561 -11.157  -3.709  0.00  0.00    +0.390 C 
ATOM     25  F   UNL     1      -0.001 -12.251  -4.377  0.00  0.00    -0.202 F 
ATOM     26  F   UNL     1       0.173 -10.893  -2.548  0.00  0.00    -0.202 F 
ENDBRANCH  22  24
ENDBRANCH  15  18
ENDBRANCH   1  14
TORSDOF 5
