REMARK  Name = ZINC13085832
REMARK  8 active torsions:
REMARK  status: ('A' for Active; 'I' for Inactive)
REMARK    1  A    between atoms: C_1  and  C_2
REMARK    2  A    between atoms: C_8  and  C_10
REMARK    3  A    between atoms: C_10  and  S_11
REMARK    4  A    between atoms: S_11  and  C_12
REMARK    5  A    between atoms: N_23  and  C_24
REMARK    6  A    between atoms: C_24  and  C_25
REMARK    7  A    between atoms: C_28  and  C_36
REMARK    8  A    between atoms: C_33  and  C_35
REMARK                            x       y       z     vdW  Elec       q    Type
REMARK                         _______ _______ _______ _____ _____    ______ ____
ROOT
ATOM      1  C   UNL     1      -8.330   3.862   4.661  0.00  0.00    +0.198 A 
ATOM      2  N   UNL     1      -9.225   4.113   3.737  0.00  0.00    -0.120 NA
ATOM      3  N   UNL     1     -10.418   4.476   4.376  0.00  0.00    -0.109 NA
ATOM      4  C   UNL     1     -10.212   4.435   5.673  0.00  0.00    +0.238 A 
ATOM      5  N   UNL     1      -8.918   4.050   5.883  0.00  0.00    -0.254 N 
ATOM      6  C   UNL     1      -8.691   4.009   7.260  0.00  0.00    +0.075 A 
ATOM      7  C   UNL     1      -7.575   3.690   8.019  0.00  0.00    +0.028 A 
ATOM      8  C   UNL     1      -7.644   3.731   9.398  0.00  0.00    +0.002 A 
ATOM      9  C   UNL     1      -8.823   4.090  10.027  0.00  0.00    +0.002 A 
ATOM     10  C   UNL     1      -9.940   4.409   9.281  0.00  0.00    +0.028 A 
ATOM     11  C   UNL     1      -9.880   4.371   7.894  0.00  0.00    +0.069 A 
ATOM     12  N   UNL     1     -10.819   4.634   6.901  0.00  0.00    -0.299 N 
ENDROOT
BRANCH   1  13
ATOM     13  S   UNL     1      -6.663   3.364   4.380  0.00  0.00    -0.076 S 
BRANCH  13  14
ATOM     14  C   UNL     1      -6.524   3.295   2.573  0.00  0.00    +0.173 C 
BRANCH  14  22
ATOM     15  C   UNL     1      -1.156   1.631  -2.198  0.00  0.00    +0.066 C 
ATOM     16  C   UNL     1      -1.734   1.823  -0.820  0.00  0.00    +0.047 A 
ATOM     17  C   UNL     1      -0.977   1.616   0.285  0.00  0.00    +0.071 A 
ATOM     18  S   UNL     1      -2.159   1.986   1.572  0.00  0.00    -0.060 S 
ATOM     19  C   UNL     1      -3.503   2.369   0.541  0.00  0.00    +0.165 A 
ATOM     20  N   UNL     1      -2.987   2.203  -0.661  0.00  0.00    -0.230 NA
ATOM     21  N   UNL     1      -4.791   2.756   0.892  0.00  0.00    -0.264 N 
ATOM     22  C   UNL     1      -5.128   2.876   2.192  0.00  0.00    +0.229 C 
ATOM     23  O   UNL     1      -4.307   2.645   3.055  0.00  0.00    -0.275 OA
ATOM     24  H   UNL     1      -5.447   2.940   0.203  0.00  0.00    +0.157 HD
ENDBRANCH  14  22
ENDBRANCH  13  14
ENDBRANCH   1  13
BRANCH  12  25
ATOM     25  C   UNL     1     -12.207   5.049   7.118  0.00  0.00    +0.221 C 
BRANCH  25  26
ATOM     26  C   UNL     1     -13.088   3.830   7.213  0.00  0.00    +0.236 C 
ATOM     27  O   UNL     1     -12.678   2.755   6.830  0.00  0.00    -0.274 OA
ATOM     28  N   UNL     1     -14.330   3.934   7.725  0.00  0.00    -0.294 N 
ATOM     29  C   UNL     1     -15.008   5.236   7.787  0.00  0.00    +0.073 C 
ATOM     30  C   UNL     1     -16.374   5.114   7.104  0.00  0.00    +0.022 C 
ATOM     31  C   UNL     1     -17.158   3.966   7.745  0.00  0.00    +0.004 C 
ATOM     32  C   UNL     1     -16.399   2.653   7.544  0.00  0.00    +0.022 C 
ATOM     33  C   UNL     1     -15.035   2.746   8.226  0.00  0.00    +0.073 C 
ATOM     34  C   UNL     1     -14.218   1.492   7.908  0.00  0.00    +0.028 C 
ATOM     35  C   UNL     1     -14.165   6.287   7.062  0.00  0.00    +0.028 C 
ENDBRANCH  25  26
ENDBRANCH  12  25
TORSDOF 5
