REMARK  Name = ZINC12800723
REMARK  3 active torsions:
REMARK  status: ('A' for Active; 'I' for Inactive)
REMARK    1  A    between atoms: C_5  and  C_6
REMARK    2  A    between atoms: N_8  and  N_9
REMARK    3  A    between atoms: C_10  and  C_12
REMARK                            x       y       z     vdW  Elec       q    Type
REMARK                         _______ _______ _______ _____ _____    ______ ____
ROOT
ATOM      1  C   UNL     1       0.625  -3.334   4.401  0.00  0.00    +0.267 C 
ATOM      2  O   UNL     1       0.784  -3.100   5.585  0.00  0.00    -0.268 OA
ATOM      3  N   UNL     1       0.529  -4.608   3.973  0.00  0.00    -0.230 N 
ATOM      4  H   UNL     1       0.402  -4.795   3.030  0.00  0.00    +0.173 HD
ENDROOT
BRANCH   1   9
ATOM      5  C   UNL     1       0.609  -0.872   3.666  0.00  0.00    +0.024 A 
ATOM      6  C   UNL     1       0.516  -0.014   2.567  0.00  0.00    -0.036 A 
ATOM      7  C   UNL     1       0.277  -0.578   1.368  0.00  0.00    -0.006 A 
ATOM      8  S   UNL     1       0.307  -2.288   1.675  0.00  0.00    -0.088 S 
ATOM      9  C   UNL     1       0.537  -2.229   3.441  0.00  0.00    +0.076 A 
ATOM     10  C   UNL     1       0.002  -0.004   0.002  0.00  0.00    +0.043 C 
ATOM     11  C   UNL     1      -0.019   1.525   0.010  0.00  0.00    +0.005 C 
ATOM     12  C   UNL     1       1.394   2.086   0.000  0.00  0.00    +0.000 C 
ATOM     13  C   UNL     1       2.356   1.274   0.843  0.00  0.00    +0.000 C 
ATOM     14  C   UNL     1       2.214   1.768   2.287  0.00  0.00    +0.005 C 
ATOM     15  C   UNL     1       0.797   1.468   2.775  0.00  0.00    +0.036 C 
ENDBRANCH   1   9
BRANCH   3  16
ATOM     16  N   UNL     1       0.613  -5.663   4.891  0.00  0.00    -0.229 N 
ATOM     17  C   UNL     1       0.517  -6.938   4.463  0.00  0.00    +0.279 C 
ATOM     18  O   UNL     1       0.358  -7.172   3.280  0.00  0.00    -0.267 OA
ATOM     19  H   UNL     1       0.740  -5.477   5.834  0.00  0.00    +0.173 HD
BRANCH  17  20
ATOM     20  C   UNL     1       0.606  -8.046   5.427  0.00  0.00    +0.136 A 
ATOM     21  C   UNL     1       0.510  -9.348   5.002  0.00  0.00    +0.081 A 
ATOM     22  S   UNL     1       0.682 -10.219   6.554  0.00  0.00    -0.060 S 
ATOM     23  C   UNL     1       0.862  -8.783   7.602  0.00  0.00    +0.162 A 
ATOM     24  N   UNL     1       0.786  -7.801   6.727  0.00  0.00    -0.220 NA
ATOM     25  N   UNL     1       1.040  -8.719   8.974  0.00  0.00    -0.305 N 
ATOM     26  C   UNL     1       2.259  -7.971   9.313  0.00  0.00    +0.135 C 
ATOM     27  C   UNL     1       2.385  -7.874  10.836  0.00  0.00    +0.179 C 
ATOM     28  O   UNL     1       2.384  -9.190  11.395  0.00  0.00    -0.377 OA
ATOM     29  C   UNL     1       1.210  -9.946  11.085  0.00  0.00    +0.179 C 
ATOM     30  C   UNL     1       1.073 -10.065   9.564  0.00  0.00    +0.135 C 
ENDBRANCH  17  20
ENDBRANCH   3  16
TORSDOF 3
