REMARK  Name = ZINC10061163
REMARK  9 active torsions:
REMARK  status: ('A' for Active; 'I' for Inactive)
REMARK    1  A    between atoms: C_1  and  O_2
REMARK    2  A    between atoms: O_2  and  C_3
REMARK    3  A    between atoms: C_3  and  C_4
REMARK    4  A    between atoms: C_4  and  N_5
REMARK    5  A    between atoms: C_9  and  S_24
REMARK    6  A    between atoms: N_14  and  C_15
REMARK    7  A    between atoms: C_15  and  C_17
REMARK    8  A    between atoms: C_17  and  C_18
REMARK    9  A    between atoms: S_24  and  N_27
REMARK                            x       y       z     vdW  Elec       q    Type
REMARK                         _______ _______ _______ _____ _____    ______ ____
ROOT
ATOM      1  N   UNL     1       3.556   1.760  -0.038  0.00  0.00    -0.319 N 
ATOM      2  C   UNL     1       4.659   0.928  -0.093  0.00  0.00    +0.058 A 
ATOM      3  C   UNL     1       6.016   1.284  -0.135  0.00  0.00    +0.029 A 
ATOM      4  C   UNL     1       6.994   0.319  -0.188  0.00  0.00    +0.030 A 
ATOM      5  C   UNL     1       6.673  -1.029  -0.201  0.00  0.00    +0.106 A 
ATOM      6  C   UNL     1       5.343  -1.407  -0.160  0.00  0.00    +0.045 A 
ATOM      7  C   UNL     1       4.364  -0.443  -0.108  0.00  0.00    +0.041 A 
ATOM      8  S   UNL     1       2.591  -0.479  -0.038  0.00  0.00    -0.052 S 
ATOM      9  C   UNL     1       2.304   1.231  -0.003  0.00  0.00    +0.166 A 
ATOM     10  N   UNL     1       1.138   1.872   0.051  0.00  0.00    -0.156 NA
ENDROOT
BRANCH   5  11
ATOM     11  S   UNL     1       7.944  -2.247  -0.269  0.00  0.00    +0.056 S 
ATOM     12  O   UNL     1       7.356  -3.417  -0.821  0.00  0.00    -0.153 OA
ATOM     13  O   UNL     1       9.079  -1.618  -0.850  0.00  0.00    -0.153 OA
BRANCH  11  14
ATOM     14  N   UNL     1       8.354  -2.614   1.293  0.00  0.00    -0.204 NA
ATOM     15  H   UNL     1       9.149  -3.375   1.294  0.00  0.00    +0.144 HD
ATOM     16  H   UNL     1       7.472  -3.005   1.821  0.00  0.00    +0.144 HD
ENDBRANCH  11  14
ENDBRANCH   5  11
BRANCH  10  17
ATOM     17  C   UNL     1       0.002   1.183   0.079  0.00  0.00    +0.243 C 
ATOM     18  O   UNL     1       0.028  -0.033   0.055  0.00  0.00    -0.273 OA
BRANCH  17  19
ATOM     19  C   UNL     1      -1.317   1.908   0.134  0.00  0.00    +0.140 C 
BRANCH  19  20
ATOM     20  C   UNL     1      -2.442   0.905   0.150  0.00  0.00    +0.000 A 
ATOM     21  C   UNL     1      -3.042   0.313   1.210  0.00  0.00    +0.013 A 
ATOM     22  C   UNL     1      -4.069  -0.585   0.985  0.00  0.00    +0.028 A 
ATOM     23  C   UNL     1      -4.438  -0.854  -0.292  0.00  0.00    +0.078 A 
ATOM     24  S   UNL     1      -3.323   0.183  -1.225  0.00  0.00    -0.081 S 
ATOM     25 CL   UNL     1      -5.672  -1.929  -0.871  0.00  0.00    -0.076 Cl
ENDBRANCH  19  20
ENDBRANCH  17  19
ENDBRANCH  10  17
BRANCH   1  26
ATOM     26  C   UNL     1       3.736   3.213  -0.017  0.00  0.00    +0.152 C 
BRANCH  26  27
ATOM     27  C   UNL     1       2.623   3.877  -0.831  0.00  0.00    +0.181 C 
BRANCH  27  29
ATOM     28  C   UNL     1       1.888   5.999  -1.668  0.00  0.00    +0.194 C 
ATOM     29  O   UNL     1       2.874   5.281  -0.924  0.00  0.00    -0.381 OA
ENDBRANCH  27  29
ENDBRANCH  26  27
ENDBRANCH   1  26
TORSDOF 8
