REMARK  Name = ZINC37558645
REMARK  7 active torsions:
REMARK  status: ('A' for Active; 'I' for Inactive)
REMARK    1  A    between atoms: C_1  and  C_2
REMARK    2  A    between atoms: C_2  and  C_3
REMARK    3  A    between atoms: C_3  and  N_4
REMARK    4  A    between atoms: C_6  and  S_10
REMARK    5  A    between atoms: S_10  and  N_13
REMARK    6  A    between atoms: N_13  and  C_14
REMARK    7  A    between atoms: C_16  and  C_21
REMARK                            x       y       z     vdW  Elec       q    Type
REMARK                         _______ _______ _______ _____ _____    ______ ____
ROOT
ATOM      1  S   UNL     1      -0.041  -5.515  -2.908  0.00  0.00    +0.077 S 
ATOM      2  O   UNL     1      -0.706  -6.490  -2.116  0.00  0.00    -0.150 OA
ATOM      3  O   UNL     1      -0.605  -4.991  -4.103  0.00  0.00    -0.150 OA
ENDROOT
BRANCH   1   6
ATOM      4  N   UNL     1       0.375  -2.102  -1.069  0.00  0.00    -0.268 N 
ATOM      5  C   UNL     1      -0.019  -2.845  -2.124  0.00  0.00    +0.139 A 
ATOM      6  C   UNL     1       0.272  -4.138  -1.853  0.00  0.00    +0.167 A 
ATOM      7  C   UNL     1       0.867  -4.189  -0.582  0.00  0.00    +0.165 A 
ATOM      8  N   UNL     1       0.933  -2.964  -0.115  0.00  0.00    -0.154 NA
ATOM      9  N   UNL     1       1.316  -5.343   0.070  0.00  0.00    -0.340 N 
ATOM     10  H   UNL     1       1.305  -6.196  -0.391  0.00  0.00    +0.144 HD
ATOM     11  H   UNL     1       1.638  -5.289   0.983  0.00  0.00    +0.144 HD
BRANCH   4  12
ATOM     12  C   UNL     1       0.248  -0.648  -0.945  0.00  0.00    +0.143 C 
BRANCH  12  14
ATOM     13  C   UNL     1      -0.637   1.209   0.474  0.00  0.00    +0.005 C 
ATOM     14  C   UNL     1      -0.504  -0.310   0.344  0.00  0.00    +0.020 C 
ENDBRANCH  12  14
ENDBRANCH   4  12
ENDBRANCH   1   6
BRANCH   1  15
ATOM     15  N   UNL     1       1.427  -6.160  -3.320  0.00  0.00    -0.213 N 
ATOM     16  H   UNL     1       1.679  -7.038  -2.995  0.00  0.00    +0.174 HD
BRANCH  15  17
ATOM     17  C   UNL     1       2.304  -5.437  -4.135  0.00  0.00    +0.083 A 
ATOM     18  C   UNL     1       2.378  -4.055  -4.024  0.00  0.00    +0.030 A 
ATOM     19  C   UNL     1       3.246  -3.344  -4.831  0.00  0.00    -0.048 A 
ATOM     20  C   UNL     1       4.041  -4.006  -5.748  0.00  0.00    +0.006 A 
ATOM     21  C   UNL     1       3.971  -5.383  -5.862  0.00  0.00    +0.040 A 
ATOM     22  C   UNL     1       3.109  -6.102  -5.054  0.00  0.00    +0.146 A 
ATOM     23  F   UNL     1       3.045  -7.447  -5.161  0.00  0.00    -0.204 F 
ATOM     24  C   UNL     1       3.326  -1.844  -4.711  0.00  0.00    +0.044 C 
ENDBRANCH  15  17
ENDBRANCH   1  15
TORSDOF 5
