REMARK  Name = ZINC05446631
REMARK  2 active torsions:
REMARK  status: ('A' for Active; 'I' for Inactive)
REMARK    1  A    between atoms: C_11  and  C_15
REMARK    2  A    between atoms: C_11  and  O_19
REMARK                            x       y       z     vdW  Elec       q    Type
REMARK                         _______ _______ _______ _____ _____    ______ ____
ROOT
ATOM      1  C   UNL     1      -1.238   3.136   0.030  0.00  0.00    +0.001 A 
ATOM      2  C   UNL     1      -1.198   1.743   0.017  0.00  0.00    +0.001 A 
ATOM      3  C   UNL     1      -0.013   1.076   0.008  0.00  0.00    +0.009 A 
ATOM      4  C   UNL     1       1.194   1.799   0.000  0.00  0.00    -0.009 A 
ATOM      5  C   UNL     1       1.153   3.217   0.008  0.00  0.00    -0.017 A 
ATOM      6  C   UNL     1      -0.091   3.870   0.023  0.00  0.00    +0.008 A 
ATOM      7  C   UNL     1       2.358   3.938  -0.000  0.00  0.00    +0.010 A 
ATOM      8  C   UNL     1       3.546   3.282  -0.015  0.00  0.00    +0.024 A 
ATOM      9  C   UNL     1       3.604   1.877  -0.023  0.00  0.00    +0.041 A 
ATOM     10  C   UNL     1       2.434   1.150  -0.015  0.00  0.00    +0.031 A 
ATOM     11  C   UNL     1       2.831  -0.308  -0.025  0.00  0.00    +0.265 C 
ATOM     12  C   UNL     1       4.345  -0.274  -0.039  0.00  0.00    +0.263 C 
ATOM     13  O   UNL     1       5.089  -1.232  -0.050  0.00  0.00    -0.272 OA
ATOM     14  N   UNL     1       4.706   1.020  -0.037  0.00  0.00    -0.282 N 
ATOM     15  H   UNL     1       5.627   1.324  -0.044  0.00  0.00    +0.155 HD
ENDROOT
BRANCH  11  16
ATOM     16  C   UNL     1       2.322  -1.012   1.234  0.00  0.00    +0.431 C 
ATOM     17  F   UNL     1       2.799  -0.343   2.367  0.00  0.00    -0.167 F 
ATOM     18  F   UNL     1       0.923  -1.001   1.241  0.00  0.00    -0.167 F 
ATOM     19  F   UNL     1       2.778  -2.334   1.246  0.00  0.00    -0.167 F 
ENDBRANCH  11  16
BRANCH  11  20
ATOM     20  O   UNL     1       2.333  -0.957  -1.197  0.00  0.00    -0.368 OA
ATOM     21  H   UNL     1       2.611  -1.880  -1.283  0.00  0.00    +0.212 HD
ENDBRANCH  11  20
TORSDOF 2
