REMARK  Name = ZINC67023737
REMARK  8 active torsions:
REMARK  status: ('A' for Active; 'I' for Inactive)
REMARK    1  A    between atoms: C_1  and  N_2
REMARK    2  A    between atoms: N_2  and  C_3
REMARK    3  A    between atoms: C_4  and  S_6
REMARK    4  A    between atoms: S_6  and  C_7
REMARK    5  A    between atoms: C_11  and  N_13
REMARK    6  A    between atoms: C_14  and  C_16
REMARK    7  A    between atoms: C_16  and  C_18
REMARK    8  A    between atoms: C_16  and  N_24
REMARK                            x       y       z     vdW  Elec       q    Type
REMARK                         _______ _______ _______ _____ _____    ______ ____
ROOT
ATOM      1  N   UNL     1       0.084  -6.163  -4.703  0.00  0.00    -0.287 N 
ATOM      2  C   UNL     1       0.216  -6.609  -5.968  0.00  0.00    +0.208 C 
ATOM      3  O   UNL     1       0.244  -5.820  -6.889  0.00  0.00    -0.277 OA
ATOM      4  H   UNL     1      -0.006  -6.795  -3.973  0.00  0.00    +0.155 HD
ENDROOT
BRANCH   1   9
ATOM      5  C   UNL     1       0.639  -2.934  -3.024  0.00  0.00    +0.019 A 
ATOM      6  C   UNL     1       0.055  -2.063  -3.935  0.00  0.00    +0.015 A 
ATOM      7  C   UNL     1      -0.516  -2.554  -5.093  0.00  0.00    +0.003 A 
ATOM      8  C   UNL     1      -0.507  -3.912  -5.350  0.00  0.00    +0.023 A 
ATOM      9  C   UNL     1       0.076  -4.788  -4.443  0.00  0.00    +0.034 A 
ATOM     10  C   UNL     1       0.654  -4.298  -3.281  0.00  0.00    +0.038 A 
BRANCH   5  11
ATOM     11  S   UNL     1       1.367  -2.307  -1.546  0.00  0.00    -0.031 S 
BRANCH  11  15
ATOM     12  C   UNL     1      -0.724  -2.292   1.948  0.00  0.00    +0.132 C 
ATOM     13  N   UNL     1       0.339  -2.163   0.947  0.00  0.00    -0.298 N 
ATOM     14  C   UNL     1       1.672  -1.709   1.349  0.00  0.00    +0.132 C 
ATOM     15  C   UNL     1       0.089  -2.462  -0.343  0.00  0.00    +0.279 C 
ATOM     16  O   UNL     1      -1.018  -2.839  -0.676  0.00  0.00    -0.262 OA
ENDBRANCH  11  15
ENDBRANCH   5  11
ENDBRANCH   1   9
BRANCH   2  17
ATOM     17  C   UNL     1       0.329  -8.087  -6.238  0.00  0.00    +0.050 C 
BRANCH  17  18
ATOM     18  C   UNL     1      -1.042  -8.711  -6.202  0.00  0.00    -0.052 A 
ATOM     19  C   UNL     1      -1.875  -8.614  -7.301  0.00  0.00    +0.002 A 
ATOM     20  C   UNL     1      -3.133  -9.186  -7.267  0.00  0.00    +0.000 A 
ATOM     21  C   UNL     1      -3.558  -9.855  -6.135  0.00  0.00    +0.000 A 
ATOM     22  C   UNL     1      -2.725  -9.953  -5.036  0.00  0.00    +0.000 A 
ATOM     23  C   UNL     1      -1.465  -9.384  -5.071  0.00  0.00    +0.002 A 
ENDBRANCH  17  18
BRANCH  17  24
ATOM     24  N   UNL     1       0.928  -8.298  -7.563  0.00  0.00    +0.390 N 
ATOM     25  C   UNL     1       2.314  -7.766  -7.589  0.00  0.00    -0.077 C 
ATOM     26  C   UNL     1       2.967  -8.534  -8.765  0.00  0.00    -0.020 C 
ATOM     27  C   UNL     1       2.348  -9.945  -8.643  0.00  0.00    -0.020 C 
ATOM     28  C   UNL     1       1.046  -9.745  -7.844  0.00  0.00    -0.077 C 
ATOM     29  H   UNL     1       0.369  -7.850  -8.273  0.00  0.00    -0.080 HD
ENDBRANCH  17  24
ENDBRANCH   2  17
TORSDOF 6
