REMARK  Name = ZINC07242168
REMARK  7 active torsions:
REMARK  status: ('A' for Active; 'I' for Inactive)
REMARK    1  A    between atoms: C_1  and  C_2
REMARK    2  A    between atoms: C_7  and  N_11
REMARK    3  A    between atoms: N_11  and  C_12
REMARK    4  A    between atoms: C_12  and  C_14
REMARK    5  A    between atoms: C_12  and  C_15
REMARK    6  A    between atoms: N_17  and  C_18
REMARK    7  A    between atoms: C_23  and  N_24
REMARK                            x       y       z     vdW  Elec       q    Type
REMARK                         _______ _______ _______ _____ _____    ______ ____
ROOT
ATOM      1  C   UNL     1       0.058  -7.271  -1.085  0.00  0.00    +0.154 C 
ATOM      2  C   UNL     1      -1.379  -7.552  -1.530  0.00  0.00    +0.038 C 
ENDROOT
BRANCH   1   3
ATOM      3  C   UNL     1       0.695  -8.550  -0.605  0.00  0.00    +0.237 C 
ATOM      4  O   UNL     1       1.101  -8.635   0.534  0.00  0.00    -0.273 OA
ATOM      5  N   UNL     1       0.812  -9.600  -1.442  0.00  0.00    -0.282 N 
ATOM      6  H   UNL     1       0.429  -9.556  -2.332  0.00  0.00    +0.155 HD
BRANCH   5   7
ATOM      7  C   UNL     1       1.486 -10.754  -1.027  0.00  0.00    +0.064 A 
ATOM      8  C   UNL     1       1.400 -11.172   0.295  0.00  0.00    +0.025 A 
ATOM      9  C   UNL     1       2.066 -12.311   0.702  0.00  0.00    +0.002 A 
ATOM     10  C   UNL     1       2.818 -13.035  -0.205  0.00  0.00    +0.002 A 
ATOM     11  C   UNL     1       2.906 -12.621  -1.522  0.00  0.00    +0.034 A 
ATOM     12  C   UNL     1       2.237 -11.486  -1.936  0.00  0.00    +0.147 A 
BRANCH  12  13
ATOM     13  N   UNL     1       2.326 -11.047  -3.347  0.00  0.00    +0.058 N 
ATOM     14  O   UNL     1       2.899 -11.736  -4.159  0.00  0.00    -0.126 OA
ATOM     15  O   UNL     1       1.826 -10.001  -3.687  0.00  0.00    -0.126 OA
ENDBRANCH  12  13
ENDBRANCH   5   7
ENDBRANCH   1   3
BRANCH   1  16
ATOM     16  N   UNL     1       0.050  -6.291   0.004  0.00  0.00    -0.333 N 
ATOM     17  H   UNL     1       0.069  -6.591   0.926  0.00  0.00    +0.147 HD
BRANCH  16  24
ATOM     18  C   UNL     1      -0.136   1.489  -0.021  0.00  0.00    +0.073 C 
ATOM     19  C   UNL     1      -0.099  -0.017  -0.025  0.00  0.00    +0.076 A 
ATOM     20  N   UNL     1      -0.093  -0.833  -1.043  0.00  0.00    -0.244 NA
ATOM     21  C   UNL     1      -0.058  -2.176  -0.903  0.00  0.00    +0.079 A 
ATOM     22  C   UNL     1      -0.048  -3.161  -1.919  0.00  0.00    +0.031 A 
ATOM     23  C   UNL     1      -0.013  -4.484  -1.609  0.00  0.00    +0.025 A 
ATOM     24  C   UNL     1       0.015  -4.924  -0.287  0.00  0.00    +0.029 A 
ATOM     25  C   UNL     1       0.006  -3.988   0.738  0.00  0.00    +0.040 A 
ATOM     26  C   UNL     1      -0.030  -2.650   0.428  0.00  0.00    +0.041 A 
ATOM     27  S   UNL     1      -0.047  -1.140   1.365  0.00  0.00    -0.072 S 
ENDBRANCH  16  24
ENDBRANCH   1  16
TORSDOF 5
