REMARK  Name = ZINC03647449
REMARK  5 active torsions:
REMARK  status: ('A' for Active; 'I' for Inactive)
REMARK    1  A    between atoms: C_1  and  C_2
REMARK    2  A    between atoms: C_14  and  C_17
REMARK    3  A    between atoms: C_20  and  C_23
REMARK    4  A    between atoms: C_23  and  O_25
REMARK    5  A    between atoms: O_25  and  C_26
REMARK                            x       y       z     vdW  Elec       q    Type
REMARK                         _______ _______ _______ _____ _____    ______ ____
ROOT
ATOM      1  C   UNL     1       4.717   4.357   0.073  0.00  0.00    +0.008 C 
ATOM      2  C   UNL     1       3.905   3.093   0.360  0.00  0.00    -0.009 C 
ATOM      3  C   UNL     1       4.440   1.935  -0.488  0.00  0.00    +0.008 C 
ATOM      4  C   UNL     1       3.808   0.620  -0.031  0.00  0.00    +0.037 C 
ATOM      5  C   UNL     1       2.292   0.782  -0.015  0.00  0.00    -0.023 A 
ATOM      6  C   UNL     1       1.727   2.009  -0.004  0.00  0.00    -0.004 A 
ATOM      7  S   UNL     1      -0.021   1.708   0.011  0.00  0.00    -0.078 S 
ATOM      8  C   UNL     1       0.002  -0.004   0.002  0.00  0.00    +0.080 A 
ATOM      9  C   UNL     1       1.364  -0.338  -0.011  0.00  0.00    +0.068 A 
ATOM     10  C   UNL     1       1.717  -1.777  -0.018  0.00  0.00    +0.248 C 
ATOM     11  O   UNL     1       2.870  -2.146  -0.142  0.00  0.00    -0.270 OA
ATOM     12  N   UNL     1       0.707  -2.661   0.121  0.00  0.00    -0.289 N 
ATOM     13  C   UNL     1      -0.647  -2.282   0.512  0.00  0.00    +0.190 C 
ATOM     14  N   UNL     1      -0.997  -0.943   0.002  0.00  0.00    -0.316 N 
ATOM     15  C   UNL     1       2.432   3.330  -0.003  0.00  0.00    +0.046 C 
ATOM     16  H   UNL     1       0.947  -3.716  -0.078  0.00  0.00    +0.151 HD
ATOM     17  H   UNL     1      -2.017  -0.740  -0.355  0.00  0.00    +0.149 HD
ENDROOT
BRANCH  13  18
ATOM     18  C   UNL     1      -0.743  -2.277   2.016  0.00  0.00    -0.009 A 
ATOM     19  C   UNL     1      -1.643  -1.435   2.646  0.00  0.00    +0.008 A 
ATOM     20  C   UNL     1      -1.740  -1.429   4.022  0.00  0.00    +0.015 A 
ATOM     21  C   UNL     1      -0.919  -2.267   4.780  0.00  0.00    +0.059 A 
ATOM     22  C   UNL     1      -0.009  -3.110   4.138  0.00  0.00    +0.015 A 
ATOM     23  C   UNL     1       0.073  -3.110   2.761  0.00  0.00    +0.008 A 
BRANCH  21  24
ATOM     24  C   UNL     1      -1.012  -2.261   6.254  0.00  0.00    +0.339 C 
ATOM     25  O   UNL     1      -0.297  -2.991   6.911  0.00  0.00    -0.245 OA
BRANCH  24  26
ATOM     26  O   UNL     1      -1.891  -1.447   6.870  0.00  0.00    -0.464 OA
ATOM     27  C   UNL     1      -1.929  -1.494   8.321  0.00  0.00    +0.280 C 
ENDBRANCH  24  26
ENDBRANCH  21  24
ENDBRANCH  13  18
TORSDOF 3
