REMARK  Name = ZINC36667788
REMARK  14 active torsions:
REMARK  status: ('A' for Active; 'I' for Inactive)
REMARK    1  A    between atoms: C_1  and  C_2
REMARK    2  A    between atoms: C_4  and  C_8
REMARK    3  A    between atoms: C_5  and  C_7
REMARK    4  A    between atoms: N_10  and  N_11
REMARK    5  A    between atoms: C_12  and  C_14
REMARK    6  A    between atoms: C_14  and  C_16
REMARK    7  A    between atoms: C_14  and  N_19
REMARK    8  A    between atoms: C_16  and  C_17
REMARK    9  A    between atoms: C_16  and  C_18
REMARK   10  A    between atoms: C_20  and  C_22
REMARK   11  A    between atoms: C_24  and  O_30
REMARK   12  A    between atoms: C_26  and  O_28
REMARK   13  A    between atoms: O_28  and  C_29
REMARK   14  A    between atoms: O_30  and  C_31
REMARK                            x       y       z     vdW  Elec       q    Type
REMARK                         _______ _______ _______ _____ _____    ______ ____
ROOT
ATOM      1  C   UNL     1      -5.660  -5.766  -0.136  0.00  0.00    +0.163 C 
ENDROOT
BRANCH   1   3
ATOM      2  N   UNL     1      -3.569  -4.508  -0.538  0.00  0.00    -0.233 N 
ATOM      3  C   UNL     1      -4.831  -4.510  -0.065  0.00  0.00    +0.250 C 
ATOM      4  O   UNL     1      -5.299  -3.501   0.418  0.00  0.00    -0.272 OA
ATOM      5  H   UNL     1      -3.168  -5.332  -0.856  0.00  0.00    +0.173 HD
BRANCH   2   8
ATOM      6  C   UNL     1      -1.572  -3.313  -1.042  0.00  0.00    +0.263 C 
ATOM      7  O   UNL     1      -1.071  -4.346  -1.441  0.00  0.00    -0.269 OA
ATOM      8  N   UNL     1      -2.834  -3.315  -0.569  0.00  0.00    -0.230 N 
ATOM      9  H   UNL     1      -3.235  -2.491  -0.251  0.00  0.00    +0.173 HD
BRANCH   6  13
ATOM     10  C   UNL     1      -0.197   1.576  -0.557  0.00  0.00    +0.086 C 
ATOM     11  C   UNL     1      -0.212   0.099  -0.854  0.00  0.00    +0.103 A 
ATOM     12  C   UNL     1      -1.246  -0.728  -0.636  0.00  0.00    +0.057 A 
ATOM     13  C   UNL     1      -0.800  -2.058  -1.075  0.00  0.00    +0.079 A 
ATOM     14  C   UNL     1       0.478  -1.888  -1.520  0.00  0.00    +0.114 A 
ATOM     15  O   UNL     1       0.804  -0.599  -1.385  0.00  0.00    -0.464 OA
ATOM     16  C   UNL     1       1.369  -2.969  -2.075  0.00  0.00    +0.087 C 
ENDBRANCH   6  13
ENDBRANCH   2   8
ENDBRANCH   1   3
BRANCH   1  17
ATOM     17  N   UNL     1      -7.077  -5.411  -0.238  0.00  0.00    -0.300 N 
ATOM     18  C   UNL     1      -7.949  -6.270  -0.803  0.00  0.00    +0.245 C 
ATOM     19  O   UNL     1      -7.558  -7.339  -1.229  0.00  0.00    -0.270 OA
ATOM     20  H   UNL     1      -7.389  -4.558   0.102  0.00  0.00    +0.150 HD
BRANCH  18  21
ATOM     21  C   UNL     1      -9.379  -5.911  -0.906  0.00  0.00    +0.044 A 
ATOM     22  C   UNL     1      -9.829  -4.682  -0.423  0.00  0.00    +0.059 A 
ATOM     23  C   UNL     1     -11.170  -4.349  -0.521  0.00  0.00    +0.124 A 
ATOM     24  C   UNL     1     -12.066  -5.237  -1.099  0.00  0.00    +0.091 A 
ATOM     25  C   UNL     1     -11.623  -6.460  -1.580  0.00  0.00    +0.124 A 
ATOM     26  C   UNL     1     -10.283  -6.798  -1.491  0.00  0.00    +0.059 A 
BRANCH  25  27
ATOM     27  O   UNL     1     -12.505  -7.327  -2.145  0.00  0.00    -0.495 OA
ATOM     28  C   UNL     1     -13.871  -6.912  -2.209  0.00  0.00    +0.277 C 
ENDBRANCH  25  27
BRANCH  23  29
ATOM     29  O   UNL     1     -11.608  -3.152  -0.051  0.00  0.00    -0.495 OA
ATOM     30  C   UNL     1     -13.004  -2.874  -0.185  0.00  0.00    +0.277 C 
ENDBRANCH  23  29
ENDBRANCH  18  21
ENDBRANCH   1  17
BRANCH   1  31
ATOM     31  C   UNL     1      -5.432  -6.600   1.127  0.00  0.00    +0.012 C 
ATOM     32  C   UNL     1      -6.197  -7.920   1.011  0.00  0.00    +0.009 C 
ATOM     33  C   UNL     1      -3.938  -6.888   1.285  0.00  0.00    +0.009 C 
ENDBRANCH   1  31
TORSDOF 8
