REMARK  Name = ZINC24887309
REMARK  9 active torsions:
REMARK  status: ('A' for Active; 'I' for Inactive)
REMARK    1  A    between atoms: C_1  and  C_2
REMARK    2  A    between atoms: C_5  and  C_8
REMARK    3  A    between atoms: C_8  and  S_9
REMARK    4  A    between atoms: S_9  and  C_10
REMARK    5  A    between atoms: C_10  and  C_11
REMARK    6  A    between atoms: C_11  and  N_13
REMARK    7  A    between atoms: C_16  and  C_19
REMARK    8  A    between atoms: C_19  and  N_20
REMARK    9  A    between atoms: C_24  and  C_27
REMARK                            x       y       z     vdW  Elec       q    Type
REMARK                         _______ _______ _______ _____ _____    ______ ____
ROOT
ATOM      1  N   UNL     1       3.136  -8.603  -0.062  0.00  0.00    -0.156 NA
ATOM      2  C   UNL     1       4.354  -9.150  -0.072  0.00  0.00    +0.163 A 
ATOM      3  N   UNL     1       4.687 -10.469  -0.086  0.00  0.00    -0.341 N 
ATOM      4  C   UNL     1       6.003 -10.813  -0.095  0.00  0.00    +0.008 A 
ATOM      5  C   UNL     1       6.897  -9.818  -0.089  0.00  0.00    +0.067 A 
ATOM      6  S   UNL     1       5.847  -8.377  -0.076  0.00  0.00    -0.061 S 
ATOM      7  H   UNL     1       3.999 -11.152  -0.090  0.00  0.00    +0.167 HD
ENDROOT
BRANCH   1   8
ATOM      8  C   UNL     1       3.002  -7.283  -0.054  0.00  0.00    +0.248 C 
ATOM      9  O   UNL     1       3.989  -6.572  -0.056  0.00  0.00    -0.273 OA
BRANCH   8  10
ATOM     10  C   UNL     1       1.628  -6.666  -0.043  0.00  0.00    +0.167 C 
BRANCH  10  11
ATOM     11  S   UNL     1       1.777  -4.858  -0.034  0.00  0.00    -0.147 S 
BRANCH  11  12
ATOM     12  C   UNL     1       0.059  -4.275  -0.021  0.00  0.00    +0.104 C 
BRANCH  12  17
ATOM     13  C   UNL     1      -0.018   1.503   0.010  0.00  0.00    +0.044 C 
ATOM     14  C   UNL     1       0.002  -0.004   0.002  0.00  0.00    -0.050 A 
ATOM     15  C   UNL     1       0.006  -0.689  -1.199  0.00  0.00    +0.003 A 
ATOM     16  C   UNL     1       0.025  -2.071  -1.206  0.00  0.00    +0.005 A 
ATOM     17  C   UNL     1       0.040  -2.768  -0.013  0.00  0.00    -0.038 A 
ATOM     18  C   UNL     1       0.037  -2.084   1.188  0.00  0.00    +0.005 A 
ATOM     19  C   UNL     1       0.023  -0.702   1.195  0.00  0.00    +0.003 A 
ENDBRANCH  12  17
ENDBRANCH  11  12
ENDBRANCH  10  11
ENDBRANCH   8  10
ENDBRANCH   1   8
BRANCH   4  20
ATOM     20  C   UNL     1       6.436 -12.256  -0.111  0.00  0.00    -0.024 C 
BRANCH  20  21
ATOM     21  N   UNL     1       6.021 -12.905   1.140  0.00  0.00    +0.384 N 
ATOM     22  C   UNL     1       6.732 -12.290   2.268  0.00  0.00    -0.078 C 
ATOM     23  C   UNL     1       6.244 -12.907   3.580  0.00  0.00    -0.018 C 
ATOM     24  C   UNL     1       6.518 -14.414   3.563  0.00  0.00    -0.001 C 
ATOM     25  C   UNL     1       5.834 -15.033   2.341  0.00  0.00    -0.031 C 
ATOM     26  C   UNL     1       6.337 -14.337   1.074  0.00  0.00    -0.075 C 
ATOM     27  C   UNL     1       6.165 -16.525   2.271  0.00  0.00    +0.005 C 
ATOM     28  H   UNL     1       5.027 -12.786   1.266  0.00  0.00    -0.081 HD
ENDBRANCH  20  21
ENDBRANCH   4  20
TORSDOF 7
