REMARK  Name = ZINC36318613
REMARK  4 active torsions:
REMARK  status: ('A' for Active; 'I' for Inactive)
REMARK    1  A    between atoms: C_1  and  C_2
REMARK    2  A    between atoms: N_4  and  S_5
REMARK    3  A    between atoms: S_5  and  C_8
REMARK    4  A    between atoms: C_11  and  N_14
REMARK                            x       y       z     vdW  Elec       q    Type
REMARK                         _______ _______ _______ _____ _____    ______ ____
ROOT
ATOM      1  C   UNL     1      -2.755  -2.881   0.021  0.00  0.00    +0.113 A 
ATOM      2  C   UNL     1      -3.353  -3.254   1.211  0.00  0.00    +0.031 A 
ATOM      3  C   UNL     1      -4.668  -3.675   1.222  0.00  0.00    +0.025 A 
ATOM      4  C   UNL     1      -5.390  -3.724   0.036  0.00  0.00    +0.032 A 
ATOM      5  C   UNL     1      -4.786  -3.348  -1.157  0.00  0.00    +0.025 A 
ATOM      6  C   UNL     1      -3.473  -2.922  -1.160  0.00  0.00    +0.031 A 
ENDROOT
BRANCH   4   7
ATOM      7  N   UNL     1      -6.721  -4.150   0.044  0.00  0.00    -0.299 N 
ATOM      8  C   UNL     1      -7.527  -3.883   1.137  0.00  0.00    +0.136 A 
ATOM      9  C   UNL     1      -8.845  -4.413   1.206  0.00  0.00    +0.048 A 
ATOM     10  C   UNL     1      -9.559  -5.254   0.261  0.00  0.00    +0.021 A 
ATOM     11  C   UNL     1     -10.813  -5.637   0.542  0.00  0.00    +0.048 A 
ATOM     12  S   UNL     1     -11.133  -4.885   2.127  0.00  0.00    -0.077 S 
ATOM     13  C   UNL     1      -9.573  -4.075   2.368  0.00  0.00    +0.115 A 
ATOM     14  N   UNL     1      -9.050  -3.319   3.312  0.00  0.00    -0.210 NA
ATOM     15  C   UNL     1      -7.820  -2.855   3.191  0.00  0.00    +0.225 A 
ATOM     16  N   UNL     1      -7.079  -3.136   2.133  0.00  0.00    -0.202 NA
ATOM     17 CL   UNL     1      -7.159  -1.861   4.452  0.00  0.00    -0.041 Cl
ATOM     18  H   UNL     1      -7.080  -4.633  -0.717  0.00  0.00    +0.154 HD
ENDBRANCH   4   7
BRANCH   1  19
ATOM     19  S   UNL     1      -1.077  -2.344   0.011  0.00  0.00    +0.102 S 
ATOM     20  O   UNL     1      -0.587  -2.564  -1.305  0.00  0.00    -0.146 OA
ATOM     21  O   UNL     1      -0.461  -2.914   1.158  0.00  0.00    -0.146 OA
BRANCH  19  25
ATOM     22  C   UNL     1       0.019   1.440   0.493  0.00  0.00    +0.116 C 
ATOM     23  C   UNL     1       0.027  -0.051   0.280  0.00  0.00    +0.262 C 
ATOM     24  O   UNL     1       1.198  -0.705   0.127  0.00  0.00    -0.270 OA
ATOM     25  N   UNL     1      -1.085  -0.704   0.245  0.00  0.00    -0.091 NA
ENDBRANCH  19  25
ENDBRANCH   1  19
TORSDOF 3
