REMARK  Name = ZINC63044183
REMARK  4 active torsions:
REMARK  status: ('A' for Active; 'I' for Inactive)
REMARK    1  A    between atoms: C_1  and  C_2
REMARK    2  A    between atoms: C_2  and  C_4
REMARK    3  A    between atoms: C_4  and  C_5
REMARK    4  A    between atoms: C_10  and  N_11
REMARK                            x       y       z     vdW  Elec       q    Type
REMARK                         _______ _______ _______ _____ _____    ______ ____
ROOT
ATOM      1  C   UNL     1       0.733  -2.017   1.195  0.00  0.00    -0.014 A 
ATOM      2  C   UNL     1      -0.267  -2.711   1.840  0.00  0.00    +0.034 A 
ATOM      3  C   UNL     1      -0.263  -4.107   1.819  0.00  0.00    +0.078 A 
ATOM      4  C   UNL     1       0.769  -4.787   1.134  0.00  0.00    +0.067 A 
ATOM      5  C   UNL     1       1.770  -4.066   0.488  0.00  0.00    +0.048 A 
ATOM      6  C   UNL     1       1.742  -2.688   0.518  0.00  0.00    +0.130 A 
ATOM      7  C   UNL     1       0.744  -6.257   1.132  0.00  0.00    +0.259 A 
ATOM      8  O   UNL     1       1.603  -6.903   0.561  0.00  0.00    -0.267 OA
ATOM      9  N   UNL     1      -0.272  -6.864   1.790  0.00  0.00    -0.313 N 
ATOM     10  H   UNL     1      -0.320  -7.832   1.810  0.00  0.00    +0.170 HD
ATOM     11  C   UNL     1      -1.223  -6.129   2.423  0.00  0.00    +0.199 A 
ATOM     12  N   UNL     1      -1.227  -4.831   2.442  0.00  0.00    -0.237 NA
ENDROOT
BRANCH   6  13
ATOM     13  N   UNL     1       2.800  -1.918  -0.173  0.00  0.00    +0.057 N 
ATOM     14  O   UNL     1       3.623  -2.491  -0.848  0.00  0.00    -0.126 OA
ATOM     15  O   UNL     1       2.842  -0.715  -0.062  0.00  0.00    -0.126 OA
ENDBRANCH   6  13
BRANCH   1  16
ATOM     16  C   UNL     1       0.726  -0.510   1.218  0.00  0.00    +0.052 C 
BRANCH  16  18
ATOM     17  C   UNL     1       1.794   1.513   2.223  0.00  0.00    +0.020 C 
ATOM     18  C   UNL     1       1.704  -0.013   2.285  0.00  0.00    +0.058 C 
ATOM     19 BR   UNL     1       1.067  -0.560   4.063  0.00  0.00    -0.088 Br
ENDBRANCH  16  18
ENDBRANCH   1  16
TORSDOF 3
