REMARK  Name = ZINC17918572
REMARK  5 active torsions:
REMARK  status: ('A' for Active; 'I' for Inactive)
REMARK    1  A    between atoms: C_1  and  C_2
REMARK    2  A    between atoms: C_3  and  C_14
REMARK    3  A    between atoms: N_5  and  C_7
REMARK    4  A    between atoms: N_15  and  N_16
REMARK    5  A    between atoms: C_20  and  C_23
REMARK                            x       y       z     vdW  Elec       q    Type
REMARK                         _______ _______ _______ _____ _____    ______ ____
ROOT
ATOM      1  C   UNL     1      -0.018   1.503   0.010  0.00  0.00    +0.068 C 
ATOM      2  C   UNL     1       0.002  -0.004   0.002  0.00  0.00    +0.070 A 
ATOM      3  C   UNL     1       0.008  -0.826  -1.146  0.00  0.00    +0.054 A 
ATOM      4  C   UNL     1       0.029  -2.136  -0.712  0.00  0.00    +0.142 A 
ATOM      5  N   UNL     1       0.035  -2.112   0.639  0.00  0.00    -0.221 N 
ATOM      6  N   UNL     1       0.023  -0.776   1.055  0.00  0.00    -0.170 NA
ATOM      7 CL   UNL     1       0.044  -3.552  -1.716  0.00  0.00    -0.061 Cl
ENDROOT
BRANCH   5   8
ATOM      8  C   UNL     1       0.055  -3.233   1.479  0.00  0.00    +0.067 A 
ATOM      9  C   UNL     1      -0.615  -4.391   1.109  0.00  0.00    +0.028 A 
ATOM     10  C   UNL     1      -0.594  -5.495   1.940  0.00  0.00    +0.002 A 
ATOM     11  C   UNL     1       0.094  -5.446   3.139  0.00  0.00    +0.000 A 
ATOM     12  C   UNL     1       0.762  -4.294   3.510  0.00  0.00    +0.002 A 
ATOM     13  C   UNL     1       0.749  -3.189   2.681  0.00  0.00    +0.028 A 
ENDBRANCH   5   8
BRANCH   3  14
ATOM     14  C   UNL     1      -0.006  -0.370  -2.549  0.00  0.00    +0.143 C 
ATOM     15  N   UNL     1       0.002  -1.237  -3.514  0.00  0.00    -0.187 NA
BRANCH  15  16
ATOM     16  N   UNL     1      -0.012  -0.804  -4.846  0.00  0.00    -0.205 N 
ATOM     17  C   UNL     1      -0.004  -1.720  -5.864  0.00  0.00    +0.233 A 
ATOM     18  N   UNL     1       0.011  -3.007  -5.578  0.00  0.00    -0.173 NA
ATOM     19  C   UNL     1       0.019  -3.921  -6.554  0.00  0.00    +0.296 A 
ATOM     20  C   UNL     1       0.011  -3.482  -7.952  0.00  0.00    +0.124 A 
ATOM     21  N   UNL     1      -0.004  -2.203  -8.212  0.00  0.00    -0.171 NA
ATOM     22  N   UNL     1      -0.017  -1.286  -7.152  0.00  0.00    -0.247 N 
ATOM     23  C   UNL     1       0.020  -4.491  -9.072  0.00  0.00    +0.073 C 
ATOM     24  O   UNL     1       0.033  -5.112  -6.283  0.00  0.00    -0.264 OA
ATOM     25  H   UNL     1      -0.026   0.145  -5.047  0.00  0.00    +0.177 HD
ATOM     26  H   UNL     1      -0.032  -0.335  -7.339  0.00  0.00    +0.192 HD
ENDBRANCH  15  16
ENDBRANCH   3  14
TORSDOF 3
