REMARK  Name = ZINC18036126
REMARK  5 active torsions:
REMARK  status: ('A' for Active; 'I' for Inactive)
REMARK    1  A    between atoms: N_9  and  C_23
REMARK    2  A    between atoms: C_10  and  C_12
REMARK    3  A    between atoms: C_12  and  S_13
REMARK    4  A    between atoms: S_13  and  C_14
REMARK    5  A    between atoms: C_23  and  C_24
REMARK                            x       y       z     vdW  Elec       q    Type
REMARK                         _______ _______ _______ _____ _____    ______ ____
ROOT
ATOM      1  C   UNL     1      -5.668  -1.847  -2.137  0.00  0.00    +0.001 A 
ATOM      2  C   UNL     1      -6.117  -2.254  -0.887  0.00  0.00    +0.002 A 
ATOM      3  C   UNL     1      -5.543  -1.761   0.263  0.00  0.00    +0.028 A 
ATOM      4  C   UNL     1      -4.497  -0.841   0.175  0.00  0.00    +0.078 A 
ATOM      5  C   UNL     1      -4.043  -0.429  -1.098  0.00  0.00    +0.065 A 
ATOM      6  C   UNL     1      -4.638  -0.939  -2.250  0.00  0.00    +0.015 A 
ATOM      7  C   UNL     1      -2.943   0.545  -1.157  0.00  0.00    +0.262 A 
ATOM      8  O   UNL     1      -2.508   0.945  -2.221  0.00  0.00    -0.267 OA
ATOM      9  N   UNL     1      -2.430   0.977   0.019  0.00  0.00    -0.287 N 
ATOM     10  C   UNL     1      -2.930   0.527   1.199  0.00  0.00    +0.124 A 
ATOM     11  N   UNL     1      -3.903  -0.330   1.282  0.00  0.00    -0.233 NA
ENDROOT
BRANCH  10  12
ATOM     12  C   UNL     1      -2.324   1.046   2.477  0.00  0.00    +0.153 C 
BRANCH  12  13
ATOM     13  S   UNL     1      -3.165   0.294   3.893  0.00  0.00    -0.059 S 
BRANCH  13  14
ATOM     14  C   UNL     1      -2.282   1.057   5.213  0.00  0.00    +0.258 A 
ATOM     15  N   UNL     1      -2.507   0.847   6.486  0.00  0.00    -0.203 NA
ATOM     16  C   UNL     1      -1.639   1.603   7.213  0.00  0.00    +0.110 A 
ATOM     17  C   UNL     1      -1.425   1.777   8.581  0.00  0.00    +0.031 A 
ATOM     18  C   UNL     1      -0.440   2.637   9.014  0.00  0.00    +0.002 A 
ATOM     19  C   UNL     1       0.339   3.329   8.100  0.00  0.00    +0.004 A 
ATOM     20  C   UNL     1       0.138   3.166   6.744  0.00  0.00    +0.048 A 
ATOM     21  C   UNL     1      -0.848   2.305   6.291  0.00  0.00    +0.156 A 
ATOM     22  O   UNL     1      -1.275   1.936   5.061  0.00  0.00    -0.431 OA
ENDBRANCH  13  14
ENDBRANCH  12  13
ENDBRANCH  10  12
BRANCH   9  23
ATOM     23  C   UNL     1      -1.330   1.944   0.019  0.00  0.00    +0.222 C 
BRANCH  23  24
ATOM     24  C   UNL     1      -0.014   1.209   0.009  0.00  0.00    +0.230 C 
ATOM     25  O   UNL     1       0.002  -0.004   0.002  0.00  0.00    -0.274 OA
ATOM     26  N   UNL     1       1.143   1.898   0.001  0.00  0.00    -0.328 N 
ATOM     27  H   UNL     1       1.990   1.425  -0.009  0.00  0.00    +0.145 HD
ATOM     28  H   UNL     1       1.130   2.868   0.007  0.00  0.00    +0.145 HD
ENDBRANCH  23  24
ENDBRANCH   9  23
TORSDOF 5
