REMARK  Name = ZINC15735110
REMARK  9 active torsions:
REMARK  status: ('A' for Active; 'I' for Inactive)
REMARK    1  A    between atoms: C_1  and  C_2
REMARK    2  A    between atoms: C_5  and  S_23
REMARK    3  A    between atoms: C_7  and  N_8
REMARK    4  A    between atoms: C_9  and  C_11
REMARK    5  A    between atoms: C_17  and  C_22
REMARK    6  A    between atoms: C_18  and  C_21
REMARK    7  A    between atoms: S_23  and  N_26
REMARK    8  A    between atoms: N_26  and  C_27
REMARK    9  A    between atoms: N_26  and  C_28
REMARK                            x       y       z     vdW  Elec       q    Type
REMARK                         _______ _______ _______ _____ _____    ______ ____
ROOT
ATOM      1  N   UNL     1       0.026  -0.015   2.417  0.00  0.00    -0.281 N 
ATOM      2  C   UNL     1      -0.055  -0.695   3.578  0.00  0.00    +0.248 C 
ATOM      3  O   UNL     1      -0.040  -1.911   3.572  0.00  0.00    -0.270 OA
ATOM      4  H   UNL     1       0.080   0.953   2.424  0.00  0.00    +0.155 HD
ENDROOT
BRANCH   2   5
ATOM      5  C   UNL     1      -0.164   0.037   4.855  0.00  0.00    +0.038 A 
ATOM      6  C   UNL     1      -0.175   1.439   4.861  0.00  0.00    +0.015 A 
ATOM      7  C   UNL     1      -0.279   2.129   6.032  0.00  0.00    +0.027 A 
ATOM      8  C   UNL     1      -0.365   1.445   7.244  0.00  0.00    +0.047 A 
ATOM      9  C   UNL     1      -0.349   0.037   7.252  0.00  0.00    +0.004 A 
ATOM     10  C   UNL     1      -0.248  -0.666   6.054  0.00  0.00    +0.023 A 
ATOM     11  C   UNL     1      -0.453  -0.361   8.659  0.00  0.00    -0.022 A 
ATOM     12  C   UNL     1      -0.523   0.769   9.380  0.00  0.00    +0.017 A 
ATOM     13  N   UNL     1      -0.472   1.856   8.550  0.00  0.00    -0.358 N 
ATOM     14  H   UNL     1      -0.505   2.780   8.842  0.00  0.00    +0.166 HD
ATOM     15  C   UNL     1      -0.640   0.831  10.881  0.00  0.00    +0.063 C 
ATOM     16  C   UNL     1      -0.478  -1.770   9.194  0.00  0.00    +0.046 C 
ENDBRANCH   2   5
BRANCH   1  23
ATOM     17  C   UNL     1      -1.255   1.189   0.179  0.00  0.00    +0.045 C 
ATOM     18  C   UNL     1      -0.580  -0.155   0.083  0.00  0.00    -0.029 A 
ATOM     19  C   UNL     1      -0.575  -0.842  -1.115  0.00  0.00    +0.007 A 
ATOM     20  C   UNL     1       0.048  -2.073  -1.205  0.00  0.00    +0.029 A 
ATOM     21  C   UNL     1       0.660  -2.625  -0.094  0.00  0.00    +0.107 A 
ATOM     22  C   UNL     1       0.654  -1.945   1.108  0.00  0.00    +0.052 A 
ATOM     23  C   UNL     1       0.033  -0.706   1.201  0.00  0.00    +0.038 A 
BRANCH  21  24
ATOM     24  S   UNL     1       1.447  -4.197  -0.213  0.00  0.00    +0.060 S 
ATOM     25  O   UNL     1       1.786  -4.379  -1.581  0.00  0.00    -0.153 OA
ATOM     26  O   UNL     1       2.416  -4.245   0.825  0.00  0.00    -0.153 OA
BRANCH  24  27
ATOM     27  N   UNL     1       0.308  -5.343   0.149  0.00  0.00    -0.183 NA
ATOM     28  C   UNL     1      -0.516  -5.919  -0.916  0.00  0.00    +0.131 C 
ATOM     29  C   UNL     1       0.126  -5.782   1.535  0.00  0.00    +0.131 C 
ENDBRANCH  24  27
ENDBRANCH  21  24
ENDBRANCH   1  23
TORSDOF 4
