REMARK  Name = ZINC23123682
REMARK  10 active torsions:
REMARK  status: ('A' for Active; 'I' for Inactive)
REMARK    1  A    between atoms: C_1  and  C_2
REMARK    2  A    between atoms: C_2  and  N_3
REMARK    3  A    between atoms: N_3  and  C_4
REMARK    4  A    between atoms: N_3  and  S_6
REMARK    5  A    between atoms: C_4  and  C_5
REMARK    6  A    between atoms: S_6  and  C_9
REMARK    7  A    between atoms: C_12  and  N_30
REMARK    8  A    between atoms: C_13  and  C_15
REMARK    9  A    between atoms: C_22  and  C_29
REMARK   10  A    between atoms: C_24  and  O_25
REMARK                            x       y       z     vdW  Elec       q    Type
REMARK                         _______ _______ _______ _____ _____    ______ ____
ROOT
ATOM      1  C   UNL     1      -2.627   4.546   4.672  0.00  0.00    +0.106 A 
ATOM      2  C   UNL     1      -3.339   3.732   3.806  0.00  0.00    +0.030 A 
ATOM      3  C   UNL     1      -2.744   3.236   2.665  0.00  0.00    +0.026 A 
ATOM      4  C   UNL     1      -1.418   3.541   2.382  0.00  0.00    +0.042 A 
ATOM      5  C   UNL     1      -0.693   4.365   3.258  0.00  0.00    +0.060 A 
ATOM      6  C   UNL     1      -1.313   4.864   4.407  0.00  0.00    +0.043 A 
ENDROOT
BRANCH   5   7
ATOM      7  C   UNL     1       0.712   4.700   2.968  0.00  0.00    +0.250 C 
ATOM      8  O   UNL     1       1.248   4.263   1.968  0.00  0.00    -0.270 OA
ATOM      9  N   UNL     1       1.404   5.492   3.812  0.00  0.00    -0.281 N 
ATOM     10  C   UNL     1       2.759   5.732   3.589  0.00  0.00    +0.037 A 
ATOM     11  C   UNL     1       3.625   5.873   4.674  0.00  0.00    +0.024 A 
ATOM     12  C   UNL     1       4.954   6.103   4.472  0.00  0.00    +0.013 A 
ATOM     13  C   UNL     1       5.451   6.210   3.168  0.00  0.00    +0.021 A 
ATOM     14  C   UNL     1       6.872   6.462   2.922  0.00  0.00    -0.033 A 
ATOM     15  C   UNL     1       7.294   6.555   1.634  0.00  0.00    +0.091 A 
ATOM     16  C   UNL     1       6.369   6.409   0.580  0.00  0.00    +0.285 A 
ATOM     17  O   UNL     1       5.067   6.178   0.812  0.00  0.00    -0.425 OA
ATOM     18  C   UNL     1       4.583   6.075   2.069  0.00  0.00    +0.141 A 
ATOM     19  C   UNL     1       3.235   5.835   2.291  0.00  0.00    +0.070 A 
ATOM     20  C   UNL     1       7.841   6.615   4.066  0.00  0.00    +0.045 C 
ATOM     21  H   UNL     1       0.899   5.948   4.676  0.00  0.00    +0.155 HD
BRANCH  16  22
ATOM     22  O   UNL     1       6.760   6.494  -0.570  0.00  0.00    -0.480 OA
ATOM     23  H   UNL     1       6.050   6.383  -1.403  0.00  0.00    +0.295 HD
ENDBRANCH  16  22
ENDBRANCH   5   7
BRANCH   4  24
ATOM     24  N   UNL     1      -0.814   3.038   1.237  0.00  0.00    -0.325 N 
ATOM     25  C   UNL     1      -0.735   1.571   1.284  0.00  0.00    +0.133 C 
ATOM     26  C   UNL     1      -0.012   1.064   0.034  0.00  0.00    +0.178 C 
ATOM     27  O   UNL     1      -0.697   1.533  -1.131  0.00  0.00    -0.377 OA
ATOM     28  C   UNL     1      -0.792   2.958  -1.209  0.00  0.00    +0.178 C 
ATOM     29  C   UNL     1      -1.523   3.484   0.029  0.00  0.00    +0.133 C 
ENDBRANCH   4  24
BRANCH   1  30
ATOM     30  S   UNL     1      -3.406   5.177   6.121  0.00  0.00    +0.061 S 
ATOM     31  O   UNL     1      -4.474   4.292   6.426  0.00  0.00    -0.153 OA
ATOM     32  O   UNL     1      -2.368   5.466   7.047  0.00  0.00    -0.153 OA
BRANCH  30  33
ATOM     33  N   UNL     1      -4.094   6.628   5.715  0.00  0.00    -0.177 NA
BRANCH  33  35
ATOM     34  C   UNL     1      -6.424   6.960   6.381  0.00  0.00    +0.022 C 
ATOM     35  C   UNL     1      -5.472   6.671   5.219  0.00  0.00    +0.106 C 
ENDBRANCH  33  35
BRANCH  33  36
ATOM     36  C   UNL     1      -3.325   7.867   5.851  0.00  0.00    +0.106 C 
ATOM     37  C   UNL     1      -2.676   8.215   4.510  0.00  0.00    +0.022 C 
ENDBRANCH  33  36
ENDBRANCH  30  33
ENDBRANCH   1  30
TORSDOF 7
