REMARK  Name = ZINC00200898
REMARK  5 active torsions:
REMARK  status: ('A' for Active; 'I' for Inactive)
REMARK    1  A    between atoms: C_1  and  C_2
REMARK    2  A    between atoms: C_2  and  C_20
REMARK    3  A    between atoms: C_3  and  C_4
REMARK    4  A    between atoms: C_4  and  O_5
REMARK    5  A    between atoms: O_5  and  C_6
REMARK                            x       y       z     vdW  Elec       q    Type
REMARK                         _______ _______ _______ _____ _____    ______ ____
ROOT
ATOM      1  C   UNL     1       3.178   4.783   1.014  0.00  0.00    +0.124 A 
ATOM      2  C   UNL     1       1.874   5.249   1.169  0.00  0.00    +0.046 A 
ATOM      3  C   UNL     1       0.867   4.389   1.500  0.00  0.00    +0.015 A 
ATOM      4  C   UNL     1       1.146   3.030   1.684  0.00  0.00    +0.021 A 
ATOM      5  C   UNL     1       2.461   2.554   1.528  0.00  0.00    +0.143 A 
ATOM      6  C   UNL     1       3.472   3.441   1.192  0.00  0.00    +0.092 A 
ATOM      7  O   UNL     1       2.723   1.241   1.706  0.00  0.00    -0.422 OA
ATOM      8  C   UNL     1       1.756   0.371   2.034  0.00  0.00    +0.341 A 
ATOM      9  O   UNL     1       2.042  -0.803   2.184  0.00  0.00    -0.245 OA
ATOM     10  C   UNL     1       0.413   0.778   2.204  0.00  0.00    +0.041 A 
ATOM     11  C   UNL     1       0.086   2.085   2.042  0.00  0.00    -0.027 A 
ATOM     12  C   UNL     1      -1.393   2.290   2.277  0.00  0.00    +0.036 C 
ATOM     13  C   UNL     1      -1.857   1.024   3.031  0.00  0.00    +0.010 C 
ATOM     14  C   UNL     1      -0.818  -0.022   2.573  0.00  0.00    +0.043 C 
ENDROOT
BRANCH   1  15
ATOM     15  O   UNL     1       4.169   5.651   0.686  0.00  0.00    -0.488 OA
BRANCH  15  16
ATOM     16  C   UNL     1       3.801   7.021   0.517  0.00  0.00    +0.256 C 
BRANCH  16  19
ATOM     17  C   UNL     1       4.210   9.559   1.677  0.00  0.00    +0.038 C 
ATOM     18  C   UNL     1       5.240   8.981   0.742  0.00  0.00    -0.076 C 
ATOM     19  C   UNL     1       5.022   7.829   0.158  0.00  0.00    +0.012 C 
ATOM     20  C   UNL     1       6.523   9.727   0.479  0.00  0.00    +0.038 C 
ENDBRANCH  16  19
ENDBRANCH  15  16
ENDBRANCH   1  15
TORSDOF 3
