REMARK  Name = ZINC39573702
REMARK  7 active torsions:
REMARK  status: ('A' for Active; 'I' for Inactive)
REMARK    1  A    between atoms: C_1  and  O_2
REMARK    2  A    between atoms: O_2  and  C_3
REMARK    3  A    between atoms: C_5  and  C_10
REMARK    4  A    between atoms: C_8  and  O_9
REMARK    5  A    between atoms: N_11  and  N_12
REMARK    6  A    between atoms: C_13  and  C_15
REMARK    7  A    between atoms: C_18  and  C_21
REMARK                            x       y       z     vdW  Elec       q    Type
REMARK                         _______ _______ _______ _____ _____    ______ ____
ROOT
ATOM      1  N   UNL     1       3.678   0.748   6.202  0.00  0.00    -0.205 N 
ATOM      2  C   UNL     1       4.222   0.026   7.201  0.00  0.00    +0.263 C 
ATOM      3  O   UNL     1       4.155  -1.185   7.180  0.00  0.00    -0.271 OA
ATOM      4  H   UNL     1       3.732   1.717   6.218  0.00  0.00    +0.177 HD
ENDROOT
BRANCH   2   5
ATOM      5  C   UNL     1       4.913   0.723   8.345  0.00  0.00    +0.240 C 
ATOM      6  C   UNL     1       3.902   1.194   9.375  0.00  0.00    +0.041 C 
ATOM      7  C   UNL     1       4.246   0.525  10.494  0.00  0.00    +0.092 C 
ATOM      8  N   UNL     1       5.320  -0.274  10.257  0.00  0.00    -0.153 NA
ATOM      9  N   UNL     1       5.752  -0.223   9.099  0.00  0.00    -0.170 NA
BRANCH   7  10
ATOM     10  C   UNL     1       3.551   0.643  11.797  0.00  0.00    +0.010 A 
ATOM     11  C   UNL     1       2.193   0.395  11.890  0.00  0.00    +0.011 A 
ATOM     12  C   UNL     1       1.534   0.504  13.109  0.00  0.00    +0.001 A 
ATOM     13  C   UNL     1       2.203   0.857  14.243  0.00  0.00    +0.008 A 
ATOM     14  C   UNL     1       3.583   1.118  14.193  0.00  0.00    -0.017 A 
ATOM     15  C   UNL     1       4.271   1.006  12.960  0.00  0.00    -0.009 A 
ATOM     16  C   UNL     1       5.649   1.261  12.914  0.00  0.00    +0.009 A 
ATOM     17  C   UNL     1       6.309   1.607  14.054  0.00  0.00    +0.001 A 
ATOM     18  C   UNL     1       5.636   1.712  15.269  0.00  0.00    +0.001 A 
ATOM     19  C   UNL     1       4.296   1.485  15.348  0.00  0.00    +0.008 A 
ENDBRANCH   7  10
ENDBRANCH   2   5
BRANCH   1  21
ATOM     20  C   UNL     1       2.512   0.796   4.176  0.00  0.00    +0.138 C 
ATOM     21  N   UNL     1       3.036   0.100   5.138  0.00  0.00    -0.188 NA
BRANCH  20  24
ATOM     22  C   UNL     1       0.639   0.217   0.973  0.00  0.00    +0.162 A 
ATOM     23  C   UNL     1       1.272   0.861   2.020  0.00  0.00    +0.058 A 
ATOM     24  C   UNL     1       1.836   0.114   3.057  0.00  0.00    -0.002 A 
ATOM     25  C   UNL     1       1.758  -1.281   3.031  0.00  0.00    +0.013 A 
ATOM     26  C   UNL     1       1.126  -1.917   1.984  0.00  0.00    +0.050 A 
ATOM     27  C   UNL     1       0.561  -1.174   0.957  0.00  0.00    +0.158 A 
BRANCH  22  29
ATOM     28  C   UNL     1       0.206   2.362   0.044  0.00  0.00    +0.277 C 
ATOM     29  O   UNL     1       0.088   0.941  -0.038  0.00  0.00    -0.491 OA
ENDBRANCH  22  29
BRANCH  27  30
ATOM     30  O   UNL     1      -0.066  -1.806  -0.070  0.00  0.00    -0.503 OA
ATOM     31  H   UNL     1       0.516  -2.026  -0.811  0.00  0.00    +0.292 HD
ENDBRANCH  27  30
ENDBRANCH  20  24
ENDBRANCH   1  21
TORSDOF 6
