REMARK  Name = ZINC07747505
REMARK  8 active torsions:
REMARK  status: ('A' for Active; 'I' for Inactive)
REMARK    1  A    between atoms: C_1  and  C_2
REMARK    2  A    between atoms: C_2  and  O_3
REMARK    3  A    between atoms: O_3  and  C_4
REMARK    4  A    between atoms: C_4  and  C_6
REMARK    5  A    between atoms: C_7  and  C_26
REMARK    6  A    between atoms: C_8  and  C_13
REMARK    7  A    between atoms: C_11  and  C_12
REMARK    8  A    between atoms: C_19  and  C_25
REMARK                            x       y       z     vdW  Elec       q    Type
REMARK                         _______ _______ _______ _____ _____    ______ ____
ROOT
ATOM      1  C   UNL     1       1.282   1.712   2.776  0.00  0.00    +0.266 C 
ATOM      2  O   UNL     1       2.065   1.331   1.926  0.00  0.00    -0.268 OA
ATOM      3  N   UNL     1       1.725   2.015   4.013  0.00  0.00    -0.259 N 
ATOM      4  C   UNL     1       3.070   1.891   4.316  0.00  0.00    +0.166 A 
ATOM      5  N   UNL     1       3.684   2.135   5.450  0.00  0.00    -0.224 NA
ATOM      6  C   UNL     1       5.015   1.968   5.606  0.00  0.00    +0.083 A 
ATOM      7  C   UNL     1       5.794   2.192   6.764  0.00  0.00    -0.024 A 
ATOM      8  C   UNL     1       7.146   1.971   6.753  0.00  0.00    +0.005 A 
ATOM      9  C   UNL     1       7.798   1.522   5.613  0.00  0.00    +0.001 A 
ATOM     10  C   UNL     1       7.067   1.292   4.462  0.00  0.00    +0.017 A 
ATOM     11  C   UNL     1       5.712   1.511   4.464  0.00  0.00    +0.041 A 
ATOM     12  S   UNL     1       4.411   1.351   3.265  0.00  0.00    -0.052 S 
ATOM     13  C   UNL     1       5.130   2.681   8.026  0.00  0.00    +0.046 C 
ATOM     14  H   UNL     1       1.101   2.319   4.690  0.00  0.00    +0.157 HD
ENDROOT
BRANCH   1  17
ATOM     15  C   UNL     1      -2.100   1.838   1.379  0.00  0.00    +0.083 A 
ATOM     16  C   UNL     1      -0.718   1.572   1.248  0.00  0.00    -0.006 A 
ATOM     17  C   UNL     1      -0.143   1.844   2.454  0.00  0.00    +0.106 A 
ATOM     18  N   UNL     1      -1.130   2.263   3.320  0.00  0.00    -0.354 N 
ATOM     19  H   UNL     1      -0.994   2.520   4.245  0.00  0.00    +0.166 HD
ATOM     20  C   UNL     1      -2.310   2.258   2.680  0.00  0.00    +0.028 A 
ATOM     21  C   UNL     1      -3.638   2.651   3.276  0.00  0.00    +0.064 C 
ATOM     22  C   UNL     1      -0.013   1.086   0.008  0.00  0.00    +0.047 C 
BRANCH  15  23
ATOM     23  C   UNL     1      -3.123   1.693   0.330  0.00  0.00    +0.341 C 
ATOM     24  O   UNL     1      -3.709   0.637   0.195  0.00  0.00    -0.245 OA
BRANCH  23  25
ATOM     25  O   UNL     1      -3.410   2.731  -0.480  0.00  0.00    -0.461 OA
BRANCH  25  27
ATOM     26  C   UNL     1      -4.615   3.797  -2.308  0.00  0.00    +0.048 C 
ATOM     27  C   UNL     1      -4.429   2.516  -1.492  0.00  0.00    +0.229 C 
ENDBRANCH  25  27
ENDBRANCH  23  25
ENDBRANCH  15  23
ENDBRANCH   1  17
TORSDOF 4
