REMARK  Name = ZINC34829922
REMARK  7 active torsions:
REMARK  status: ('A' for Active; 'I' for Inactive)
REMARK    1  A    between atoms: C_1  and  C_2
REMARK    2  A    between atoms: C_2  and  C_3
REMARK    3  A    between atoms: C_6  and  C_9
REMARK    4  A    between atoms: C_16  and  C_18
REMARK    5  A    between atoms: C_19  and  C_21
REMARK    6  A    between atoms: C_21  and  N_22
REMARK    7  A    between atoms: C_30  and  C_32
REMARK                            x       y       z     vdW  Elec       q    Type
REMARK                         _______ _______ _______ _____ _____    ______ ____
ROOT
ATOM      1  C   UNL     1       2.821  -1.512   4.788  0.00  0.00    +0.247 C 
ATOM      2  O   UNL     1       4.016  -1.721   4.716  0.00  0.00    -0.270 OA
ATOM      3  N   UNL     1       2.147  -1.835   5.910  0.00  0.00    -0.292 N 
ATOM      4  C   UNL     1       0.700  -1.594   6.009  0.00  0.00    +0.127 C 
ATOM      5  C   UNL     1       0.430  -0.737   7.252  0.00  0.00    +0.127 C 
ATOM      6  N   UNL     1       1.128  -1.338   8.397  0.00  0.00    -0.297 N 
ATOM      7  C   UNL     1       2.575  -1.579   8.298  0.00  0.00    +0.130 C 
ATOM      8  C   UNL     1       2.844  -2.441   7.053  0.00  0.00    +0.091 C 
ATOM      9  C   UNL     1       4.347  -2.487   6.772  0.00  0.00    +0.029 C 
ATOM     10  C   UNL     1       0.454  -1.661   9.518  0.00  0.00    +0.230 C 
ATOM     11  O   UNL     1       1.041  -2.156  10.457  0.00  0.00    -0.274 OA
ENDROOT
BRANCH   1  15
ATOM     12  C   UNL     1       0.769   0.238   1.507  0.00  0.00    -0.048 A 
ATOM     13  C   UNL     1       2.087   0.577   1.754  0.00  0.00    +0.004 A 
ATOM     14  C   UNL     1       2.760   0.012   2.819  0.00  0.00    +0.013 A 
ATOM     15  C   UNL     1       2.107  -0.902   3.646  0.00  0.00    +0.037 A 
ATOM     16  C   UNL     1       0.776  -1.240   3.391  0.00  0.00    +0.013 A 
ATOM     17  C   UNL     1       0.114  -0.663   2.326  0.00  0.00    +0.004 A 
BRANCH  12  19
ATOM     18  C   UNL     1      -0.637   2.153   0.796  0.00  0.00    +0.009 C 
ATOM     19  C   UNL     1       0.041   0.859   0.342  0.00  0.00    +0.032 C 
ENDBRANCH  12  19
ENDBRANCH   1  15
BRANCH  10  20
ATOM     20  C   UNL     1      -1.029  -1.407   9.606  0.00  0.00    +0.181 C 
BRANCH  20  21
ATOM     21  N   UNL     1      -1.524  -1.843  10.918  0.00  0.00    -0.283 NA
ATOM     22  C   UNL     1      -0.938  -1.035  11.997  0.00  0.00    +0.091 C 
ATOM     23  C   UNL     1      -1.145  -1.768  13.334  0.00  0.00    +0.058 C 
ATOM     24  C   UNL     1      -2.567  -2.223  13.387  0.00  0.00    -0.004 A 
ATOM     25  C   UNL     1      -3.446  -2.271  12.346  0.00  0.00    -0.016 A 
ATOM     26  C   UNL     1      -4.728  -2.731  12.636  0.00  0.00    +0.013 A 
ATOM     27  C   UNL     1      -5.045  -3.103  13.898  0.00  0.00    +0.046 A 
ATOM     28  S   UNL     1      -3.509  -2.816  14.764  0.00  0.00    -0.101 S 
ATOM     29  C   UNL     1      -2.992  -1.834  10.957  0.00  0.00    +0.118 C 
BRANCH  29  30
ATOM     30  C   UNL     1      -3.531  -2.790   9.925  0.00  0.00    -0.023 A 
ATOM     31  C   UNL     1      -2.915  -4.012   9.726  0.00  0.00    +0.006 A 
ATOM     32  C   UNL     1      -3.409  -4.890   8.779  0.00  0.00    +0.003 A 
ATOM     33  C   UNL     1      -4.518  -4.547   8.030  0.00  0.00    +0.038 A 
ATOM     34  C   UNL     1      -5.136  -3.324   8.228  0.00  0.00    +0.124 A 
ATOM     35  C   UNL     1      -4.644  -2.448   9.181  0.00  0.00    +0.043 A 
ATOM     36  F   UNL     1      -6.220  -2.988   7.496  0.00  0.00    -0.205 F 
ENDBRANCH  29  30
ENDBRANCH  20  21
ENDBRANCH  10  20
TORSDOF 5
