REMARK  Name = ZINC32900666
REMARK  7 active torsions:
REMARK  status: ('A' for Active; 'I' for Inactive)
REMARK    1  A    between atoms: C_1  and  N_2
REMARK    2  A    between atoms: N_2  and  C_3
REMARK    3  A    between atoms: N_2  and  C_26
REMARK    4  A    between atoms: C_3  and  C_4
REMARK    5  A    between atoms: C_9  and  N_10
REMARK    6  A    between atoms: C_11  and  C_13
REMARK    7  A    between atoms: C_13  and  C_14
REMARK                            x       y       z     vdW  Elec       q    Type
REMARK                         _______ _______ _______ _____ _____    ______ ____
ROOT
ATOM      1  N   UNL     1      -2.748   1.980  -3.740  0.00  0.00    -0.285 N 
ATOM      2  C   UNL     1      -2.202   1.685  -2.544  0.00  0.00    +0.221 C 
ATOM      3  O   UNL     1      -2.785   0.951  -1.774  0.00  0.00    -0.275 OA
ATOM      4  H   UNL     1      -2.259   2.707  -4.404  0.00  0.00    +0.155 HD
ENDROOT
BRANCH   1  10
ATOM      5  C   UNL     1      -4.155   1.062  -5.476  0.00  0.00    -0.043 A 
ATOM      6  C   UNL     1      -5.330   0.450  -5.864  0.00  0.00    +0.003 A 
ATOM      7  C   UNL     1      -6.292   0.134  -4.922  0.00  0.00    +0.000 A 
ATOM      8  C   UNL     1      -6.079   0.429  -3.587  0.00  0.00    +0.002 A 
ATOM      9  C   UNL     1      -4.903   1.036  -3.192  0.00  0.00    +0.023 A 
ATOM     10  C   UNL     1      -3.938   1.360  -4.137  0.00  0.00    +0.035 A 
BRANCH   5  11
ATOM     11  C   UNL     1      -3.108   1.406  -6.503  0.00  0.00    -0.041 C 
BRANCH  11  13
ATOM     12  C   UNL     1      -4.347   3.240  -7.486  0.00  0.00    -0.095 C 
ATOM     13  N   UNL     1      -3.130   2.852  -6.760  0.00  0.00    +0.382 N 
ATOM     14  H   UNL     1      -3.138   3.368  -5.788  0.00  0.00    -0.081 HD
BRANCH  13  15
ATOM     15  C   UNL     1      -1.926   3.277  -7.486  0.00  0.00    -0.069 C 
ATOM     16  C   UNL     1      -0.685   2.945  -6.654  0.00  0.00    -0.015 C 
ATOM     17  C   UNL     1       0.569   3.387  -7.410  0.00  0.00    -0.002 C 
ATOM     18  C   UNL     1       0.510   4.896  -7.658  0.00  0.00    -0.000 C 
ATOM     19  C   UNL     1      -0.731   5.228  -8.490  0.00  0.00    -0.002 C 
ATOM     20  C   UNL     1      -1.985   4.786  -7.733  0.00  0.00    -0.015 C 
ENDBRANCH  13  15
ENDBRANCH  11  13
ENDBRANCH   5  11
ENDBRANCH   1  10
BRANCH   2  21
ATOM     21  C   UNL     1      -0.865   2.268  -2.162  0.00  0.00    +0.150 C 
BRANCH  21  22
ATOM     22  C   UNL     1      -0.476   1.779  -0.765  0.00  0.00    +0.268 C 
ATOM     23  C   UNL     1       0.800   2.457  -0.334  0.00  0.00    +0.259 C 
ATOM     24  O   UNL     1       0.755   3.484   0.310  0.00  0.00    -0.271 OA
ATOM     25  N   UNL     1       1.991   1.918  -0.668  0.00  0.00    -0.280 N 
ATOM     26  C   UNL     1       2.024   0.669  -1.301  0.00  0.00    +0.076 A 
ATOM     27  C   UNL     1       3.199   0.195  -1.863  0.00  0.00    +0.027 A 
ATOM     28  C   UNL     1       3.207  -1.027  -2.510  0.00  0.00    +0.002 A 
ATOM     29  C   UNL     1       2.048  -1.776  -2.598  0.00  0.00    +0.004 A 
ATOM     30  C   UNL     1       0.874  -1.311  -2.035  0.00  0.00    +0.047 A 
ATOM     31  C   UNL     1       0.859  -0.091  -1.380  0.00  0.00    +0.143 A 
ATOM     32  O   UNL     1      -0.282   0.363  -0.795  0.00  0.00    -0.477 OA
ATOM     33  H   UNL     1       2.922   2.459  -0.442  0.00  0.00    +0.155 HD
ENDBRANCH  21  22
ENDBRANCH   2  21
TORSDOF 6
