REMARK  Name = ZINC57570418
REMARK  6 active torsions:
REMARK  status: ('A' for Active; 'I' for Inactive)
REMARK    1  A    between atoms: C_1  and  C_2
REMARK    2  A    between atoms: C_2  and  C_3
REMARK    3  A    between atoms: C_2  and  C_4
REMARK    4  A    between atoms: C_2  and  C_5
REMARK    5  A    between atoms: C_8  and  N_11
REMARK    6  A    between atoms: C_15  and  C_18
REMARK                            x       y       z     vdW  Elec       q    Type
REMARK                         _______ _______ _______ _____ _____    ______ ____
ROOT
ATOM      1  N   UNL     1       2.657  -1.835  -4.668  0.00  0.00    -0.228 N 
ATOM      2  C   UNL     1       3.087  -1.013  -5.634  0.00  0.00    +0.226 C 
ATOM      3  O   UNL     1       2.965   0.193  -5.633  0.00  0.00    -0.275 OA
ATOM      4  C   UNL     1       3.750  -1.822  -6.726  0.00  0.00    +0.119 C 
ATOM      5  C   UNL     1       3.636  -3.279  -6.236  0.00  0.00    +0.174 C 
ATOM      6  C   UNL     1       2.924  -3.158  -4.907  0.00  0.00    +0.115 C 
ATOM      7  N   UNL     1       2.616  -4.140  -4.127  0.00  0.00    -0.288 NA
ATOM      8  H   UNL     1       2.093  -3.978  -3.326  0.00  0.00    +0.188 HD
ENDROOT
BRANCH   1  12
ATOM      9  C   UNL     1       0.700  -0.491  -1.242  0.00  0.00    -0.042 A 
ATOM     10  C   UNL     1       0.015  -1.243  -2.177  0.00  0.00    +0.006 A 
ATOM     11  C   UNL     1       0.660  -1.690  -3.314  0.00  0.00    +0.024 A 
ATOM     12  C   UNL     1       1.999  -1.382  -3.516  0.00  0.00    +0.042 A 
ATOM     13  C   UNL     1       2.685  -0.626  -2.575  0.00  0.00    +0.024 A 
ATOM     14  C   UNL     1       2.032  -0.178  -1.443  0.00  0.00    +0.006 A 
BRANCH   9  16
ATOM     15  C   UNL     1       0.025   1.524   0.036  0.00  0.00    +0.015 C 
ATOM     16  C   UNL     1      -0.007  -0.005  -0.003  0.00  0.00    -0.013 C 
ATOM     17  C   UNL     1       0.696  -0.561   1.237  0.00  0.00    +0.015 C 
ATOM     18  C   UNL     1      -1.460  -0.485  -0.024  0.00  0.00    +0.015 C 
ENDBRANCH   9  16
ENDBRANCH   1  12
BRANCH   5  19
ATOM     19  C   UNL     1       2.825  -4.101  -7.204  0.00  0.00    +0.367 C 
ATOM     20  O   UNL     1       3.162  -5.243  -7.466  0.00  0.00    -0.246 OA
ATOM     21  O   UNL     1       1.831  -3.624  -7.725  0.00  0.00    -0.246 OA
ENDBRANCH   5  19
TORSDOF 3
