REMARK  Name = ZINC60391018
REMARK  10 active torsions:
REMARK  status: ('A' for Active; 'I' for Inactive)
REMARK    1  A    between atoms: C_4  and  C_7
REMARK    2  A    between atoms: C_7  and  C_9
REMARK    3  A    between atoms: C_7  and  N_31
REMARK    4  A    between atoms: C_9  and  N_10
REMARK    5  A    between atoms: C_11  and  C_13
REMARK    6  A    between atoms: C_18  and  S_19
REMARK    7  A    between atoms: S_19  and  C_20
REMARK    8  A    between atoms: C_20  and  C_21
REMARK    9  A    between atoms: N_23  and  C_24
REMARK   10  A    between atoms: C_24  and  C_25
REMARK                            x       y       z     vdW  Elec       q    Type
REMARK                         _______ _______ _______ _____ _____    ______ ____
ROOT
ATOM      1  C   UNL     1       6.990  -3.359   2.400  0.00  0.00    +0.050 A 
ATOM      2  C   UNL     1       7.554  -3.707   1.169  0.00  0.00    +0.014 A 
ATOM      3  C   UNL     1       8.631  -4.564   1.125  0.00  0.00    +0.001 A 
ATOM      4  C   UNL     1       9.160  -5.086   2.295  0.00  0.00    +0.001 A 
ATOM      5  C   UNL     1       8.615  -4.754   3.517  0.00  0.00    +0.015 A 
ATOM      6  C   UNL     1       7.532  -3.885   3.584  0.00  0.00    +0.020 A 
ENDROOT
BRANCH   1   8
ATOM      7  N   UNL     1       5.320  -1.941   1.316  0.00  0.00    -0.313 N 
ATOM      8  C   UNL     1       5.837  -2.443   2.455  0.00  0.00    +0.245 C 
ATOM      9  O   UNL     1       5.352  -2.139   3.528  0.00  0.00    -0.270 OA
ATOM     10  H   UNL     1       5.707  -2.183   0.460  0.00  0.00    +0.149 HD
BRANCH   7  11
ATOM     11  C   UNL     1       4.174  -1.030   1.370  0.00  0.00    +0.094 C 
BRANCH  11  12
ATOM     12  C   UNL     1       3.870  -0.508  -0.035  0.00  0.00    -0.020 C 
BRANCH  12  16
ATOM     13  C   UNL     1       7.127   1.896  -1.399  0.00  0.00    +0.000 A 
ATOM     14  C   UNL     1       7.011   0.586  -1.822  0.00  0.00    +0.000 A 
ATOM     15  C   UNL     1       5.957  -0.193  -1.381  0.00  0.00    +0.002 A 
ATOM     16  C   UNL     1       5.019   0.340  -0.516  0.00  0.00    -0.059 A 
ATOM     17  C   UNL     1       5.136   1.651  -0.092  0.00  0.00    +0.002 A 
ATOM     18  C   UNL     1       6.189   2.429  -0.535  0.00  0.00    +0.000 A 
ENDBRANCH  12  16
BRANCH  12  19
ATOM     19  N   UNL     1       2.645   0.302  -0.003  0.00  0.00    +0.385 N 
ATOM     20  C   UNL     1       2.327   0.805  -1.363  0.00  0.00    -0.078 C 
ATOM     21  C   UNL     1       0.811   1.116  -1.282  0.00  0.00    -0.020 C 
ATOM     22  C   UNL     1       0.271  -0.029  -0.394  0.00  0.00    -0.020 C 
ATOM     23  C   UNL     1       1.492  -0.534   0.397  0.00  0.00    -0.078 C 
ATOM     24  H   UNL     1       2.754   1.073   0.638  0.00  0.00    -0.081 HD
ENDBRANCH  12  19
ENDBRANCH  11  12
ENDBRANCH   7  11
ENDBRANCH   1   8
BRANCH   6  25
ATOM     25  S   UNL     1       6.838  -3.452   5.144  0.00  0.00    -0.115 S 
BRANCH  25  26
ATOM     26  C   UNL     1       7.854  -4.358   6.343  0.00  0.00    +0.170 C 
BRANCH  26  27
ATOM     27  C   UNL     1       7.361  -4.072   7.738  0.00  0.00    +0.223 C 
ATOM     28  O   UNL     1       6.416  -3.330   7.907  0.00  0.00    -0.275 OA
ATOM     29  N   UNL     1       7.969  -4.640   8.798  0.00  0.00    -0.314 N 
ATOM     30  H   UNL     1       8.724  -5.234   8.663  0.00  0.00    +0.149 HD
BRANCH  29  31
ATOM     31  C   UNL     1       7.489  -4.362  10.154  0.00  0.00    +0.107 C 
BRANCH  31  32
ATOM     32  C   UNL     1       8.346  -5.126  11.165  0.00  0.00    +0.006 C 
ATOM     33  C   UNL     1       8.149  -6.630  10.966  0.00  0.00    +0.005 C 
ATOM     34  C   UNL     1       9.007  -7.394  11.978  0.00  0.00    +0.000 C 
ATOM     35  C   UNL     1       8.587  -7.008  13.397  0.00  0.00    +0.000 C 
ATOM     36  C   UNL     1       8.783  -5.504  13.596  0.00  0.00    +0.000 C 
ATOM     37  C   UNL     1       7.926  -4.740  12.585  0.00  0.00    +0.005 C 
ENDBRANCH  31  32
ENDBRANCH  29  31
ENDBRANCH  26  27
ENDBRANCH  25  26
ENDBRANCH   6  25
TORSDOF 10
