REMARK  Name = ZINC66790382
REMARK  4 active torsions:
REMARK  status: ('A' for Active; 'I' for Inactive)
REMARK    1  A    between atoms: C_8  and  C_12
REMARK    2  A    between atoms: N_14  and  N_15
REMARK    3  A    between atoms: C_16  and  C_18
REMARK    4  A    between atoms: C_18  and  C_19
REMARK                            x       y       z     vdW  Elec       q    Type
REMARK                         _______ _______ _______ _____ _____    ______ ____
ROOT
ATOM      1  C   UNL     1      -4.218  -2.890   0.023  0.00  0.00    +0.267 C 
ATOM      2  O   UNL     1      -5.095  -2.045   0.036  0.00  0.00    -0.268 OA
ATOM      3  N   UNL     1      -4.543  -4.198   0.018  0.00  0.00    -0.230 N 
ATOM      4  H   UNL     1      -3.844  -4.871   0.008  0.00  0.00    +0.173 HD
ENDROOT
BRANCH   1  12
ATOM      5  C   UNL     1      -0.017   1.372   0.010  0.00  0.00    +0.101 A 
ATOM      6  C   UNL     1       1.119   2.069   0.003  0.00  0.00    +0.067 A 
ATOM      7  S   UNL     1       2.347   0.772  -0.016  0.00  0.00    -0.058 S 
ATOM      8  C   UNL     1       1.228  -0.611  -0.013  0.00  0.00    +0.179 A 
ATOM      9  N   UNL     1       0.002  -0.004   0.002  0.00  0.00    -0.293 N 
ATOM     10  C   UNL     1      -0.946  -1.063   0.005  0.00  0.00    +0.082 A 
ATOM     11  C   UNL     1      -2.322  -1.222   0.016  0.00  0.00    +0.049 A 
ATOM     12  C   UNL     1      -2.856  -2.498   0.013  0.00  0.00    +0.079 A 
ATOM     13  S   UNL     1      -1.396  -3.525  -0.006  0.00  0.00    -0.062 S 
ATOM     14  C   UNL     1      -0.178  -2.233  -0.009  0.00  0.00    +0.128 A 
ATOM     15  N   UNL     1       1.109  -1.912  -0.018  0.00  0.00    -0.214 NA
ENDBRANCH   1  12
BRANCH   3  16
ATOM     16  N   UNL     1      -5.889  -4.586   0.028  0.00  0.00    -0.234 N 
ATOM     17  C   UNL     1      -6.213  -5.894   0.023  0.00  0.00    +0.229 C 
ATOM     18  O   UNL     1      -5.340  -6.736   0.010  0.00  0.00    -0.274 OA
ATOM     19  H   UNL     1      -6.587  -3.913   0.039  0.00  0.00    +0.173 HD
BRANCH  17  20
ATOM     20  C   UNL     1      -7.661  -6.311   0.034  0.00  0.00    +0.101 C 
BRANCH  20  21
ATOM     21  C   UNL     1      -7.752  -7.839   0.026  0.00  0.00    -0.002 C 
ATOM     22  C   UNL     1      -7.186  -8.376  -1.290  0.00  0.00    +0.004 C 
ATOM     23  C   UNL     1      -7.276  -9.903  -1.299  0.00  0.00    +0.000 C 
ATOM     24  C   UNL     1      -8.740 -10.328  -1.162  0.00  0.00    +0.000 C 
ATOM     25  C   UNL     1      -9.306  -9.791   0.154  0.00  0.00    +0.000 C 
ATOM     26  C   UNL     1      -9.216  -8.264   0.162  0.00  0.00    +0.004 C 
ENDBRANCH  20  21
ENDBRANCH  17  20
ENDBRANCH   3  16
TORSDOF 4
