REMARK  Name = ZINC39703103
REMARK  5 active torsions:
REMARK  status: ('A' for Active; 'I' for Inactive)
REMARK    1  A    between atoms: C_1  and  C_2
REMARK    2  A    between atoms: N_14  and  C_17
REMARK    3  A    between atoms: C_17  and  C_18
REMARK    4  A    between atoms: C_18  and  N_19
REMARK    5  A    between atoms: C_20  and  C_22
REMARK                            x       y       z     vdW  Elec       q    Type
REMARK                         _______ _______ _______ _____ _____    ______ ____
ROOT
ATOM      1  C   UNL     1      -0.018   1.503   0.010  0.00  0.00    +0.047 C 
ATOM      2  C   UNL     1       0.002  -0.004   0.002  0.00  0.00    -0.006 A 
ATOM      3  C   UNL     1       0.006  -0.676  -1.194  0.00  0.00    +0.046 A 
ATOM      4  C   UNL     1       0.024  -2.063  -1.246  0.00  0.00    +0.021 A 
ATOM      5  C   UNL     1       0.040  -2.784  -0.066  0.00  0.00    +0.019 A 
ATOM      6  C   UNL     1       0.037  -2.120   1.135  0.00  0.00    +0.041 A 
ATOM      7  C   UNL     1       0.023  -0.710   1.227  0.00  0.00    +0.085 A 
ATOM      8  N   UNL     1       0.028  -0.205   2.480  0.00  0.00    -0.224 NA
ATOM      9  C   UNL     1       0.048  -0.969   3.548  0.00  0.00    +0.162 A 
ATOM     10  S   UNL     1       0.052  -2.611   2.842  0.00  0.00    -0.052 S 
ATOM     11  N   UNL     1       0.054  -0.599   4.878  0.00  0.00    -0.313 N 
ATOM     12  C   UNL     1       0.032   0.820   5.268  0.00  0.00    +0.088 C 
ATOM     13  C   UNL     1       1.158   1.063   6.278  0.00  0.00    -0.059 C 
ATOM     14  N   UNL     1       1.020   0.124   7.399  0.00  0.00    +0.383 N 
ATOM     15  C   UNL     1       1.207  -1.252   6.923  0.00  0.00    -0.059 C 
ATOM     16  C   UNL     1       0.078  -1.611   5.945  0.00  0.00    +0.088 C 
ATOM     17 CL   UNL     1      -0.014   0.228  -2.676  0.00  0.00    -0.083 Cl
ATOM     18  H   UNL     1       0.100   0.217   7.803  0.00  0.00    -0.082 HD
ENDROOT
BRANCH  14  19
ATOM     19  C   UNL     1       2.032   0.430   8.419  0.00  0.00    -0.060 C 
BRANCH  19  20
ATOM     20  C   UNL     1       1.812  -0.465   9.640  0.00  0.00    +0.086 C 
BRANCH  20  21
ATOM     21  N   UNL     1       2.821  -0.160  10.657  0.00  0.00    -0.313 N 
ATOM     22  C   UNL     1       2.822  -0.830  11.827  0.00  0.00    +0.251 C 
ATOM     23  O   UNL     1       1.985  -1.688  12.038  0.00  0.00    -0.270 OA
ATOM     24  H   UNL     1       3.488   0.524  10.489  0.00  0.00    +0.149 HD
BRANCH  22  25
ATOM     25  C   UNL     1       3.832  -0.525  12.844  0.00  0.00    +0.075 A 
ATOM     26  C   UNL     1       4.011  -1.094  14.096  0.00  0.00    +0.022 A 
ATOM     27  C   UNL     1       5.056  -0.595  14.835  0.00  0.00    +0.024 A 
ATOM     28  C   UNL     1       5.823   0.393  14.308  0.00  0.00    +0.056 A 
ATOM     29  S   UNL     1       5.155   0.669  12.792  0.00  0.00    -0.077 S 
ATOM     30 BR   UNL     1       7.310   1.255  15.097  0.00  0.00    -0.043 Br
ENDBRANCH  22  25
ENDBRANCH  20  21
ENDBRANCH  19  20
ENDBRANCH  14  19
TORSDOF 4
