REMARK  Name = ZINC04189412
REMARK  5 active torsions:
REMARK  status: ('A' for Active; 'I' for Inactive)
REMARK    1  A    between atoms: C_1  and  C_2
REMARK    2  A    between atoms: C_7  and  C_17
REMARK    3  A    between atoms: C_26  and  C_28
REMARK    4  A    between atoms: C_28  and  O_30
REMARK    5  A    between atoms: O_30  and  C_31
REMARK                            x       y       z     vdW  Elec       q    Type
REMARK                         _______ _______ _______ _____ _____    ______ ____
ROOT
ATOM      1  C   UNL     1       4.080   0.254  -1.198  0.00  0.00    +0.009 C 
ATOM      2  C   UNL     1       4.283   1.268  -0.070  0.00  0.00    +0.013 C 
ATOM      3  C   UNL     1       3.591   2.583  -0.425  0.00  0.00    +0.055 C 
ATOM      4  C   UNL     1       2.102   2.348  -0.624  0.00  0.00    +0.017 C 
ATOM      5  C   UNL     1       1.461   1.406   0.086  0.00  0.00    +0.037 C 
ATOM      6  C   UNL     1      -0.013   1.086   0.008  0.00  0.00    +0.136 C 
ATOM      7  N   UNL     1      -0.701   1.701  -1.107  0.00  0.00    -0.331 N 
ATOM      8  C   UNL     1      -0.825   3.085  -1.202  0.00  0.00    +0.049 A 
ATOM      9  C   UNL     1      -2.055   3.710  -1.077  0.00  0.00    +0.025 A 
ATOM     10  C   UNL     1      -2.118   5.093  -1.070  0.00  0.00    +0.002 A 
ATOM     11  C   UNL     1      -0.964   5.846  -1.188  0.00  0.00    +0.002 A 
ATOM     12  C   UNL     1       0.264   5.225  -1.334  0.00  0.00    +0.025 A 
ATOM     13  C   UNL     1       0.326   3.842  -1.359  0.00  0.00    +0.052 A 
ATOM     14  N   UNL     1       1.520   3.155  -1.547  0.00  0.00    -0.316 N 
ATOM     15  C   UNL     1       2.172   0.602   1.009  0.00  0.00    +0.177 C 
ATOM     16  O   UNL     1       1.563  -0.233   1.649  0.00  0.00    -0.291 OA
ATOM     17  C   UNL     1       3.649   0.742   1.223  0.00  0.00    +0.171 C 
ATOM     18  H   UNL     1      -1.081   1.139  -1.801  0.00  0.00    +0.147 HD
ATOM     19  H   UNL     1       1.970   3.260  -2.400  0.00  0.00    +0.152 HD
ENDROOT
BRANCH   6  20
ATOM     20  C   UNL     1      -0.670   1.546   1.284  0.00  0.00    -0.023 A 
ATOM     21  C   UNL     1      -1.269   0.626   2.123  0.00  0.00    +0.008 A 
ATOM     22  C   UNL     1      -1.867   1.046   3.296  0.00  0.00    +0.038 A 
ATOM     23  C   UNL     1      -1.876   2.391   3.624  0.00  0.00    +0.123 A 
ATOM     24  C   UNL     1      -1.282   3.313   2.780  0.00  0.00    +0.038 A 
ATOM     25  C   UNL     1      -0.679   2.889   1.610  0.00  0.00    +0.008 A 
ATOM     26  F   UNL     1      -2.466   2.804   4.768  0.00  0.00    -0.205 F 
ENDBRANCH   6  20
BRANCH  17  27
ATOM     27  C   UNL     1       3.907   1.715   2.345  0.00  0.00    +0.318 C 
ATOM     28  O   UNL     1       4.533   2.727   2.136  0.00  0.00    -0.250 OA
BRANCH  27  29
ATOM     29  O   UNL     1       3.441   1.457   3.577  0.00  0.00    -0.467 OA
ATOM     30  C   UNL     1       3.727   2.438   4.609  0.00  0.00    +0.280 C 
ENDBRANCH  27  29
ENDBRANCH  17  27
TORSDOF 3
