REMARK  Name = ZINC42735968
REMARK  3 active torsions:
REMARK  status: ('A' for Active; 'I' for Inactive)
REMARK    1  A    between atoms: C_1  and  C_2
REMARK    2  A    between atoms: C_6  and  C_7
REMARK    3  A    between atoms: C_12  and  N_13
REMARK                            x       y       z     vdW  Elec       q    Type
REMARK                         _______ _______ _______ _____ _____    ______ ____
ROOT
ATOM      1  C   UNL     1       0.450  -0.030   2.501  0.00  0.00    +0.013 A 
ATOM      2  C   UNL     1       0.321   1.348   2.676  0.00  0.00    +0.060 A 
ATOM      3  C   UNL     1       0.138   1.872   3.944  0.00  0.00    +0.163 A 
ATOM      4  C   UNL     1       0.080   1.024   5.047  0.00  0.00    +0.164 A 
ATOM      5  C   UNL     1       0.208  -0.347   4.878  0.00  0.00    +0.072 A 
ATOM      6  C   UNL     1       0.387  -0.880   3.612  0.00  0.00    +0.037 A 
ATOM      7  O   UNL     1      -0.108   1.525   6.299  0.00  0.00    -0.485 OA
ATOM      8  C   UNL     1       0.141   2.923   6.478  0.00  0.00    +0.270 C 
ATOM      9  C   UNL     1      -0.539   3.683   5.331  0.00  0.00    +0.270 C 
ATOM     10  O   UNL     1       0.018   3.220   4.096  0.00  0.00    -0.485 OA
ENDROOT
BRANCH   1  16
ATOM     11  C   UNL     1      -1.188   0.657  -0.006  0.00  0.00    +0.045 C 
ATOM     12  C   UNL     1      -0.047  -0.327  -0.004  0.00  0.00    -0.036 A 
ATOM     13  C   UNL     1       0.324  -0.975  -1.163  0.00  0.00    +0.011 A 
ATOM     14  C   UNL     1       1.356  -1.855  -1.127  0.00  0.00    +0.046 A 
ATOM     15  S   UNL     1       1.844  -1.790   0.589  0.00  0.00    -0.096 S 
ATOM     16  C   UNL     1       0.645  -0.591   1.148  0.00  0.00    +0.024 A 
ENDBRANCH   1  16
BRANCH   6  17
ATOM     17  N   UNL     1       0.511  -2.263   3.445  0.00  0.00    -0.357 N 
ATOM     18  H   UNL     1       0.526  -2.643   2.553  0.00  0.00    +0.142 HD
ATOM     19  H   UNL     1       0.580  -2.841   4.221  0.00  0.00    +0.142 HD
ENDBRANCH   6  17
TORSDOF 2
