REMARK  Name = ZINC63203689
REMARK  9 active torsions:
REMARK  status: ('A' for Active; 'I' for Inactive)
REMARK    1  A    between atoms: C_1  and  C_2
REMARK    2  A    between atoms: C_2  and  C_3
REMARK    3  A    between atoms: C_3  and  C_4
REMARK    4  A    between atoms: N_6  and  C_7
REMARK    5  A    between atoms: C_11  and  N_14
REMARK    6  A    between atoms: C_12  and  C_13
REMARK    7  A    between atoms: C_15  and  C_17
REMARK    8  A    between atoms: N_19  and  C_20
REMARK    9  A    between atoms: C_20  and  C_21
REMARK                            x       y       z     vdW  Elec       q    Type
REMARK                         _______ _______ _______ _____ _____    ______ ____
ROOT
ATOM      1  N   UNL     1      -4.763  -7.011  -0.388  0.00  0.00    -0.277 N 
ATOM      2  C   UNL     1      -4.831  -8.227   0.190  0.00  0.00    +0.303 C 
ATOM      3  O   UNL     1      -3.848  -8.703   0.720  0.00  0.00    -0.265 OA
ATOM      4  H   UNL     1      -5.527  -6.660  -0.871  0.00  0.00    +0.155 HD
ENDROOT
BRANCH   1   9
ATOM      5  C   UNL     1      -2.495  -4.128  -0.099  0.00  0.00    +0.038 A 
ATOM      6  C   UNL     1      -1.261  -4.767  -0.103  0.00  0.00    +0.024 A 
ATOM      7  C   UNL     1      -1.195  -6.144  -0.201  0.00  0.00    +0.004 A 
ATOM      8  C   UNL     1      -2.354  -6.889  -0.295  0.00  0.00    +0.024 A 
ATOM      9  C   UNL     1      -3.591  -6.257  -0.291  0.00  0.00    +0.038 A 
ATOM     10  C   UNL     1      -3.661  -4.874  -0.187  0.00  0.00    -0.008 A 
ATOM     11  C   UNL     1      -5.001  -4.185  -0.177  0.00  0.00    +0.047 C 
BRANCH   5  14
ATOM     12  C   UNL     1      -1.553  -2.050   0.575  0.00  0.00    +0.217 C 
ATOM     13  O   UNL     1      -0.636  -2.648   1.098  0.00  0.00    -0.275 OA
ATOM     14  N   UNL     1      -2.561  -2.734  -0.001  0.00  0.00    -0.285 N 
ATOM     15  H   UNL     1      -3.333  -2.259  -0.347  0.00  0.00    +0.155 HD
BRANCH  12  16
ATOM     16  C   UNL     1      -1.564  -0.543   0.570  0.00  0.00    +0.096 C 
BRANCH  16  18
ATOM     17  C   UNL     1      -0.327   1.509   1.278  0.00  0.00    +0.004 C 
ATOM     18  C   UNL     1      -0.315  -0.021   1.283  0.00  0.00    +0.006 C 
ENDBRANCH  16  18
ENDBRANCH  12  16
ENDBRANCH   5  14
ENDBRANCH   1   9
BRANCH   2  19
ATOM     19  C   UNL     1      -6.116  -8.988   0.179  0.00  0.00    +0.300 C 
ATOM     20  O   UNL     1      -7.099  -8.512  -0.350  0.00  0.00    -0.265 OA
ATOM     21  N   UNL     1      -6.184 -10.204   0.758  0.00  0.00    -0.302 N 
ATOM     22  H   UNL     1      -5.398 -10.584   1.181  0.00  0.00    +0.150 HD
BRANCH  21  23
ATOM     23  C   UNL     1      -7.444 -10.950   0.747  0.00  0.00    +0.161 C 
BRANCH  23  24
ATOM     24  C   UNL     1      -7.253 -12.268   1.453  0.00  0.00    +0.078 A 
ATOM     25  C   UNL     1      -7.532 -12.515   2.744  0.00  0.00    +0.118 A 
ATOM     26  N   UNL     1      -7.215 -13.847   2.998  0.00  0.00    -0.300 N 
ATOM     27  C   UNL     1      -7.248 -14.728   4.057  0.00  0.00    +0.100 A 
ATOM     28  C   UNL     1      -6.842 -15.988   3.909  0.00  0.00    +0.067 A 
ATOM     29  S   UNL     1      -6.364 -16.022   2.188  0.00  0.00    -0.058 S 
ATOM     30  C   UNL     1      -6.751 -14.330   1.803  0.00  0.00    +0.178 A 
ATOM     31  N   UNL     1      -6.782 -13.395   0.898  0.00  0.00    -0.225 NA
ENDBRANCH  23  24
ENDBRANCH  21  23
ENDBRANCH   2  19
TORSDOF 7
