REMARK  Name = ZINC21221480
REMARK  9 active torsions:
REMARK  status: ('A' for Active; 'I' for Inactive)
REMARK    1  A    between atoms: C_1  and  C_2
REMARK    2  A    between atoms: C_2  and  C_3
REMARK    3  A    between atoms: C_2  and  O_4
REMARK    4  A    between atoms: O_4  and  C_5
REMARK    5  A    between atoms: C_8  and  C_11
REMARK    6  A    between atoms: C_16  and  C_26
REMARK    7  A    between atoms: C_29  and  O_34
REMARK    8  A    between atoms: C_30  and  O_32
REMARK    9  A    between atoms: O_32  and  C_33
REMARK                            x       y       z     vdW  Elec       q    Type
REMARK                         _______ _______ _______ _____ _____    ______ ____
ROOT
ATOM      1  C   UNL     1       2.963   4.256   4.256  0.00  0.00    +0.032 C 
ATOM      2  C   UNL     1       4.244   3.920   3.494  0.00  0.00    +0.059 C 
ATOM      3  C   UNL     1       3.917   3.582   2.050  0.00  0.00    +0.017 C 
ATOM      4  C   UNL     1       2.879   4.169   1.429  0.00  0.00    +0.036 C 
ATOM      5  C   UNL     1       2.454   3.934   0.000  0.00  0.00    +0.136 C 
ATOM      6  N   UNL     1       3.409   3.196  -0.799  0.00  0.00    -0.331 N 
ATOM      7  C   UNL     1       3.721   1.871  -0.501  0.00  0.00    +0.049 A 
ATOM      8  C   UNL     1       3.411   0.839  -1.373  0.00  0.00    +0.025 A 
ATOM      9  C   UNL     1       3.698  -0.466  -1.012  0.00  0.00    +0.002 A 
ATOM     10  C   UNL     1       4.285  -0.741   0.210  0.00  0.00    +0.002 A 
ATOM     11  C   UNL     1       4.613   0.289   1.075  0.00  0.00    +0.025 A 
ATOM     12  C   UNL     1       4.347   1.596   0.705  0.00  0.00    +0.052 A 
ATOM     13  N   UNL     1       4.753   2.682   1.472  0.00  0.00    -0.316 N 
ATOM     14  C   UNL     1       2.068   5.099   2.123  0.00  0.00    +0.163 C 
ATOM     15  O   UNL     1       1.147   5.629   1.533  0.00  0.00    -0.292 OA
ATOM     16  C   UNL     1       2.307   5.454   3.560  0.00  0.00    +0.088 C 
ATOM     17  H   UNL     1       3.900   3.681  -1.656  0.00  0.00    +0.147 HD
ATOM     18  H   UNL     1       5.841   2.784   1.595  0.00  0.00    +0.152 HD
ENDROOT
BRANCH   1  22
ATOM     19  C   UNL     1       3.904   5.267   8.300  0.00  0.00    +0.121 A 
ATOM     20  C   UNL     1       3.069   4.193   8.028  0.00  0.00    +0.046 A 
ATOM     21  C   UNL     1       2.766   3.868   6.720  0.00  0.00    +0.007 A 
ATOM     22  C   UNL     1       3.295   4.612   5.682  0.00  0.00    -0.043 A 
ATOM     23  C   UNL     1       4.132   5.679   5.950  0.00  0.00    +0.007 A 
ATOM     24  C   UNL     1       4.434   6.012   7.256  0.00  0.00    +0.046 A 
BRANCH  19  25
ATOM     25  O   UNL     1       4.203   5.588   9.586  0.00  0.00    -0.489 OA
BRANCH  25  27
ATOM     26  C   UNL     1       4.608   4.827  11.844  0.00  0.00    +0.051 C 
ATOM     27  C   UNL     1       3.720   4.709  10.604  0.00  0.00    +0.167 C 
ATOM     28  C   UNL     1       2.283   5.091  10.967  0.00  0.00    +0.051 C 
ENDBRANCH  25  27
ENDBRANCH  19  25
ENDBRANCH   1  22
BRANCH   5  29
ATOM     29  C   UNL     1       1.151   3.176   0.008  0.00  0.00    -0.019 A 
ATOM     30  C   UNL     1       1.109   1.882   0.493  0.00  0.00    +0.009 A 
ATOM     31  C   UNL     1      -0.083   1.183   0.503  0.00  0.00    +0.049 A 
ATOM     32  C   UNL     1      -1.238   1.776   0.020  0.00  0.00    +0.158 A 
ATOM     33  C   UNL     1      -1.197   3.081  -0.463  0.00  0.00    +0.162 A 
ATOM     34  C   UNL     1       0.001   3.776  -0.470  0.00  0.00    +0.055 A 
BRANCH  33  35
ATOM     35  O   UNL     1      -2.329   3.669  -0.934  0.00  0.00    -0.491 OA
ATOM     36  C   UNL     1      -2.211   5.008  -1.420  0.00  0.00    +0.277 C 
ENDBRANCH  33  35
BRANCH  32  37
ATOM     37  O   UNL     1      -2.411   1.088   0.023  0.00  0.00    -0.503 OA
ATOM     38  H   UNL     1      -3.327   1.560  -0.360  0.00  0.00    +0.292 HD
ENDBRANCH  32  37
ENDBRANCH   5  29
TORSDOF 6
