REMARK  Name = ZINC03252100
REMARK  1 active torsions:
REMARK  status: ('A' for Active; 'I' for Inactive)
REMARK    1  A    between atoms: C_4  and  N_8
REMARK                            x       y       z     vdW  Elec       q    Type
REMARK                         _______ _______ _______ _____ _____    ______ ____
ROOT
ATOM      1  N   UNL     1      -2.022   1.659  -1.008  0.00  0.00    -0.234 NA
ATOM      2  C   UNL     1      -1.215   1.687   0.014  0.00  0.00    +0.096 C 
ATOM      3  C   UNL     1      -1.510   2.505   1.214  0.00  0.00    +0.071 C 
ATOM      4  C   UNL     1      -0.927   3.929   1.202  0.00  0.00    +0.007 C 
ATOM      5  C   UNL     1       0.513   3.903   0.628  0.00  0.00    +0.002 C 
ATOM      6  C   UNL     1       1.296   2.707   1.099  0.00  0.00    +0.019 C 
ATOM      7  C   UNL     1       1.182   1.655  -0.011  0.00  0.00    +0.102 C 
ATOM      8  N   UNL     1      -0.027   0.941   0.022  0.00  0.00    -0.332 N 
ATOM      9  H   UNL     1      -0.040  -0.029   0.044  0.00  0.00    +0.147 HD
ENDROOT
BRANCH   1  13
ATOM     10  C   UNL     1      -5.708   3.539  -0.786  0.00  0.00    +0.041 A 
ATOM     11  C   UNL     1      -4.829   3.867  -1.802  0.00  0.00    +0.043 A 
ATOM     12  C   UNL     1      -3.596   3.248  -1.879  0.00  0.00    +0.149 A 
ATOM     13  C   UNL     1      -3.243   2.281  -0.934  0.00  0.00    +0.103 A 
ATOM     14  C   UNL     1      -4.134   1.955   0.088  0.00  0.00    +0.069 A 
ATOM     15  C   UNL     1      -5.362   2.586   0.157  0.00  0.00    +0.126 A 
ATOM     16  F   UNL     1      -6.227   2.271   1.146  0.00  0.00    -0.205 F 
ATOM     17  F   UNL     1      -2.736   3.573  -2.869  0.00  0.00    -0.203 F 
ENDBRANCH   1  13
TORSDOF 1
