REMARK  Name = ZINC66995660
REMARK  10 active torsions:
REMARK  status: ('A' for Active; 'I' for Inactive)
REMARK    1  A    between atoms: C_1  and  C_2
REMARK    2  A    between atoms: C_2  and  N_3
REMARK    3  A    between atoms: C_4  and  C_26
REMARK    4  A    between atoms: C_5  and  C_9
REMARK    5  A    between atoms: C_6  and  C_8
REMARK    6  A    between atoms: C_9  and  N_10
REMARK    7  A    between atoms: N_10  and  C_11
REMARK    8  A    between atoms: C_11  and  C_12
REMARK    9  A    between atoms: C_13  and  C_25
REMARK   10  A    between atoms: N_15  and  C_18
REMARK                            x       y       z     vdW  Elec       q    Type
REMARK                         _______ _______ _______ _____ _____    ______ ____
ROOT
ATOM      1  C   UNL     1       0.855  -0.757  -6.947  0.00  0.00    -0.041 C 
ENDROOT
BRANCH   1   2
ATOM      2  C   UNL     1       1.012   0.454  -7.829  0.00  0.00    -0.005 A 
ATOM      3  C   UNL     1      -0.011   1.327  -8.217  0.00  0.00    +0.063 A 
ATOM      4  N   UNL     1       0.507   2.256  -8.980  0.00  0.00    -0.170 NA
ATOM      5  N   UNL     1       1.880   2.006  -9.105  0.00  0.00    -0.221 N 
ATOM      6  C   UNL     1       2.168   0.893  -8.382  0.00  0.00    +0.134 A 
ATOM      7 CL   UNL     1       3.732   0.163  -8.202  0.00  0.00    -0.062 Cl
ATOM      8  C   UNL     1      -1.461   1.217  -7.823  0.00  0.00    +0.068 C 
BRANCH   5   9
ATOM      9  C   UNL     1       2.795   2.772  -9.842  0.00  0.00    +0.068 A 
ATOM     10  C   UNL     1       4.098   2.927  -9.386  0.00  0.00    +0.028 A 
ATOM     11  C   UNL     1       4.997   3.681 -10.114  0.00  0.00    +0.003 A 
ATOM     12  C   UNL     1       4.602   4.283 -11.294  0.00  0.00    +0.020 A 
ATOM     13  C   UNL     1       3.305   4.131 -11.751  0.00  0.00    +0.043 A 
ATOM     14  C   UNL     1       2.401   3.372 -11.030  0.00  0.00    +0.047 A 
ATOM     15 CL   UNL     1       2.812   4.888 -13.233  0.00  0.00    -0.083 Cl
ENDBRANCH   5   9
ENDBRANCH   1   2
BRANCH   1  16
ATOM     16  N   UNL     1       1.042  -0.368  -5.543  0.00  0.00    +0.385 N 
ATOM     17  H   UNL     1       0.351   0.323  -5.291  0.00  0.00    -0.085 HD
ATOM     18  H   UNL     1       1.965   0.019  -5.421  0.00  0.00    -0.085 HD
BRANCH  16  19
ATOM     19  C   UNL     1       0.889  -1.549  -4.683  0.00  0.00    -0.043 C 
BRANCH  19  22
ATOM     20  N   UNL     1       0.688  -0.476  -1.203  0.00  0.00    -0.268 N 
ATOM     21  C   UNL     1       0.110  -0.737  -2.395  0.00  0.00    +0.038 A 
ATOM     22  C   UNL     1       1.081  -1.150  -3.242  0.00  0.00    -0.021 A 
ATOM     23  C   UNL     1       2.293  -1.141  -2.545  0.00  0.00    +0.062 A 
ATOM     24  N   UNL     1       2.060  -0.732  -1.324  0.00  0.00    -0.176 NA
ATOM     25  C   UNL     1       3.638  -1.529  -3.105  0.00  0.00    +0.068 C 
ATOM     26  C   UNL     1      -1.354  -0.595  -2.722  0.00  0.00    +0.065 C 
BRANCH  20  28
ATOM     27  C   UNL     1      -0.019   1.526   0.010  0.00  0.00    +0.029 C 
ATOM     28  C   UNL     1       0.002  -0.004   0.002  0.00  0.00    +0.140 C 
ENDBRANCH  20  28
ENDBRANCH  19  22
ENDBRANCH  16  19
ENDBRANCH   1  16
TORSDOF 6
