REMARK  Name = ZINC01440508
REMARK  9 active torsions:
REMARK  status: ('A' for Active; 'I' for Inactive)
REMARK    1  A    between atoms: C_1  and  C_2
REMARK    2  A    between atoms: C_5  and  N_9
REMARK    3  A    between atoms: C_7  and  C_8
REMARK    4  A    between atoms: C_10  and  S_14
REMARK    5  A    between atoms: S_14  and  C_15
REMARK    6  A    between atoms: C_15  and  C_16
REMARK    7  A    between atoms: C_16  and  C_18
REMARK    8  A    between atoms: C_21  and  O_25
REMARK    9  A    between atoms: C_22  and  O_24
REMARK                            x       y       z     vdW  Elec       q    Type
REMARK                         _______ _______ _______ _____ _____    ______ ____
ROOT
ATOM      1  S   UNL     1      -0.022   1.806   0.012  0.00  0.00    -0.076 S 
ENDROOT
BRANCH   1   3
ATOM      2  N   UNL     1       2.297   3.358  -0.007  0.00  0.00    -0.187 N 
ATOM      3  C   UNL     1       1.708   2.135  -0.003  0.00  0.00    +0.214 A 
ATOM      4  N   UNL     1       2.675   1.242  -0.017  0.00  0.00    -0.101 NA
ATOM      5  N   UNL     1       3.821   1.820  -0.026  0.00  0.00    -0.022 NA
ATOM      6  N   UNL     1       3.679   3.101  -0.018  0.00  0.00    -0.038 NA
BRANCH   2  11
ATOM      7  C   UNL     1      -0.271   8.420   0.018  0.00  0.00    +0.044 C 
ATOM      8  C   UNL     1       0.411   7.076   0.011  0.00  0.00    -0.047 A 
ATOM      9  C   UNL     1      -0.158   6.017  -0.673  0.00  0.00    +0.006 A 
ATOM     10  C   UNL     1       0.464   4.784  -0.680  0.00  0.00    +0.028 A 
ATOM     11  C   UNL     1       1.663   4.609  -0.001  0.00  0.00    +0.070 A 
ATOM     12  C   UNL     1       2.229   5.672   0.688  0.00  0.00    +0.031 A 
ATOM     13  C   UNL     1       1.605   6.904   0.687  0.00  0.00    -0.046 A 
ATOM     14  C   UNL     1       2.221   8.061   1.431  0.00  0.00    +0.044 C 
ENDBRANCH   2  11
ENDBRANCH   1   3
BRANCH   1  15
ATOM     15  C   UNL     1       0.002  -0.004   0.002  0.00  0.00    +0.157 C 
BRANCH  15  16
ATOM     16  C   UNL     1      -1.412  -0.526   0.013  0.00  0.00    +0.173 C 
ATOM     17  O   UNL     1      -2.344   0.250   0.026  0.00  0.00    -0.291 OA
BRANCH  16  18
ATOM     18  C   UNL     1      -1.661  -1.973   0.007  0.00  0.00    +0.022 A 
ATOM     19  C   UNL     1      -0.586  -2.870  -0.013  0.00  0.00    +0.015 A 
ATOM     20  C   UNL     1      -0.822  -4.226  -0.012  0.00  0.00    +0.050 A 
ATOM     21  C   UNL     1      -2.124  -4.709  -0.002  0.00  0.00    +0.158 A 
ATOM     22  C   UNL     1      -3.201  -3.821   0.012  0.00  0.00    +0.159 A 
ATOM     23  C   UNL     1      -2.973  -2.460   0.017  0.00  0.00    +0.060 A 
BRANCH  22  24
ATOM     24  O   UNL     1      -4.474  -4.298   0.022  0.00  0.00    -0.503 OA
ATOM     25  H   UNL     1      -4.851  -4.431  -0.859  0.00  0.00    +0.292 HD
ENDBRANCH  22  24
BRANCH  21  26
ATOM     26  O   UNL     1      -2.351  -6.047  -0.007  0.00  0.00    -0.503 OA
ATOM     27  H   UNL     1      -2.425  -6.431  -0.892  0.00  0.00    +0.292 HD
ENDBRANCH  21  26
ENDBRANCH  16  18
ENDBRANCH  15  16
ENDBRANCH   1  15
TORSDOF 7
