REMARK  Name = ZINC39590376
REMARK  8 active torsions:
REMARK  status: ('A' for Active; 'I' for Inactive)
REMARK    1  A    between atoms: C_1  and  C_2
REMARK    2  A    between atoms: C_2  and  O_3
REMARK    3  A    between atoms: O_3  and  C_4
REMARK    4  A    between atoms: C_4  and  C_6
REMARK    5  A    between atoms: C_9  and  N_12
REMARK    6  A    between atoms: C_13  and  C_15
REMARK    7  A    between atoms: C_18  and  N_22
REMARK    8  A    between atoms: C_23  and  C_25
REMARK                            x       y       z     vdW  Elec       q    Type
REMARK                         _______ _______ _______ _____ _____    ______ ____
ROOT
ATOM      1  C   UNL     1      -8.137  -5.947  -0.154  0.00  0.00    +0.087 C 
ATOM      2  C   UNL     1      -8.305  -7.286  -0.154  0.00  0.00    +0.021 C 
ATOM      3  N   UNL     1      -7.252  -8.129  -0.158  0.00  0.00    -0.320 N 
ATOM      4  C   UNL     1      -7.484  -9.491   0.372  0.00  0.00    +0.219 C 
ATOM      5  S   UNL     1      -9.271  -9.707  -0.034  0.00  0.00    -0.114 S 
ATOM      6  C   UNL     1      -9.689  -7.915  -0.143  0.00  0.00    +0.123 C 
ATOM      7  H   UNL     1      -6.383  -7.856  -0.493  0.00  0.00    +0.148 HD
ENDROOT
BRANCH   1   9
ATOM      8  N   UNL     1      -6.659  -4.067  -0.140  0.00  0.00    -0.282 N 
ATOM      9  C   UNL     1      -6.842  -5.396  -0.016  0.00  0.00    +0.243 C 
ATOM     10  O   UNL     1      -5.893  -6.124   0.214  0.00  0.00    -0.270 OA
ATOM     11  H   UNL     1      -7.423  -3.480  -0.247  0.00  0.00    +0.155 HD
BRANCH   8  15
ATOM     12  C   UNL     1      -2.809  -2.481  -0.060  0.00  0.00    +0.059 A 
ATOM     13  C   UNL     1      -3.875  -1.760   0.486  0.00  0.00    +0.017 A 
ATOM     14  C   UNL     1      -5.146  -2.287   0.458  0.00  0.00    +0.024 A 
ATOM     15  C   UNL     1      -5.371  -3.536  -0.113  0.00  0.00    +0.034 A 
ATOM     16  C   UNL     1      -4.312  -4.257  -0.658  0.00  0.00    +0.024 A 
ATOM     17  C   UNL     1      -3.039  -3.733  -0.638  0.00  0.00    +0.017 A 
BRANCH  12  18
ATOM     18  C   UNL     1      -1.446  -1.920  -0.031  0.00  0.00    +0.339 C 
ATOM     19  O   UNL     1      -0.521  -2.545  -0.511  0.00  0.00    -0.245 OA
BRANCH  18  20
ATOM     20  O   UNL     1      -1.226  -0.713   0.526  0.00  0.00    -0.461 OA
BRANCH  20  22
ATOM     21  C   UNL     1       0.172   1.143   1.190  0.00  0.00    +0.048 C 
ATOM     22  C   UNL     1       0.119  -0.231   0.519  0.00  0.00    +0.229 C 
ENDBRANCH  20  22
ENDBRANCH  18  20
ENDBRANCH  12  18
ENDBRANCH   8  15
ENDBRANCH   1   9
BRANCH   4  23
ATOM     23  N   UNL     1      -7.258  -9.543   1.819  0.00  0.00    -0.284 N 
ATOM     24  C   UNL     1      -7.121 -10.733   2.437  0.00  0.00    +0.247 C 
ATOM     25  O   UNL     1      -7.185 -11.763   1.794  0.00  0.00    -0.270 OA
ATOM     26  H   UNL     1      -7.207  -8.721   2.331  0.00  0.00    +0.152 HD
BRANCH  24  27
ATOM     27  C   UNL     1      -6.893 -10.785   3.897  0.00  0.00    +0.049 C 
ATOM     28  C   UNL     1      -6.749 -11.985   4.516  0.00  0.00    -0.003 C 
ATOM     29  C   UNL     1      -6.518 -11.971   6.014  0.00  0.00    +0.126 C 
ATOM     30  C   UNL     1      -6.466 -10.620   6.693  0.00  0.00    +0.240 C 
ATOM     31  O   UNL     1      -6.283 -10.539   7.891  0.00  0.00    -0.273 OA
ATOM     32  N   UNL     1      -6.624  -9.515   5.956  0.00  0.00    -0.188 NA
ATOM     33  C   UNL     1      -6.816  -9.546   4.667  0.00  0.00    +0.113 C 
ENDBRANCH  24  27
ENDBRANCH   4  23
TORSDOF 7
