REMARK  Name = ZINC57727851
REMARK  9 active torsions:
REMARK  status: ('A' for Active; 'I' for Inactive)
REMARK    1  A    between atoms: C_1  and  C_2
REMARK    2  A    between atoms: C_2  and  N_3
REMARK    3  A    between atoms: N_3  and  C_4
REMARK    4  A    between atoms: N_3  and  C_6
REMARK    5  A    between atoms: C_4  and  C_5
REMARK    6  A    between atoms: C_6  and  C_7
REMARK    7  A    between atoms: C_7  and  N_8
REMARK    8  A    between atoms: N_17  and  C_18
REMARK    9  A    between atoms: C_18  and  C_20
REMARK                            x       y       z     vdW  Elec       q    Type
REMARK                         _______ _______ _______ _____ _____    ______ ____
ROOT
ATOM      1  N   UNL     1       0.741  -3.948  -2.373  0.00  0.00    -0.314 N 
ATOM      2  C   UNL     1       1.587  -4.872  -1.769  0.00  0.00    +0.068 A 
ATOM      3  C   UNL     1       2.800  -4.753  -1.104  0.00  0.00    +0.028 A 
ATOM      4  C   UNL     1       3.420  -5.879  -0.600  0.00  0.00    +0.002 A 
ATOM      5  C   UNL     1       2.839  -7.126  -0.755  0.00  0.00    +0.002 A 
ATOM      6  C   UNL     1       1.634  -7.255  -1.416  0.00  0.00    +0.028 A 
ATOM      7  C   UNL     1       1.001  -6.130  -1.926  0.00  0.00    +0.066 A 
ATOM      8  N   UNL     1      -0.189  -5.943  -2.622  0.00  0.00    -0.326 N 
ATOM      9  C   UNL     1      -0.329  -4.616  -2.877  0.00  0.00    +0.201 A 
ATOM     10  N   UNL     1      -1.352  -4.059  -3.521  0.00  0.00    -0.146 NA
ATOM     11  H   UNL     1      -0.813  -6.640  -2.877  0.00  0.00    +0.169 HD
ENDROOT
BRANCH  10  12
ATOM     12  C   UNL     1      -2.403  -4.797  -3.863  0.00  0.00    +0.247 C 
ATOM     13  O   UNL     1      -2.473  -5.958  -3.508  0.00  0.00    -0.273 OA
BRANCH  12  14
ATOM     14  C   UNL     1      -3.510  -4.195  -4.690  0.00  0.00    +0.117 C 
ATOM     15  C   UNL     1      -2.943  -3.716  -6.027  0.00  0.00    +0.113 C 
ATOM     16  C   UNL     1      -2.596  -4.900  -6.889  0.00  0.00    +0.218 C 
ATOM     17  O   UNL     1      -1.630  -4.847  -7.620  0.00  0.00    -0.275 OA
ATOM     18  N   UNL     1      -3.345  -6.018  -6.859  0.00  0.00    -0.285 N 
ATOM     19  C   UNL     1      -4.453  -6.105  -6.010  0.00  0.00    +0.040 A 
ATOM     20  C   UNL     1      -4.574  -5.232  -4.936  0.00  0.00    -0.014 A 
ATOM     21  C   UNL     1      -5.667  -5.317  -4.098  0.00  0.00    +0.009 A 
ATOM     22  C   UNL     1      -6.642  -6.271  -4.325  0.00  0.00    +0.039 A 
ATOM     23  C   UNL     1      -6.525  -7.143  -5.394  0.00  0.00    +0.125 A 
ATOM     24  C   UNL     1      -5.433  -7.062  -6.238  0.00  0.00    +0.062 A 
ATOM     25  F   UNL     1      -7.479  -8.075  -5.613  0.00  0.00    -0.205 F 
ATOM     26  H   UNL     1      -3.115  -6.768  -7.429  0.00  0.00    +0.155 HD
ENDBRANCH  12  14
ENDBRANCH  10  12
BRANCH   1  27
ATOM     27  C   UNL     1       0.963  -2.502  -2.447  0.00  0.00    +0.106 C 
BRANCH  27  28
ATOM     28  C   UNL     1       0.344  -1.827  -1.222  0.00  0.00    -0.057 C 
BRANCH  28  29
ATOM     29  N   UNL     1       0.673  -0.395  -1.232  0.00  0.00    +0.380 N 
ATOM     30  H   UNL     1       1.675  -0.281  -1.276  0.00  0.00    -0.082 HD
BRANCH  29  32
ATOM     31  C   UNL     1       0.500   1.703  -2.483  0.00  0.00    -0.017 C 
ATOM     32  C   UNL     1       0.056   0.241  -2.403  0.00  0.00    -0.082 C 
ENDBRANCH  29  32
BRANCH  29  33
ATOM     33  C   UNL     1       0.162   0.234  -0.007  0.00  0.00    -0.082 C 
ATOM     34  C   UNL     1       0.892  -0.346   1.207  0.00  0.00    -0.017 C 
ENDBRANCH  29  33
ENDBRANCH  28  29
ENDBRANCH  27  28
ENDBRANCH   1  27
TORSDOF 7
