REMARK  Name = ZINC02638562
REMARK  10 active torsions:
REMARK  status: ('A' for Active; 'I' for Inactive)
REMARK    1  A    between atoms: C_1  and  C_2
REMARK    2  A    between atoms: C_2  and  C_4
REMARK    3  A    between atoms: C_2  and  O_11
REMARK    4  A    between atoms: O_11  and  C_12
REMARK    5  A    between atoms: C_12  and  C_13
REMARK    6  A    between atoms: C_13  and  C_15
REMARK    7  A    between atoms: C_13  and  O_32
REMARK    8  A    between atoms: C_15  and  N_56
REMARK    9  A    between atoms: N_18  and  S_21
REMARK   10  A    between atoms: S_21  and  C_24
REMARK                            x       y       z     vdW  Elec       q    Type
REMARK                         _______ _______ _______ _____ _____    ______ ____
ROOT
ATOM      1  C   UNL     1       1.329   1.417   2.538  0.00  0.00    -0.061 C 
ATOM      2  C   UNL     1       1.925   0.591   3.683  0.00  0.00    +0.091 C 
ATOM      3  N   UNL     1       3.392   0.644   3.584  0.00  0.00    -0.180 NA
ATOM      4  C   UNL     1       4.014   0.319   2.291  0.00  0.00    +0.091 C 
ATOM      5  C   UNL     1       3.336   1.156   1.201  0.00  0.00    -0.061 C 
ATOM      6  N   UNL     1       1.877   0.918   1.258  0.00  0.00    +0.383 N 
ATOM      7  H   UNL     1       1.702  -0.092   1.192  0.00  0.00    -0.082 HD
ENDROOT
BRANCH   3   8
ATOM      8  S   UNL     1       4.318   1.059   4.892  0.00  0.00    +0.062 S 
ATOM      9  O   UNL     1       5.477   1.704   4.382  0.00  0.00    -0.153 OA
ATOM     10  O   UNL     1       3.447   1.684   5.825  0.00  0.00    -0.153 OA
BRANCH   8  11
ATOM     11  C   UNL     1       4.864  -0.441   5.640  0.00  0.00    +0.125 A 
ATOM     12  C   UNL     1       6.207  -0.767   5.632  0.00  0.00    +0.050 A 
ATOM     13  C   UNL     1       6.637  -1.942   6.224  0.00  0.00    +0.043 A 
ATOM     14  C   UNL     1       5.721  -2.794   6.814  0.00  0.00    +0.021 A 
ATOM     15  C   UNL     1       4.377  -2.470   6.818  0.00  0.00    +0.023 A 
ATOM     16  C   UNL     1       3.948  -1.293   6.230  0.00  0.00    +0.067 A 
ATOM     17 CL   UNL     1       2.261  -0.885   6.235  0.00  0.00    -0.082 Cl
ATOM     18 CL   UNL     1       8.324  -2.349   6.219  0.00  0.00    -0.083 Cl
ENDBRANCH   8  11
ENDBRANCH   3   8
BRANCH   6  19
ATOM     19  C   UNL     1       1.211   1.595   0.127  0.00  0.00    -0.045 C 
BRANCH  19  20
ATOM     20  C   UNL     1       1.429   0.763  -1.139  0.00  0.00    +0.124 C 
BRANCH  20  21
ATOM     21  O   UNL     1       0.879  -0.542  -0.951  0.00  0.00    -0.391 OA
ATOM     22  H   UNL     1      -0.070  -0.546  -0.768  0.00  0.00    +0.210 HD
ENDBRANCH  20  21
BRANCH  20  23
ATOM     23  C   UNL     1       0.738   1.444  -2.322  0.00  0.00    +0.190 C 
BRANCH  23  24
ATOM     24  O   UNL     1       1.039   0.730  -3.523  0.00  0.00    -0.370 OA
BRANCH  24  26
ATOM     25  C   UNL     1       1.386   2.315  -5.315  0.00  0.00    +0.043 C 
ATOM     26  C   UNL     1       0.439   1.286  -4.695  0.00  0.00    +0.145 C 
BRANCH  26  27
ATOM     27  C   UNL     1       0.169   0.188  -5.691  0.00  0.00    -0.019 A 
ATOM     28  C   UNL     1       1.046  -0.875  -5.801  0.00  0.00    +0.007 A 
ATOM     29  C   UNL     1       0.796  -1.886  -6.710  0.00  0.00    +0.020 A 
ATOM     30  C   UNL     1      -0.326  -1.828  -7.517  0.00  0.00    +0.041 A 
ATOM     31  C   UNL     1      -1.200  -0.762  -7.410  0.00  0.00    +0.020 A 
ATOM     32  C   UNL     1      -0.953   0.246  -6.497  0.00  0.00    +0.007 A 
ATOM     33 CL   UNL     1      -0.637  -3.094  -8.664  0.00  0.00    -0.084 Cl
ENDBRANCH  26  27
ENDBRANCH  24  26
ENDBRANCH  23  24
ENDBRANCH  20  23
ENDBRANCH  19  20
ENDBRANCH   6  19
TORSDOF 9
