REMARK  Name = ZINC04494624
REMARK  7 active torsions:
REMARK  status: ('A' for Active; 'I' for Inactive)
REMARK    1  A    between atoms: C_1  and  C_2
REMARK    2  A    between atoms: C_2  and  C_3
REMARK    3  A    between atoms: C_2  and  C_4
REMARK    4  A    between atoms: C_2  and  C_5
REMARK    5  A    between atoms: C_12  and  N_24
REMARK    6  A    between atoms: C_13  and  C_22
REMARK    7  A    between atoms: C_14  and  C_16
REMARK                            x       y       z     vdW  Elec       q    Type
REMARK                         _______ _______ _______ _____ _____    ______ ____
ROOT
ATOM      1  C   UNL     1       1.269  -0.366  -1.647  0.00  0.00    +0.076 A 
ATOM      2  C   UNL     1       1.093  -1.713  -1.934  0.00  0.00    +0.050 A 
ATOM      3  C   UNL     1       1.682  -1.970  -3.140  0.00  0.00    +0.223 A 
ATOM      4  N   UNL     1       2.208  -0.819  -3.589  0.00  0.00    -0.246 N 
ATOM      5  H   UNL     1       2.689  -0.697  -4.422  0.00  0.00    +0.192 HD
ATOM      6  N   UNL     1       1.932   0.178  -2.640  0.00  0.00    -0.175 NA
ATOM      7  O   UNL     1       1.683  -3.202  -3.707  0.00  0.00    -0.423 OA
ATOM      8  C   UNL     1       0.851  -4.129  -3.189  0.00  0.00    +0.200 C 
ATOM      9  C   UNL     1       0.221  -3.994  -2.001  0.00  0.00    +0.099 C 
ATOM     10  C   UNL     1       0.397  -2.777  -1.126  0.00  0.00    +0.108 C 
ENDROOT
BRANCH  10  11
ATOM     11  C   UNL     1       1.233  -3.132   0.077  0.00  0.00    +0.004 A 
ATOM     12  C   UNL     1       0.860  -3.231   1.376  0.00  0.00    +0.013 A 
ATOM     13  C   UNL     1       1.809  -3.574   2.321  0.00  0.00    +0.023 A 
ATOM     14  C   UNL     1       3.084  -3.802   1.920  0.00  0.00    +0.055 A 
ATOM     15  S   UNL     1       2.969  -3.538   0.158  0.00  0.00    -0.085 S 
ATOM     16 BR   UNL     1       4.591  -4.282   2.956  0.00  0.00    -0.043 Br
ENDBRANCH  10  11
BRANCH   1  18
ATOM     17  C   UNL     1       0.964   1.857  -0.591  0.00  0.00    +0.017 C 
ATOM     18  C   UNL     1       0.777   0.348  -0.415  0.00  0.00    +0.007 C 
ATOM     19  C   UNL     1       1.574  -0.127   0.802  0.00  0.00    +0.017 C 
ATOM     20  C   UNL     1      -0.707   0.040  -0.204  0.00  0.00    +0.017 C 
ENDBRANCH   1  18
BRANCH   8  21
ATOM     21  N   UNL     1       0.630  -5.275  -3.910  0.00  0.00    -0.328 N 
ATOM     22  H   UNL     1       1.068  -5.401  -4.767  0.00  0.00    +0.145 HD
ATOM     23  H   UNL     1       0.037  -5.960  -3.564  0.00  0.00    +0.145 HD
ENDBRANCH   8  21
BRANCH   9  24
ATOM     24  C   UNL     1      -0.644  -5.044  -1.555  0.00  0.00    +0.101 C 
ATOM     25  N   UNL     1      -1.330  -5.878  -1.202  0.00  0.00    -0.191 NA
ENDBRANCH   9  24
TORSDOF 4
