REMARK  Name = ZINC03319404
REMARK  7 active torsions:
REMARK  status: ('A' for Active; 'I' for Inactive)
REMARK    1  A    between atoms: C_1  and  C_2
REMARK    2  A    between atoms: C_5  and  N_8
REMARK    3  A    between atoms: C_9  and  C_11
REMARK    4  A    between atoms: C_11  and  C_13
REMARK    5  A    between atoms: C_11  and  N_14
REMARK    6  A    between atoms: C_25  and  O_27
REMARK    7  A    between atoms: O_27  and  C_28
REMARK                            x       y       z     vdW  Elec       q    Type
REMARK                         _______ _______ _______ _____ _____    ______ ____
ROOT
ATOM      1  N   UNL     1      -3.668   1.368  -0.283  0.00  0.00    -0.212 N 
ATOM      2  C   UNL     1      -4.663   1.492   0.619  0.00  0.00    +0.252 C 
ATOM      3  O   UNL     1      -4.720   0.991   1.722  0.00  0.00    -0.272 OA
ATOM      4  C   UNL     1      -5.692   2.388  -0.033  0.00  0.00    +0.138 C 
ATOM      5  C   UNL     1      -5.873   3.664   0.780  0.00  0.00    +0.040 C 
ATOM      6  C   UNL     1      -6.638   3.316   2.063  0.00  0.00    +0.008 C 
ATOM      7  C   UNL     1      -8.072   2.949   1.686  0.00  0.00    +0.036 C 
ATOM      8  C   UNL     1      -8.088   1.907   0.599  0.00  0.00    -0.038 A 
ATOM      9  C   UNL     1      -6.991   1.651  -0.197  0.00  0.00    -0.012 A 
ATOM     10  C   UNL     1      -7.071   0.683  -1.189  0.00  0.00    +0.010 A 
ATOM     11  C   UNL     1      -8.235  -0.030  -1.384  0.00  0.00    +0.046 A 
ATOM     12  C   UNL     1      -9.338   0.222  -0.581  0.00  0.00    +0.120 A 
ATOM     13  C   UNL     1      -9.260   1.189   0.406  0.00  0.00    +0.049 A 
ATOM     14  N   UNL     1      -5.111   2.696  -1.347  0.00  0.00    -0.281 N 
ATOM     15  C   UNL     1      -3.926   2.060  -1.399  0.00  0.00    +0.310 C 
ATOM     16  O   UNL     1      -3.176   2.106  -2.355  0.00  0.00    -0.252 OA
ATOM     17  H   UNL     1      -5.503   3.252  -2.039  0.00  0.00    +0.152 HD
ENDROOT
BRANCH   1  18
ATOM     18  C   UNL     1      -2.453   0.579  -0.066  0.00  0.00    +0.168 C 
ATOM     19  C   UNL     1      -2.358  -0.515  -1.131  0.00  0.00    +0.038 C 
BRANCH  18  21
ATOM     20  N   UNL     1      -0.011   0.966   0.007  0.00  0.00    -0.284 N 
ATOM     21  C   UNL     1      -1.247   1.477  -0.160  0.00  0.00    +0.238 C 
ATOM     22  O   UNL     1      -1.388   2.660  -0.386  0.00  0.00    -0.273 OA
ATOM     23  H   UNL     1       0.108   0.009   0.111  0.00  0.00    +0.155 HD
BRANCH  20  28
ATOM     24  C   UNL     1       4.497   4.409   0.084  0.00  0.00    +0.044 C 
ATOM     25  C   UNL     1       3.300   3.494   0.064  0.00  0.00    -0.050 A 
ATOM     26  C   UNL     1       2.090   3.930   0.572  0.00  0.00    +0.005 A 
ATOM     27  C   UNL     1       0.990   3.095   0.554  0.00  0.00    +0.023 A 
ATOM     28  C   UNL     1       1.101   1.815   0.026  0.00  0.00    +0.033 A 
ATOM     29  C   UNL     1       2.319   1.378  -0.478  0.00  0.00    +0.023 A 
ATOM     30  C   UNL     1       3.413   2.221  -0.463  0.00  0.00    +0.005 A 
ENDBRANCH  20  28
ENDBRANCH  18  21
ENDBRANCH   1  18
BRANCH  12  31
ATOM     31  O   UNL     1     -10.489  -0.478  -0.763  0.00  0.00    -0.495 OA
ATOM     32  C   UNL     1     -10.494  -1.460  -1.801  0.00  0.00    +0.277 C 
ENDBRANCH  12  31
TORSDOF 4
