REMARK  Name = ZINC04293579
REMARK  7 active torsions:
REMARK  status: ('A' for Active; 'I' for Inactive)
REMARK    1  A    between atoms: C_1  and  C_2
REMARK    2  A    between atoms: C_2  and  O_3
REMARK    3  A    between atoms: O_3  and  C_4
REMARK    4  A    between atoms: C_4  and  C_6
REMARK    5  A    between atoms: C_7  and  N_29
REMARK    6  A    between atoms: C_20  and  C_22
REMARK    7  A    between atoms: C_30  and  C_32
REMARK                            x       y       z     vdW  Elec       q    Type
REMARK                         _______ _______ _______ _____ _____    ______ ____
ROOT
ATOM      1  C   UNL     1      -1.096   3.607   0.434  0.00  0.00    +0.106 C 
ATOM      2  C   UNL     1       0.133   4.155   0.280  0.00  0.00    +0.204 C 
ATOM      3  O   UNL     1       1.187   3.422  -0.118  0.00  0.00    -0.440 OA
ATOM      4  C   UNL     1       1.152   2.080  -0.011  0.00  0.00    +0.152 A 
ATOM      5  C   UNL     1       2.400   1.302  -0.042  0.00  0.00    +0.060 A 
ATOM      6  C   UNL     1       3.639   1.931  -0.183  0.00  0.00    +0.015 A 
ATOM      7  C   UNL     1       4.788   1.172  -0.210  0.00  0.00    +0.001 A 
ATOM      8  C   UNL     1       4.718  -0.209  -0.097  0.00  0.00    +0.004 A 
ATOM      9  C   UNL     1       3.502  -0.842   0.043  0.00  0.00    +0.047 A 
ATOM     10  C   UNL     1       2.331  -0.096   0.072  0.00  0.00    +0.143 A 
ATOM     11  O   UNL     1       1.130  -0.699   0.208  0.00  0.00    -0.422 OA
ATOM     12  C   UNL     1      -0.013   0.004   0.237  0.00  0.00    +0.345 A 
ATOM     13  O   UNL     1      -1.070  -0.589   0.362  0.00  0.00    -0.245 OA
ATOM     14  C   UNL     1      -0.025   1.406   0.127  0.00  0.00    +0.092 A 
ATOM     15  C   UNL     1      -1.334   2.147   0.158  0.00  0.00    +0.101 C 
ENDROOT
BRANCH  15  16
ATOM     16  C   UNL     1      -2.026   1.992  -1.172  0.00  0.00    -0.035 A 
ATOM     17  C   UNL     1      -1.415   2.447  -2.326  0.00  0.00    +0.005 A 
ATOM     18  C   UNL     1      -2.047   2.301  -3.547  0.00  0.00    +0.015 A 
ATOM     19  C   UNL     1      -3.296   1.710  -3.612  0.00  0.00    +0.018 A 
ATOM     20  C   UNL     1      -3.909   1.260  -2.457  0.00  0.00    +0.015 A 
ATOM     21  C   UNL     1      -3.274   1.402  -1.237  0.00  0.00    +0.005 A 
ATOM     22 BR   UNL     1      -4.165   1.517  -5.281  0.00  0.00    -0.050 Br
ENDBRANCH  15  16
BRANCH   2  23
ATOM     23  N   UNL     1       0.307   5.496   0.539  0.00  0.00    -0.255 N 
ATOM     24  C   UNL     1       1.541   6.036   0.493  0.00  0.00    +0.234 C 
ATOM     25  O   UNL     1       2.498   5.341   0.222  0.00  0.00    -0.274 OA
ATOM     26  H   UNL     1      -0.458   6.051   0.755  0.00  0.00    +0.158 HD
BRANCH  24  27
ATOM     27  C   UNL     1       1.732   7.504   0.776  0.00  0.00    +0.204 C 
ATOM     28 CL   UNL     1       3.481   7.920   0.636  0.00  0.00    -0.116 Cl
ENDBRANCH  24  27
ENDBRANCH   2  23
BRANCH   1  29
ATOM     29  C   UNL     1      -2.167   4.415   0.854  0.00  0.00    +0.341 C 
ATOM     30  O   UNL     1      -2.524   4.396   2.018  0.00  0.00    -0.245 OA
BRANCH  29  31
ATOM     31  O   UNL     1      -2.799   5.214  -0.033  0.00  0.00    -0.462 OA
BRANCH  31  33
ATOM     32  C   UNL     1      -4.465   6.840  -0.678  0.00  0.00    +0.048 C 
ATOM     33  C   UNL     1      -3.878   6.008   0.464  0.00  0.00    +0.229 C 
ENDBRANCH  31  33
ENDBRANCH  29  31
ENDBRANCH   1  29
TORSDOF 6
