REMARK  Name = ZINC64477661
REMARK  8 active torsions:
REMARK  status: ('A' for Active; 'I' for Inactive)
REMARK    1  A    between atoms: C_1  and  C_2
REMARK    2  A    between atoms: C_4  and  C_27
REMARK    3  A    between atoms: C_5  and  S_11
REMARK    4  A    between atoms: C_7  and  C_8
REMARK    5  A    between atoms: S_11  and  N_14
REMARK    6  A    between atoms: N_14  and  C_15
REMARK    7  A    between atoms: N_21  and  C_26
REMARK    8  A    between atoms: N_24  and  C_25
REMARK                            x       y       z     vdW  Elec       q    Type
REMARK                         _______ _______ _______ _____ _____    ______ ____
ROOT
ATOM      1  S   UNL     1       0.222  -4.803  -0.062  0.00  0.00    +0.073 S 
ATOM      2  O   UNL     1       0.296  -5.191   1.304  0.00  0.00    -0.150 OA
ATOM      3  O   UNL     1       0.475  -3.473  -0.491  0.00  0.00    -0.150 OA
ENDROOT
BRANCH   1   8
ATOM      4  C   UNL     1       4.058  -8.382  -3.064  0.00  0.00    +0.044 C 
ATOM      5  C   UNL     1       3.103  -7.486  -2.317  0.00  0.00    -0.036 A 
ATOM      6  C   UNL     1       2.189  -8.030  -1.438  0.00  0.00    +0.009 A 
ATOM      7  C   UNL     1       1.312  -7.209  -0.752  0.00  0.00    -0.024 A 
ATOM      8  C   UNL     1       1.344  -5.838  -0.941  0.00  0.00    +0.112 A 
ATOM      9  C   UNL     1       2.252  -5.281  -1.817  0.00  0.00    +0.044 A 
ATOM     10  C   UNL     1       3.145  -6.103  -2.509  0.00  0.00    +0.068 A 
ATOM     11  C   UNL     1       0.317  -7.811   0.207  0.00  0.00    +0.046 C 
BRANCH  10  12
ATOM     12  C   UNL     1       4.124  -5.514  -3.443  0.00  0.00    +0.387 C 
ATOM     13  O   UNL     1       5.307  -5.811  -3.357  0.00  0.00    -0.241 OA
ATOM     14  O   UNL     1       3.752  -4.728  -4.303  0.00  0.00    -0.241 OA
ENDBRANCH  10  12
ENDBRANCH   1   8
BRANCH   1  15
ATOM     15  N   UNL     1      -1.304  -5.185  -0.579  0.00  0.00    -0.216 N 
ATOM     16  H   UNL     1      -1.957  -5.532   0.049  0.00  0.00    +0.174 HD
BRANCH  15  17
ATOM     17  C   UNL     1      -1.653  -5.005  -1.922  0.00  0.00    +0.050 A 
ATOM     18  C   UNL     1      -1.312  -3.826  -2.576  0.00  0.00    +0.026 A 
ATOM     19  C   UNL     1      -1.653  -3.644  -3.901  0.00  0.00    +0.030 A 
ATOM     20  C   UNL     1      -2.337  -4.638  -4.583  0.00  0.00    +0.070 A 
ATOM     21  C   UNL     1      -2.680  -5.824  -3.930  0.00  0.00    +0.071 A 
ATOM     22  C   UNL     1      -2.332  -6.006  -2.600  0.00  0.00    +0.052 A 
ATOM     23  N   UNL     1      -3.350  -6.617  -4.859  0.00  0.00    -0.295 N 
ATOM     24  C   UNL     1      -3.411  -5.946  -6.024  0.00  0.00    +0.330 A 
ATOM     25  O   UNL     1      -3.932  -6.359  -7.044  0.00  0.00    -0.246 OA
ATOM     26  N   UNL     1      -2.809  -4.749  -5.892  0.00  0.00    -0.295 N 
ATOM     27  C   UNL     1      -2.673  -3.736  -6.941  0.00  0.00    +0.154 C 
ATOM     28  C   UNL     1      -3.894  -7.954  -4.610  0.00  0.00    +0.154 C 
ENDBRANCH  15  17
ENDBRANCH   1  15
TORSDOF 4
