REMARK  Name = ZINC12643211
REMARK  8 active torsions:
REMARK  status: ('A' for Active; 'I' for Inactive)
REMARK    1  A    between atoms: C_1  and  C_2
REMARK    2  A    between atoms: C_7  and  C_25
REMARK    3  A    between atoms: C_10  and  C_12
REMARK    4  A    between atoms: C_12  and  S_13
REMARK    5  A    between atoms: S_13  and  C_14
REMARK    6  A    between atoms: C_20  and  C_22
REMARK    7  A    between atoms: C_22  and  C_23
REMARK    8  A    between atoms: C_22  and  C_24
REMARK                            x       y       z     vdW  Elec       q    Type
REMARK                         _______ _______ _______ _____ _____    ______ ____
ROOT
ATOM      1  S   UNL     1       2.406   1.306   4.542  0.00  0.00    -0.088 S 
ENDROOT
BRANCH   1   2
ATOM      2  C   UNL     1       3.564   0.571   5.648  0.00  0.00    +0.160 A 
ATOM      3  N   UNL     1       3.987  -0.682   5.730  0.00  0.00    -0.133 NA
ATOM      4  N   UNL     1       4.832  -1.046   6.593  0.00  0.00    -0.125 NA
ATOM      5  C   UNL     1       5.348  -0.199   7.469  0.00  0.00    +0.189 A 
ATOM      6  S   UNL     1       4.513   1.306   6.977  0.00  0.00    -0.024 S 
ATOM      7  N   UNL     1       6.280  -0.416   8.481  0.00  0.00    -0.263 N 
ATOM      8  C   UNL     1       6.792  -1.648   8.673  0.00  0.00    +0.221 C 
ATOM      9  O   UNL     1       6.441  -2.568   7.965  0.00  0.00    -0.275 OA
ATOM     10  H   UNL     1       6.561   0.319   9.047  0.00  0.00    +0.157 HD
BRANCH   8  11
ATOM     11  C   UNL     1       7.800  -1.883   9.768  0.00  0.00    +0.069 C 
ATOM     12  C   UNL     1       8.216  -3.355   9.771  0.00  0.00    +0.017 C 
ATOM     13  C   UNL     1       9.030  -1.006   9.526  0.00  0.00    +0.017 C 
ENDBRANCH   8  11
ENDBRANCH   1   2
BRANCH   1  14
ATOM     14  C   UNL     1       1.871  -0.070   3.488  0.00  0.00    +0.172 C 
BRANCH  14  22
ATOM     15  C   UNL     1      -0.408   1.755   0.523  0.00  0.00    +0.028 C 
ATOM     16  C   UNL     1      -0.044   0.302   0.214  0.00  0.00    +0.073 C 
ATOM     17  C   UNL     1      -1.311  -0.480  -0.147  0.00  0.00    +0.022 C 
ATOM     18  C   UNL     1      -0.962  -1.960  -0.319  0.00  0.00    +0.004 C 
ATOM     19  C   UNL     1      -0.411  -2.512   0.998  0.00  0.00    +0.022 C 
ATOM     20  C   UNL     1       0.866  -1.754   1.372  0.00  0.00    +0.073 C 
ATOM     21  N   UNL     1       0.574  -0.313   1.396  0.00  0.00    -0.295 N 
ATOM     22  C   UNL     1       0.865   0.428   2.483  0.00  0.00    +0.226 C 
ATOM     23  O   UNL     1       0.317   1.496   2.653  0.00  0.00    -0.275 OA
ATOM     24  C   UNL     1       1.347  -2.206   2.752  0.00  0.00    +0.028 C 
ENDBRANCH  14  22
ENDBRANCH   1  14
TORSDOF 4
