REMARK  Name = ZINC09192645
REMARK  7 active torsions:
REMARK  status: ('A' for Active; 'I' for Inactive)
REMARK    1  A    between atoms: C_1  and  O_2
REMARK    2  A    between atoms: O_2  and  C_3
REMARK    3  A    between atoms: C_6  and  C_9
REMARK    4  A    between atoms: N_14  and  C_17
REMARK    5  A    between atoms: C_20  and  N_23
REMARK    6  A    between atoms: C_24  and  C_26
REMARK    7  A    between atoms: C_29  and  N_32
REMARK                            x       y       z     vdW  Elec       q    Type
REMARK                         _______ _______ _______ _____ _____    ______ ____
ROOT
ATOM      1  C   UNL     1       3.184   3.734  -2.422  0.00  0.00    +0.030 A 
ATOM      2  C   UNL     1       1.923   4.315  -2.440  0.00  0.00    +0.025 A 
ATOM      3  C   UNL     1       0.865   3.650  -3.026  0.00  0.00    +0.025 A 
ATOM      4  C   UNL     1       1.061   2.400  -3.598  0.00  0.00    +0.034 A 
ATOM      5  C   UNL     1       2.321   1.816  -3.575  0.00  0.00    +0.025 A 
ATOM      6  C   UNL     1       3.381   2.483  -2.993  0.00  0.00    +0.025 A 
ENDROOT
BRANCH   1  12
ATOM      7  C   UNL     1       7.910   6.210  -1.907  0.00  0.00    +0.247 C 
ATOM      8  O   UNL     1       8.000   7.381  -2.223  0.00  0.00    -0.270 OA
ATOM      9  N   UNL     1       6.714   5.696  -1.560  0.00  0.00    -0.295 N 
ATOM     10  C   UNL     1       6.594   4.302  -1.106  0.00  0.00    +0.127 C 
ATOM     11  C   UNL     1       5.491   3.617  -1.921  0.00  0.00    +0.124 C 
ATOM     12  N   UNL     1       4.257   4.408  -1.829  0.00  0.00    -0.327 N 
ATOM     13  C   UNL     1       4.433   5.741  -2.420  0.00  0.00    +0.124 C 
ATOM     14  C   UNL     1       5.492   6.513  -1.627  0.00  0.00    +0.127 C 
BRANCH   7  18
ATOM     15  C   UNL     1      11.367   3.743  -1.896  0.00  0.00    +0.120 A 
ATOM     16  C   UNL     1      11.250   4.769  -2.827  0.00  0.00    +0.046 A 
ATOM     17  C   UNL     1      10.130   5.571  -2.834  0.00  0.00    +0.016 A 
ATOM     18  C   UNL     1       9.111   5.353  -1.903  0.00  0.00    +0.037 A 
ATOM     19  C   UNL     1       9.235   4.325  -0.965  0.00  0.00    +0.016 A 
ATOM     20  C   UNL     1      10.355   3.523  -0.969  0.00  0.00    +0.046 A 
BRANCH  15  22
ATOM     21  C   UNL     1      12.527   1.921  -0.908  0.00  0.00    +0.277 C 
ATOM     22  O   UNL     1      12.472   2.955  -1.892  0.00  0.00    -0.495 OA
ENDBRANCH  15  22
ENDBRANCH   7  18
ENDBRANCH   1  12
BRANCH   4  23
ATOM     23  N   UNL     1      -0.013   1.725  -4.192  0.00  0.00    -0.282 N 
ATOM     24  C   UNL     1      -0.964   2.418  -4.848  0.00  0.00    +0.248 C 
ATOM     25  O   UNL     1      -0.937   3.634  -4.851  0.00  0.00    -0.270 OA
ATOM     26  H   UNL     1      -0.073   0.759  -4.129  0.00  0.00    +0.155 HD
BRANCH  24  27
ATOM     27  C   UNL     1      -2.041   1.701  -5.563  0.00  0.00    +0.037 A 
ATOM     28  C   UNL     1      -2.071   0.305  -5.566  0.00  0.00    +0.015 A 
ATOM     29  C   UNL     1      -3.082  -0.358  -6.231  0.00  0.00    +0.033 A 
ATOM     30  C   UNL     1      -4.057   0.357  -6.903  0.00  0.00    +0.126 A 
ATOM     31  C   UNL     1      -4.030   1.740  -6.909  0.00  0.00    +0.033 A 
ATOM     32  C   UNL     1      -3.028   2.416  -6.243  0.00  0.00    +0.015 A 
BRANCH  30  33
ATOM     33  N   UNL     1      -5.135  -0.362  -7.620  0.00  0.00    +0.056 N 
ATOM     34  O   UNL     1      -5.995   0.265  -8.213  0.00  0.00    -0.126 OA
ATOM     35  O   UNL     1      -5.162  -1.579  -7.617  0.00  0.00    -0.126 OA
ENDBRANCH  30  33
ENDBRANCH  24  27
ENDBRANCH   4  23
TORSDOF 6
