REMARK  Name = ZINC64525431
REMARK  5 active torsions:
REMARK  status: ('A' for Active; 'I' for Inactive)
REMARK    1  A    between atoms: C_1  and  N_2
REMARK    2  A    between atoms: C_3  and  C_5
REMARK    3  A    between atoms: C_7  and  N_12
REMARK    4  A    between atoms: C_13  and  C_15
REMARK    5  A    between atoms: C_16  and  C_17
REMARK                            x       y       z     vdW  Elec       q    Type
REMARK                         _______ _______ _______ _____ _____    ______ ____
ROOT
ATOM      1  N   UNL     1      -0.551  -4.961   1.049  0.00  0.00    -0.282 N 
ATOM      2  C   UNL     1      -0.619  -6.305   0.987  0.00  0.00    +0.241 C 
ATOM      3  O   UNL     1      -0.087  -6.900   0.068  0.00  0.00    -0.270 OA
ATOM      4  H   UNL     1      -0.916  -4.491   1.816  0.00  0.00    +0.155 HD
ENDROOT
BRANCH   1   7
ATOM      5  C   UNL     1       0.144  -2.286  -1.391  0.00  0.00    +0.074 A 
ATOM      6  C   UNL     1      -0.454  -3.001  -0.352  0.00  0.00    +0.039 A 
ATOM      7  C   UNL     1       0.046  -4.241   0.008  0.00  0.00    +0.035 A 
ATOM      8  C   UNL     1       1.141  -4.773  -0.665  0.00  0.00    +0.026 A 
ATOM      9  C   UNL     1       1.735  -4.068  -1.694  0.00  0.00    +0.041 A 
ATOM     10  C   UNL     1       1.241  -2.831  -2.066  0.00  0.00    +0.136 A 
ATOM     11  F   UNL     1       1.821  -2.147  -3.077  0.00  0.00    -0.205 F 
BRANCH   5  14
ATOM     12  C   UNL     1      -1.964   0.872  -1.515  0.00  0.00    +0.128 C 
ATOM     13  N   UNL     1      -1.441  -0.440  -1.129  0.00  0.00    -0.314 N 
ATOM     14  C   UNL     1      -0.384  -0.963  -1.781  0.00  0.00    +0.247 C 
ATOM     15  O   UNL     1       0.136  -0.345  -2.690  0.00  0.00    -0.270 OA
ATOM     16  H   UNL     1      -1.855  -0.933  -0.404  0.00  0.00    +0.149 HD
ENDBRANCH   5  14
ENDBRANCH   1   7
BRANCH   2  17
ATOM     17  C   UNL     1      -1.330  -7.050   2.025  0.00  0.00    +0.068 C 
ATOM     18  C   UNL     1      -1.398  -8.397   1.963  0.00  0.00    +0.013 C 
BRANCH  18  19
ATOM     19  C   UNL     1      -2.114  -9.146   3.006  0.00  0.00    -0.020 A 
ATOM     20  C   UNL     1      -2.180 -10.543   2.947  0.00  0.00    +0.057 A 
ATOM     21  C   UNL     1      -2.853 -11.242   3.929  0.00  0.00    +0.168 A 
ATOM     22  C   UNL     1      -3.466 -10.556   4.980  0.00  0.00    +0.184 A 
ATOM     23  C   UNL     1      -3.399  -9.169   5.039  0.00  0.00    +0.087 A 
ATOM     24  C   UNL     1      -2.725  -8.464   4.064  0.00  0.00    +0.031 A 
ATOM     25 CL   UNL     1      -4.163  -8.322   6.347  0.00  0.00    -0.080 Cl
ATOM     26  O   UNL     1      -4.056 -11.466   5.807  0.00  0.00    -0.451 OA
ATOM     27  C   UNL     1      -4.151 -12.680   5.039  0.00  0.00    +0.466 C 
ATOM     28  O   UNL     1      -3.062 -12.580   4.103  0.00  0.00    -0.453 OA
ENDBRANCH  18  19
ENDBRANCH   2  17
TORSDOF 4
