REMARK  Name = ZINC20759792
REMARK  12 active torsions:
REMARK  status: ('A' for Active; 'I' for Inactive)
REMARK    1  A    between atoms: C_1  and  C_2
REMARK    2  A    between atoms: C_6  and  O_32
REMARK    3  A    between atoms: C_12  and  C_13
REMARK    4  A    between atoms: C_13  and  C_14
REMARK    5  A    between atoms: C_14  and  C_15
REMARK    6  A    between atoms: N_17  and  C_18
REMARK    7  A    between atoms: C_18  and  C_19
REMARK    8  A    between atoms: C_19  and  N_25
REMARK    9  A    between atoms: N_28  and  C_31
REMARK   10  A    between atoms: O_32  and  C_33
REMARK   11  A    between atoms: C_33  and  C_34
REMARK   12  A    between atoms: C_34  and  C_36
REMARK                            x       y       z     vdW  Elec       q    Type
REMARK                         _______ _______ _______ _____ _____    ______ ____
ROOT
ATOM      1  C   UNL     1      -1.409   0.131   3.007  0.00  0.00    +0.100 C 
ENDROOT
BRANCH   1   2
ATOM      2  C   UNL     1      -1.406   0.854   4.329  0.00  0.00    +0.213 C 
ATOM      3  O   UNL     1      -0.360   1.240   4.807  0.00  0.00    -0.276 OA
ATOM      4  N   UNL     1      -2.566   1.073   4.980  0.00  0.00    -0.314 N 
ATOM      5  H   UNL     1      -3.402   0.764   4.597  0.00  0.00    +0.149 HD
BRANCH   4   6
ATOM      6  C   UNL     1      -2.563   1.776   6.265  0.00  0.00    +0.126 C 
BRANCH   6   7
ATOM      7  C   UNL     1      -3.997   1.891   6.786  0.00  0.00    +0.037 C 
ATOM      8  C   UNL     1      -3.994   2.626   8.128  0.00  0.00    +0.024 C 
ATOM      9  C   UNL     1      -3.406   4.026   7.942  0.00  0.00    +0.002 C 
ATOM     10  C   UNL     1      -4.253   4.806   6.935  0.00  0.00    +0.000 C 
ATOM     11  C   UNL     1      -4.256   4.071   5.593  0.00  0.00    +0.002 C 
ATOM     12  C   UNL     1      -4.845   2.671   5.779  0.00  0.00    +0.024 C 
BRANCH   7  13
ATOM     13  N   UNL     1      -4.562   0.547   6.965  0.00  0.00    -0.299 NA
ATOM     14  C   UNL     1      -5.970   0.619   7.381  0.00  0.00    +0.066 C 
ATOM     15  C   UNL     1      -6.537  -0.797   7.498  0.00  0.00    -0.064 C 
ATOM     16  N   UNL     1      -5.755  -1.558   8.482  0.00  0.00    +0.379 N 
ATOM     17  C   UNL     1      -4.357  -1.642   8.040  0.00  0.00    -0.064 C 
ATOM     18  C   UNL     1      -3.772  -0.233   7.928  0.00  0.00    +0.066 C 
ATOM     19  C   UNL     1      -6.311  -2.912   8.607  0.00  0.00    -0.096 C 
ATOM     20  H   UNL     1      -5.798  -1.094   9.377  0.00  0.00    -0.082 HD
ENDBRANCH   7  13
ENDBRANCH   6   7
ENDBRANCH   4   6
ENDBRANCH   1   2
BRANCH   1  21
ATOM     21  C   UNL     1       0.025   0.016   2.486  0.00  0.00    +0.052 C 
BRANCH  21  33
ATOM     22  C   UNL     1      -0.018   1.503   0.010  0.00  0.00    +0.045 C 
ATOM     23  C   UNL     1       0.002  -0.004   0.002  0.00  0.00    -0.030 A 
ATOM     24  C   UNL     1       0.006  -0.749  -1.259  0.00  0.00    +0.021 A 
ATOM     25  C   UNL     1      -0.008  -0.083  -2.490  0.00  0.00    +0.015 A 
ATOM     26  C   UNL     1      -0.003  -0.802  -3.650  0.00  0.00    +0.046 A 
ATOM     27  C   UNL     1       0.016  -2.195  -3.617  0.00  0.00    +0.124 A 
ATOM     28  C   UNL     1       0.031  -2.870  -2.407  0.00  0.00    +0.092 A 
ATOM     29  C   UNL     1       0.026  -2.156  -1.219  0.00  0.00    +0.143 A 
ATOM     30  O   UNL     1       0.041  -2.795  -0.029  0.00  0.00    -0.422 OA
ATOM     31  C   UNL     1       0.037  -2.118   1.129  0.00  0.00    +0.341 A 
ATOM     32  O   UNL     1       0.051  -2.736   2.178  0.00  0.00    -0.245 OA
ATOM     33  C   UNL     1       0.023  -0.708   1.164  0.00  0.00    +0.041 A 
BRANCH  27  34
ATOM     34  O   UNL     1       0.020  -2.896  -4.779  0.00  0.00    -0.488 OA
BRANCH  34  35
ATOM     35  C   UNL     1       0.004  -2.140  -5.992  0.00  0.00    +0.259 C 
BRANCH  35  36
ATOM     36  C   UNL     1       0.012  -3.081  -7.170  0.00  0.00    -0.043 C 
ATOM     37  C   UNL     1       0.030  -4.376  -6.974  0.00  0.00    +0.011 C 
ATOM     38  C   UNL     1      -0.003  -2.531  -8.573  0.00  0.00    +0.042 C 
ENDBRANCH  35  36
ENDBRANCH  34  35
ENDBRANCH  27  34
ENDBRANCH  21  33
ENDBRANCH   1  21
TORSDOF 9
