REMARK  Name = ZINC05543174
REMARK  9 active torsions:
REMARK  status: ('A' for Active; 'I' for Inactive)
REMARK    1  A    between atoms: C_1  and  C_2
REMARK    2  A    between atoms: C_5  and  C_8
REMARK    3  A    between atoms: N_9  and  N_10
REMARK    4  A    between atoms: C_11  and  C_13
REMARK    5  A    between atoms: N_15  and  C_16
REMARK    6  A    between atoms: C_16  and  C_18
REMARK    7  A    between atoms: C_16  and  C_19
REMARK    8  A    between atoms: C_22  and  O_25
REMARK    9  A    between atoms: O_25  and  C_26
REMARK                            x       y       z     vdW  Elec       q    Type
REMARK                         _______ _______ _______ _____ _____    ______ ____
ROOT
ATOM      1  C   UNL     1      -1.280  -0.768   0.010  0.00  0.00    +0.301 C 
ATOM      2  O   UNL     1      -2.339  -0.175   0.024  0.00  0.00    -0.265 OA
ATOM      3  N   UNL     1      -1.262  -2.115   0.003  0.00  0.00    -0.301 N 
ATOM      4  H   UNL     1      -0.415  -2.589  -0.008  0.00  0.00    +0.150 HD
ENDROOT
BRANCH   1   6
ATOM      5  N   UNL     1      -0.016   1.344   0.009  0.00  0.00    -0.199 N 
ATOM      6  C   UNL     1       0.002  -0.004   0.002  0.00  0.00    +0.318 C 
ATOM      7  O   UNL     1       1.062  -0.597  -0.011  0.00  0.00    -0.263 OA
ATOM      8  H   UNL     1      -0.863   1.817   0.016  0.00  0.00    +0.178 HD
BRANCH   5  10
ATOM      9  C   UNL     1       1.170   3.359   0.009  0.00  0.00    +0.138 C 
ATOM     10  N   UNL     1       1.187   2.061   0.002  0.00  0.00    -0.187 NA
BRANCH   9  15
ATOM     11  C   UNL     1       6.111   6.302  -0.022  0.00  0.00    +0.044 C 
ATOM     12  C   UNL     1       4.816   5.531  -0.014  0.00  0.00    -0.050 A 
ATOM     13  C   UNL     1       3.610   6.210   0.001  0.00  0.00    +0.004 A 
ATOM     14  C   UNL     1       2.421   5.511   0.009  0.00  0.00    +0.010 A 
ATOM     15  C   UNL     1       2.436   4.114   0.001  0.00  0.00    -0.005 A 
ATOM     16  C   UNL     1       3.658   3.435  -0.009  0.00  0.00    +0.010 A 
ATOM     17  C   UNL     1       4.838   4.147  -0.022  0.00  0.00    +0.004 A 
ENDBRANCH   9  15
ENDBRANCH   5  10
ENDBRANCH   1   6
BRANCH   3  18
ATOM     18  C   UNL     1      -2.520  -2.865   0.011  0.00  0.00    +0.101 C 
ATOM     19  C   UNL     1      -3.036  -3.010  -1.422  0.00  0.00    +0.033 C 
BRANCH  18  20
ATOM     20  C   UNL     1      -2.287  -4.231   0.602  0.00  0.00    -0.027 A 
ATOM     21  C   UNL     1      -1.137  -4.932   0.289  0.00  0.00    +0.009 A 
ATOM     22  C   UNL     1      -0.918  -6.182   0.834  0.00  0.00    +0.046 A 
ATOM     23  C   UNL     1      -1.859  -6.740   1.686  0.00  0.00    +0.120 A 
ATOM     24  C   UNL     1      -3.016  -6.038   1.994  0.00  0.00    +0.046 A 
ATOM     25  C   UNL     1      -3.227  -4.785   1.451  0.00  0.00    +0.009 A 
BRANCH  23  26
ATOM     26  O   UNL     1      -1.650  -7.973   2.218  0.00  0.00    -0.495 OA
ATOM     27  C   UNL     1      -0.437  -8.638   1.857  0.00  0.00    +0.277 C 
ENDBRANCH  23  26
ENDBRANCH  18  20
ENDBRANCH   3  18
TORSDOF 6
