REMARK  Name = ZINC63839504
REMARK  7 active torsions:
REMARK  status: ('A' for Active; 'I' for Inactive)
REMARK    1  A    between atoms: C_1  and  C_2
REMARK    2  A    between atoms: C_5  and  C_26
REMARK    3  A    between atoms: N_6  and  C_7
REMARK    4  A    between atoms: C_8  and  C_13
REMARK    5  A    between atoms: N_11  and  C_12
REMARK    6  A    between atoms: N_15  and  N_16
REMARK    7  A    between atoms: C_17  and  C_19
REMARK                            x       y       z     vdW  Elec       q    Type
REMARK                         _______ _______ _______ _____ _____    ______ ____
ROOT
ATOM      1  C   UNL     1       2.555  -0.211   2.772  0.00  0.00    +0.265 C 
ATOM      2  O   UNL     1       2.821  -0.575   1.642  0.00  0.00    -0.268 OA
ATOM      3  N   UNL     1       3.546   0.092   3.634  0.00  0.00    -0.230 N 
ATOM      4  H   UNL     1       3.334   0.382   4.535  0.00  0.00    +0.173 HD
ENDROOT
BRANCH   1   6
ATOM      5  C   UNL     1       0.030  -0.380   2.426  0.00  0.00    +0.148 A 
ATOM      6  C   UNL     1       1.152  -0.103   3.198  0.00  0.00    +0.100 A 
ATOM      7  C   UNL     1       0.689   0.303   4.471  0.00  0.00    +0.149 A 
ATOM      8  N   UNL     1      -0.614   0.270   4.458  0.00  0.00    -0.177 NA
ATOM      9  N   UNL     1      -1.051  -0.146   3.196  0.00  0.00    -0.250 N 
ATOM     10  C   UNL     1      -2.447  -0.305   2.783  0.00  0.00    +0.174 C 
BRANCH   5  16
ATOM     11  C   UNL     1      -0.018   1.503   0.010  0.00  0.00    +0.064 C 
ATOM     12  C   UNL     1       0.002  -0.004   0.002  0.00  0.00    +0.022 A 
ATOM     13  C   UNL     1       0.008  -0.788  -1.094  0.00  0.00    +0.023 A 
ATOM     14  C   UNL     1       0.029  -2.129  -0.656  0.00  0.00    +0.023 A 
ATOM     15  C   UNL     1       0.034  -2.115   0.692  0.00  0.00    +0.022 A 
ATOM     16  N   UNL     1       0.024  -0.812   1.105  0.00  0.00    -0.302 N 
ATOM     17  C   UNL     1       0.055  -3.326   1.588  0.00  0.00    +0.064 C 
ENDBRANCH   5  16
ENDBRANCH   1   6
BRANCH   3  18
ATOM     18  N   UNL     1       4.883  -0.011   3.228  0.00  0.00    -0.230 N 
ATOM     19  C   UNL     1       5.874   0.292   4.089  0.00  0.00    +0.262 C 
ATOM     20  O   UNL     1       5.608   0.655   5.218  0.00  0.00    -0.269 OA
ATOM     21  H   UNL     1       5.095  -0.301   2.327  0.00  0.00    +0.173 HD
BRANCH  19  22
ATOM     22  C   UNL     1       7.284   0.183   3.661  0.00  0.00    +0.056 A 
ATOM     23  C   UNL     1       8.324   0.490   4.549  0.00  0.00    +0.017 A 
ATOM     24  C   UNL     1       9.626   0.372   4.100  0.00  0.00    +0.041 A 
ATOM     25  C   UNL     1       9.859  -0.043   2.798  0.00  0.00    +0.129 A 
ATOM     26  N   UNL     1       8.859  -0.325   1.984  0.00  0.00    -0.243 NA
ATOM     27  C   UNL     1       7.603  -0.233   2.368  0.00  0.00    +0.125 A 
ATOM     28 CL   UNL     1      11.492  -0.193   2.229  0.00  0.00    -0.062 Cl
ENDBRANCH  19  22
ENDBRANCH   3  18
TORSDOF 4
