REMARK  Name = ZINC48690489
REMARK  10 active torsions:
REMARK  status: ('A' for Active; 'I' for Inactive)
REMARK    1  A    between atoms: C_1  and  C_2
REMARK    2  A    between atoms: C_4  and  S_24
REMARK    3  A    between atoms: C_6  and  N_9
REMARK    4  A    between atoms: C_7  and  C_8
REMARK    5  A    between atoms: C_10  and  C_12
REMARK    6  A    between atoms: N_14  and  C_15
REMARK    7  A    between atoms: C_21  and  C_23
REMARK    8  A    between atoms: S_24  and  N_27
REMARK    9  A    between atoms: N_27  and  C_28
REMARK   10  A    between atoms: N_27  and  C_29
REMARK                            x       y       z     vdW  Elec       q    Type
REMARK                         _______ _______ _______ _____ _____    ______ ____
ROOT
ATOM      1  N   UNL     1       0.051  -2.797   2.391  0.00  0.00    -0.277 N 
ATOM      2  C   UNL     1      -0.033  -4.142   2.383  0.00  0.00    +0.303 C 
ATOM      3  O   UNL     1      -0.030  -4.745   1.329  0.00  0.00    -0.265 OA
ATOM      4  H   UNL     1       0.129  -2.321   3.232  0.00  0.00    +0.155 HD
ENDROOT
BRANCH   1  10
ATOM      5  C   UNL     1       1.207   1.235  -0.171  0.00  0.00    +0.044 C 
ATOM      6  C   UNL     1       0.578  -0.131  -0.084  0.00  0.00    -0.044 A 
ATOM      7  C   UNL     1      -0.027  -0.686  -1.198  0.00  0.00    +0.032 A 
ATOM      8  C   UNL     1      -0.605  -1.939  -1.123  0.00  0.00    +0.107 A 
ATOM      9  C   UNL     1      -0.581  -2.643   0.066  0.00  0.00    +0.052 A 
ATOM     10  C   UNL     1       0.025  -2.089   1.186  0.00  0.00    +0.039 A 
ATOM     11  C   UNL     1       0.610  -0.831   1.106  0.00  0.00    -0.026 A 
ATOM     12  C   UNL     1       1.274  -0.229   2.317  0.00  0.00    +0.046 C 
BRANCH   8  13
ATOM     13  S   UNL     1      -1.374  -2.641  -2.545  0.00  0.00    +0.060 S 
ATOM     14  O   UNL     1      -2.318  -3.591  -2.069  0.00  0.00    -0.153 OA
ATOM     15  O   UNL     1      -1.742  -1.555  -3.384  0.00  0.00    -0.153 OA
BRANCH  13  16
ATOM     16  N   UNL     1      -0.211  -3.495  -3.358  0.00  0.00    -0.183 NA
ATOM     17  C   UNL     1       0.009  -4.910  -3.048  0.00  0.00    +0.131 C 
ATOM     18  C   UNL     1       0.596  -2.836  -4.388  0.00  0.00    +0.131 C 
ENDBRANCH  13  16
ENDBRANCH   8  13
ENDBRANCH   1  10
BRANCH   2  19
ATOM     19  C   UNL     1      -0.130  -4.891   3.671  0.00  0.00    +0.300 C 
ATOM     20  O   UNL     1      -0.133  -4.289   4.725  0.00  0.00    -0.265 OA
ATOM     21  N   UNL     1      -0.213  -6.237   3.664  0.00  0.00    -0.304 N 
ATOM     22  H   UNL     1      -0.211  -6.718   2.822  0.00  0.00    +0.149 HD
BRANCH  21  23
ATOM     23  C   UNL     1      -0.308  -6.971   4.928  0.00  0.00    +0.076 C 
ATOM     24  C   UNL     1      -1.770  -7.029   5.376  0.00  0.00    +0.022 C 
ATOM     25  C   UNL     1      -1.870  -7.797   6.696  0.00  0.00    +0.002 C 
ATOM     26  C   UNL     1      -1.340  -9.219   6.500  0.00  0.00    +0.000 C 
ATOM     27  C   UNL     1       0.122  -9.161   6.052  0.00  0.00    +0.005 C 
ATOM     28  C   UNL     1       0.221  -8.393   4.732  0.00  0.00    +0.006 C 
ATOM     29  C   UNL     1       1.683  -8.336   4.284  0.00  0.00    +0.009 C 
ENDBRANCH  21  23
ENDBRANCH   2  19
TORSDOF 5
