REMARK  Name = ZINC47972759
REMARK  7 active torsions:
REMARK  status: ('A' for Active; 'I' for Inactive)
REMARK    1  A    between atoms: C_1  and  C_2
REMARK    2  A    between atoms: C_6  and  C_27
REMARK    3  A    between atoms: C_7  and  N_8
REMARK    4  A    between atoms: C_9  and  S_13
REMARK    5  A    between atoms: S_13  and  C_14
REMARK    6  A    between atoms: C_14  and  C_15
REMARK    7  A    between atoms: N_17  and  C_18
REMARK                            x       y       z     vdW  Elec       q    Type
REMARK                         _______ _______ _______ _____ _____    ______ ____
ROOT
ATOM      1  S   UNL     1       0.555  -2.233   4.049  0.00  0.00    -0.075 S 
ENDROOT
BRANCH   1   3
ATOM      2  N   UNL     1       0.020  -0.026   2.427  0.00  0.00    -0.187 N 
ATOM      3  C   UNL     1       0.228  -0.545   3.663  0.00  0.00    +0.214 A 
ATOM      4  N   UNL     1       0.139   0.450   4.519  0.00  0.00    -0.101 NA
ATOM      5  N   UNL     1      -0.109   1.551   3.905  0.00  0.00    -0.022 NA
ATOM      6  N   UNL     1      -0.190   1.349   2.635  0.00  0.00    -0.038 NA
BRANCH   2  13
ATOM      7  C   UNL     1       1.929   0.735   0.457  0.00  0.00    +0.046 C 
ATOM      8  C   UNL     1       0.935  -0.372   0.216  0.00  0.00    -0.025 A 
ATOM      9  C   UNL     1       0.936  -1.053  -0.986  0.00  0.00    +0.005 A 
ATOM     10  C   UNL     1       0.025  -2.069  -1.208  0.00  0.00    +0.001 A 
ATOM     11  C   UNL     1      -0.891  -2.406  -0.228  0.00  0.00    +0.005 A 
ATOM     12  C   UNL     1      -0.897  -1.728   0.976  0.00  0.00    -0.025 A 
ATOM     13  C   UNL     1       0.020  -0.712   1.204  0.00  0.00    +0.076 A 
ATOM     14  C   UNL     1      -1.896  -2.096   2.043  0.00  0.00    +0.046 C 
ENDBRANCH   2  13
ENDBRANCH   1   3
BRANCH   1  15
ATOM     15  C   UNL     1       0.730  -2.244   5.854  0.00  0.00    +0.173 C 
BRANCH  15  16
ATOM     16  C   UNL     1       1.017  -3.648   6.323  0.00  0.00    +0.224 C 
ATOM     17  O   UNL     1       1.095  -4.551   5.518  0.00  0.00    -0.275 OA
ATOM     18  N   UNL     1       1.186  -3.898   7.636  0.00  0.00    -0.303 N 
ATOM     19  H   UNL     1       1.123  -3.176   8.280  0.00  0.00    +0.149 HD
BRANCH  18  20
ATOM     20  C   UNL     1       1.464  -5.263   8.091  0.00  0.00    +0.159 C 
ATOM     21  C   UNL     1       2.197  -5.218   9.434  0.00  0.00    +0.032 C 
ATOM     22  C   UNL     1       3.013  -6.480   9.644  0.00  0.00    +0.004 C 
ATOM     23  C   UNL     1       2.172  -7.733   9.810  0.00  0.00    +0.019 C 
ATOM     24  C   UNL     1       1.439  -8.073   8.511  0.00  0.00    +0.104 C 
ATOM     25  N   UNL     1       0.168  -7.331   8.479  0.00  0.00    -0.314 N 
ATOM     26  C   UNL     1       0.162  -6.013   8.275  0.00  0.00    +0.233 C 
ATOM     27  O   UNL     1      -0.891  -5.413   8.242  0.00  0.00    -0.274 OA
ATOM     28  H   UNL     1      -0.669  -7.803   8.603  0.00  0.00    +0.149 HD
ENDBRANCH  18  20
ENDBRANCH  15  16
ENDBRANCH   1  15
TORSDOF 5
