REMARK  Name = ZINC41663059
REMARK  8 active torsions:
REMARK  status: ('A' for Active; 'I' for Inactive)
REMARK    1  A    between atoms: C_1  and  C_2
REMARK    2  A    between atoms: N_8  and  C_9
REMARK    3  A    between atoms: C_9  and  C_10
REMARK    4  A    between atoms: C_10  and  N_11
REMARK    5  A    between atoms: C_12  and  C_14
REMARK    6  A    between atoms: N_16  and  C_17
REMARK    7  A    between atoms: C_24  and  C_26
REMARK    8  A    between atoms: C_24  and  C_27
REMARK                            x       y       z     vdW  Elec       q    Type
REMARK                         _______ _______ _______ _____ _____    ______ ____
ROOT
ATOM      1  C   UNL     1       6.294   0.605   3.629  0.00  0.00    +0.303 C 
ATOM      2  O   UNL     1       6.689   1.274   2.696  0.00  0.00    -0.265 OA
ATOM      3  N   UNL     1       7.100   0.382   4.687  0.00  0.00    -0.278 N 
ATOM      4  H   UNL     1       6.762  -0.096   5.461  0.00  0.00    +0.155 HD
ENDROOT
BRANCH   3   5
ATOM      5  C   UNL     1       8.421   0.838   4.668  0.00  0.00    +0.038 A 
ATOM      6  C   UNL     1       9.424   0.089   5.272  0.00  0.00    +0.027 A 
ATOM      7  C   UNL     1      10.730   0.539   5.254  0.00  0.00    +0.051 A 
ATOM      8  C   UNL     1      11.044   1.738   4.635  0.00  0.00    +0.167 A 
ATOM      9  C   UNL     1      10.041   2.491   4.028  0.00  0.00    +0.169 A 
ATOM     10  C   UNL     1       8.733   2.037   4.040  0.00  0.00    +0.073 A 
ATOM     11  O   UNL     1      10.602   3.616   3.495  0.00  0.00    -0.448 OA
ATOM     12  C   UNL     1      11.886   3.746   4.134  0.00  0.00    +0.248 C 
ATOM     13  O   UNL     1      12.233   2.392   4.481  0.00  0.00    -0.448 OA
ATOM     14  C   UNL     1      11.776   4.612   5.391  0.00  0.00    +0.104 C 
ATOM     15  C   UNL     1      12.913   4.332   3.164  0.00  0.00    +0.104 C 
ENDBRANCH   3   5
BRANCH   1  17
ATOM     16  N   UNL     1       4.111   0.254   2.548  0.00  0.00    -0.309 N 
ATOM     17  C   UNL     1       4.917   0.030   3.605  0.00  0.00    +0.299 C 
ATOM     18  O   UNL     1       4.522  -0.639   4.538  0.00  0.00    -0.265 OA
ATOM     19  H   UNL     1       4.427   0.788   1.802  0.00  0.00    +0.149 HD
BRANCH  16  20
ATOM     20  C   UNL     1       2.760  -0.311   2.524  0.00  0.00    +0.086 C 
BRANCH  20  21
ATOM     21  C   UNL     1       2.062   0.090   1.223  0.00  0.00    -0.059 C 
BRANCH  21  28
ATOM     22  C   UNL     1      -0.015   1.536   0.007  0.00  0.00    -0.013 C 
ATOM     23  C   UNL     1      -0.002   0.006   0.008  0.00  0.00    -0.072 C 
ATOM     24  C   UNL     1      -1.441  -0.515   0.021  0.00  0.00    -0.016 C 
ATOM     25  C   UNL     1      -1.423  -2.046   0.021  0.00  0.00    -0.003 C 
ATOM     26  C   UNL     1      -0.617  -2.538   1.227  0.00  0.00    -0.019 C 
ATOM     27  C   UNL     1       0.791  -1.941   1.169  0.00  0.00    -0.078 C 
ATOM     28  N   UNL     1       0.707  -0.476   1.199  0.00  0.00    +0.382 N 
ATOM     29  H   UNL     1       0.209  -0.185   2.027  0.00  0.00    -0.081 HD
ENDBRANCH  21  28
ENDBRANCH  20  21
ENDBRANCH  16  20
ENDBRANCH   1  17
TORSDOF 5
