REMARK  Name = ZINC48368455
REMARK  7 active torsions:
REMARK  status: ('A' for Active; 'I' for Inactive)
REMARK    1  A    between atoms: C_1  and  O_2
REMARK    2  A    between atoms: O_2  and  C_3
REMARK    3  A    between atoms: C_3  and  C_5
REMARK    4  A    between atoms: N_16  and  C_17
REMARK    5  A    between atoms: C_17  and  C_18
REMARK    6  A    between atoms: N_23  and  C_24
REMARK    7  A    between atoms: C_24  and  C_25
REMARK                            x       y       z     vdW  Elec       q    Type
REMARK                         _______ _______ _______ _____ _____    ______ ____
ROOT
ATOM      1  C   UNL     1       0.657  -2.104  -1.120  0.00  0.00    +0.044 C 
ATOM      2  C   UNL     1      -0.775  -2.684  -1.178  0.00  0.00    -0.002 C 
ATOM      3  C   UNL     1      -0.971  -2.918  -2.690  0.00  0.00    -0.026 C 
ATOM      4  C   UNL     1      -2.058  -3.921  -2.986  0.00  0.00    +0.002 C 
ATOM      5  C   UNL     1      -1.706  -5.308  -2.451  0.00  0.00    +0.000 C 
ATOM      6  C   UNL     1      -0.393  -5.754  -3.106  0.00  0.00    -0.002 C 
ATOM      7  C   UNL     1       0.714  -4.801  -2.663  0.00  0.00    -0.015 C 
ATOM      8  C   UNL     1       0.425  -3.393  -3.132  0.00  0.00    -0.064 C 
ATOM      9  N   UNL     1       1.351  -2.516  -2.356  0.00  0.00    +0.396 N 
ATOM     10  H   UNL     1       1.587  -1.702  -2.902  0.00  0.00    -0.080 HD
ENDROOT
BRANCH   1  11
ATOM     11  C   UNL     1       0.598  -0.600  -1.043  0.00  0.00    +0.293 C 
ATOM     12  O   UNL     1       1.088   0.070  -1.921  0.00  0.00    -0.253 OA
BRANCH  11  14
ATOM     13  C   UNL     1      -0.017   1.425   0.010  0.00  0.00    +0.280 C 
ATOM     14  O   UNL     1       0.002  -0.004   0.002  0.00  0.00    -0.469 OA
ENDBRANCH  11  14
ENDBRANCH   1  11
BRANCH   9  15
ATOM     15  C   UNL     1       2.573  -3.257  -2.016  0.00  0.00    +0.021 C 
BRANCH  15  16
ATOM     16  C   UNL     1       3.550  -2.330  -1.341  0.00  0.00    +0.204 C 
ATOM     17  O   UNL     1       3.258  -1.168  -1.161  0.00  0.00    -0.277 OA
ATOM     18  N   UNL     1       4.750  -2.794  -0.937  0.00  0.00    -0.242 N 
ATOM     19  C   UNL     1       5.625  -1.965  -0.333  0.00  0.00    +0.306 C 
ATOM     20  O   UNL     1       5.332  -0.800  -0.153  0.00  0.00    -0.252 OA
ATOM     21  N   UNL     1       6.824  -2.429   0.070  0.00  0.00    -0.291 N 
ATOM     22  H   UNL     1       4.984  -3.725  -1.081  0.00  0.00    +0.159 HD
ATOM     23  H   UNL     1       7.058  -3.360  -0.074  0.00  0.00    +0.151 HD
BRANCH  21  24
ATOM     24  C   UNL     1       7.774  -1.528   0.727  0.00  0.00    +0.219 C 
BRANCH  24  25
ATOM     25  C   UNL     1       9.047  -2.300   1.081  0.00  0.00    +0.405 C 
ATOM     26  F   UNL     1       9.621  -2.813  -0.087  0.00  0.00    -0.169 F 
ATOM     27  F   UNL     1       9.955  -1.440   1.708  0.00  0.00    -0.169 F 
ATOM     28  F   UNL     1       8.729  -3.352   1.946  0.00  0.00    -0.169 F 
ENDBRANCH  24  25
ENDBRANCH  21  24
ENDBRANCH  15  16
ENDBRANCH   9  15
TORSDOF 6
