REMARK  Name = ZINC05243780
REMARK  8 active torsions:
REMARK  status: ('A' for Active; 'I' for Inactive)
REMARK    1  A    between atoms: C_1  and  C_2
REMARK    2  A    between atoms: C_2  and  C_3
REMARK    3  A    between atoms: C_3  and  C_28
REMARK    4  A    between atoms: C_10  and  N_16
REMARK    5  A    between atoms: C_12  and  S_14
REMARK    6  A    between atoms: S_14  and  C_15
REMARK    7  A    between atoms: N_16  and  N_17
REMARK    8  A    between atoms: C_18  and  C_20
REMARK                            x       y       z     vdW  Elec       q    Type
REMARK                         _______ _______ _______ _____ _____    ______ ____
ROOT
ATOM      1  C   UNL     1       1.002  -4.460   0.827  0.00  0.00    +0.071 C 
ATOM      2  C   UNL     1       0.407  -3.167   0.262  0.00  0.00    +0.071 C 
ATOM      3  C   UNL     1       1.511  -2.113   0.224  0.00  0.00    -0.020 A 
ATOM      4  C   UNL     1       2.802  -2.498   0.306  0.00  0.00    +0.021 A 
ATOM      5  S   UNL     1       3.738  -0.998   0.229  0.00  0.00    -0.071 S 
ATOM      6  C   UNL     1       2.392   0.149   0.086  0.00  0.00    +0.115 A 
ATOM      7  C   UNL     1       1.250  -0.679   0.104  0.00  0.00    +0.052 A 
ATOM      8  C   UNL     1       0.002  -0.004   0.002  0.00  0.00    +0.148 A 
ATOM      9  N   UNL     1      -0.014   1.314  -0.100  0.00  0.00    -0.205 NA
ATOM     10  C   UNL     1       1.101   2.035  -0.111  0.00  0.00    +0.191 A 
ATOM     11  N   UNL     1       2.292   1.460  -0.019  0.00  0.00    -0.215 NA
ATOM     12  C   UNL     1       3.301  -3.905   0.432  0.00  0.00    +0.203 C 
ATOM     13  O   UNL     1       2.209  -4.789   0.133  0.00  0.00    -0.368 OA
ATOM     14  C   UNL     1       1.309  -4.267   2.313  0.00  0.00    +0.042 C 
ENDROOT
BRANCH   1  16
ATOM     15  C   UNL     1       0.527  -6.856   1.347  0.00  0.00    +0.007 C 
ATOM     16  C   UNL     1      -0.006  -5.598   0.660  0.00  0.00    +0.032 C 
ENDBRANCH   1  16
BRANCH  10  17
ATOM     17  S   UNL     1       0.995   3.788  -0.251  0.00  0.00    -0.089 S 
ATOM     18  C   UNL     1       2.754   4.213  -0.213  0.00  0.00    +0.093 C 
ENDBRANCH  10  17
BRANCH   8  19
ATOM     19  N   UNL     1      -1.182  -0.719   0.009  0.00  0.00    -0.248 N 
ATOM     20  H   UNL     1      -1.165  -1.686  -0.069  0.00  0.00    +0.172 HD
BRANCH  19  21
ATOM     21  N   UNL     1      -2.405  -0.047   0.130  0.00  0.00    -0.231 N 
ATOM     22  C   UNL     1      -3.559  -0.744   0.137  0.00  0.00    +0.260 C 
ATOM     23  O   UNL     1      -3.538  -1.955   0.039  0.00  0.00    -0.269 OA
ATOM     24  H   UNL     1      -2.422   0.920   0.209  0.00  0.00    +0.173 HD
BRANCH  22  25
ATOM     25  C   UNL     1      -4.850  -0.035   0.265  0.00  0.00    +0.038 A 
ATOM     26  C   UNL     1      -4.877   1.356   0.384  0.00  0.00    +0.013 A 
ATOM     27  C   UNL     1      -6.085   2.012   0.498  0.00  0.00    +0.001 A 
ATOM     28  C   UNL     1      -7.268   1.293   0.505  0.00  0.00    +0.000 A 
ATOM     29  C   UNL     1      -7.248  -0.086   0.392  0.00  0.00    +0.001 A 
ATOM     30  C   UNL     1      -6.046  -0.753   0.273  0.00  0.00    +0.013 A 
ENDBRANCH  22  25
ENDBRANCH  19  21
ENDBRANCH   8  19
TORSDOF 5
