REMARK  Name = ZINC05447515
REMARK  7 active torsions:
REMARK  status: ('A' for Active; 'I' for Inactive)
REMARK    1  A    between atoms: C_1  and  O_2
REMARK    2  A    between atoms: O_2  and  C_3
REMARK    3  A    between atoms: C_3  and  C_4
REMARK    4  A    between atoms: C_4  and  C_5
REMARK    5  A    between atoms: C_8  and  C_10
REMARK    6  A    between atoms: C_8  and  O_14
REMARK    7  A    between atoms: C_18  and  C_21
REMARK                            x       y       z     vdW  Elec       q    Type
REMARK                         _______ _______ _______ _____ _____    ______ ____
ROOT
ATOM      1  C   UNL     1      -0.047   1.107  -2.471  0.00  0.00    +0.044 C 
ATOM      2  N   UNL     1       1.002   0.392  -2.482  0.00  0.00    -0.184 NA
ATOM      3  N   UNL     1       1.466   0.066  -3.755  0.00  0.00    -0.165 N 
ATOM      4  C   UNL     1       0.574   0.678  -4.753  0.00  0.00    +0.255 C 
ATOM      5  C   UNL     1      -0.479   1.402  -3.890  0.00  0.00    +0.119 C 
ATOM      6  C   UNL     1       2.589  -0.705  -4.036  0.00  0.00    +0.162 A 
ATOM      7  C   UNL     1       3.352  -1.220  -2.990  0.00  0.00    +0.083 A 
ATOM      8  C   UNL     1       4.464  -1.989  -3.285  0.00  0.00    +0.037 A 
ATOM      9  C   UNL     1       4.783  -2.210  -4.619  0.00  0.00    +0.074 A 
ATOM     10  C   UNL     1       3.985  -1.664  -5.604  0.00  0.00    +0.125 A 
ATOM     11  N   UNL     1       2.927  -0.938  -5.294  0.00  0.00    -0.237 NA
ATOM     12 CL   UNL     1       2.910  -0.907  -1.341  0.00  0.00    -0.080 Cl
ENDROOT
BRANCH   4  13
ATOM     13  C   UNL     1       1.340   1.678  -5.622  0.00  0.00    +0.438 C 
ATOM     14  F   UNL     1       1.988   2.607  -4.801  0.00  0.00    -0.166 F 
ATOM     15  F   UNL     1       2.287   0.996  -6.393  0.00  0.00    -0.166 F 
ATOM     16  F   UNL     1       0.445   2.345  -6.465  0.00  0.00    -0.166 F 
ENDBRANCH   4  13
BRANCH   9  17
ATOM     17  C   UNL     1       5.987  -3.037  -4.986  0.00  0.00    +0.419 C 
ATOM     18  F   UNL     1       6.094  -3.112  -6.379  0.00  0.00    -0.166 F 
ATOM     19  F   UNL     1       7.140  -2.441  -4.462  0.00  0.00    -0.166 F 
ATOM     20  F   UNL     1       5.847  -4.325  -4.459  0.00  0.00    -0.166 F 
ENDBRANCH   9  17
BRANCH   4  21
ATOM     21  O   UNL     1      -0.041  -0.327  -5.562  0.00  0.00    -0.363 OA
ATOM     22  H   UNL     1       0.578  -0.812  -6.125  0.00  0.00    +0.212 HD
ENDBRANCH   4  21
BRANCH   1  23
ATOM     23  C   UNL     1      -0.753   1.593  -1.232  0.00  0.00    +0.080 C 
BRANCH  23  24
ATOM     24  C   UNL     1      -0.013   1.086   0.008  0.00  0.00    +0.165 C 
BRANCH  24  26
ATOM     25  C   UNL     1      -0.068   1.127   2.404  0.00  0.00    +0.194 C 
ATOM     26  O   UNL     1      -0.682   1.547   1.184  0.00  0.00    -0.383 OA
ENDBRANCH  24  26
ENDBRANCH  23  24
ENDBRANCH   1  23
TORSDOF 6
