REMARK  Name = ZINC36750561
REMARK  7 active torsions:
REMARK  status: ('A' for Active; 'I' for Inactive)
REMARK    1  A    between atoms: C_1  and  C_2
REMARK    2  A    between atoms: C_4  and  C_16
REMARK    3  A    between atoms: C_6  and  C_11
REMARK    4  A    between atoms: N_18  and  C_19
REMARK    5  A    between atoms: C_19  and  C_20
REMARK    6  A    between atoms: C_20  and  C_22
REMARK    7  A    between atoms: C_20  and  N_27
REMARK                            x       y       z     vdW  Elec       q    Type
REMARK                         _______ _______ _______ _____ _____    ______ ____
ROOT
ATOM      1  C   UNL     1      -0.113   0.705  -3.251  0.00  0.00    +0.245 C 
ATOM      2  O   UNL     1      -0.055   1.651  -2.491  0.00  0.00    -0.270 OA
ATOM      3  N   UNL     1      -0.357   0.907  -4.561  0.00  0.00    -0.313 N 
ATOM      4  H   UNL     1      -0.403   0.152  -5.168  0.00  0.00    +0.149 HD
ENDROOT
BRANCH   1   8
ATOM      5  C   UNL     1      -1.599   1.084  -0.450  0.00  0.00    +0.070 C 
ATOM      6  C   UNL     1      -1.148  -0.354  -0.421  0.00  0.00    +0.091 A 
ATOM      7  C   UNL     1      -0.410  -1.051  -1.472  0.00  0.00    +0.076 A 
ATOM      8  C   UNL     1       0.083  -0.670  -2.738  0.00  0.00    +0.053 A 
ATOM      9  C   UNL     1       0.758  -1.625  -3.489  0.00  0.00    +0.045 A 
ATOM     10  C   UNL     1       0.920  -2.913  -2.965  0.00  0.00    +0.111 A 
ATOM     11  N   UNL     1       0.444  -3.237  -1.771  0.00  0.00    -0.207 NA
ATOM     12  C   UNL     1      -0.206  -2.365  -1.017  0.00  0.00    +0.260 A 
ATOM     13  O   UNL     1      -0.773  -2.450   0.204  0.00  0.00    -0.334 OA
ATOM     14  N   UNL     1      -1.339  -1.200   0.545  0.00  0.00    -0.080 NA
BRANCH  10  15
ATOM     15  C   UNL     1       1.635  -3.931  -3.758  0.00  0.00    +0.153 A 
ATOM     16  C   UNL     1       1.864  -5.220  -3.384  0.00  0.00    +0.051 A 
ATOM     17  C   UNL     1       2.575  -5.827  -4.436  0.00  0.00    +0.042 A 
ATOM     18  C   UNL     1       2.744  -4.891  -5.392  0.00  0.00    +0.196 A 
ATOM     19  O   UNL     1       2.171  -3.749  -4.981  0.00  0.00    -0.461 OA
ENDBRANCH  10  15
ENDBRANCH   1   8
BRANCH   3  20
ATOM     20  C   UNL     1      -0.551   2.268  -5.069  0.00  0.00    +0.094 C 
BRANCH  20  21
ATOM     21  C   UNL     1      -0.937   2.210  -6.548  0.00  0.00    -0.013 C 
BRANCH  21  22
ATOM     22  N   UNL     1      -1.000   3.573  -7.091  0.00  0.00    +0.386 N 
ATOM     23  C   UNL     1      -1.469   3.529  -8.493  0.00  0.00    -0.078 C 
ATOM     24  C   UNL     1      -0.678   4.652  -9.210  0.00  0.00    -0.020 C 
ATOM     25  C   UNL     1       0.707   4.551  -8.517  0.00  0.00    -0.020 C 
ATOM     26  C   UNL     1       0.343   4.181  -7.064  0.00  0.00    -0.078 C 
ATOM     27  H   UNL     1      -1.636   4.130  -6.540  0.00  0.00    -0.081 HD
ENDBRANCH  21  22
BRANCH  21  28
ATOM     28  C   UNL     1      -2.284   1.549  -6.690  0.00  0.00    -0.022 A 
ATOM     29  C   UNL     1      -2.576   0.270  -7.031  0.00  0.00    +0.009 A 
ATOM     30  C   UNL     1      -3.900  -0.120  -7.099  0.00  0.00    +0.008 A 
ATOM     31  C   UNL     1      -4.868   0.788  -6.823  0.00  0.00    +0.045 A 
ATOM     32  S   UNL     1      -3.909   2.246  -6.445  0.00  0.00    -0.103 S 
ENDBRANCH  21  28
ENDBRANCH  20  21
ENDBRANCH   3  20
TORSDOF 6
