REMARK  Name = ZINC14981437
REMARK  10 active torsions:
REMARK  status: ('A' for Active; 'I' for Inactive)
REMARK    1  A    between atoms: C_1  and  C_2
REMARK    2  A    between atoms: C_6  and  C_8
REMARK    3  A    between atoms: C_8  and  C_9
REMARK    4  A    between atoms: C_9  and  N_10
REMARK    5  A    between atoms: C_11  and  C_13
REMARK    6  A    between atoms: C_13  and  C_14
REMARK    7  A    between atoms: N_21  and  C_22
REMARK    8  A    between atoms: C_22  and  C_23
REMARK    9  A    between atoms: C_23  and  C_24
REMARK   10  A    between atoms: C_23  and  C_25
REMARK                            x       y       z     vdW  Elec       q    Type
REMARK                         _______ _______ _______ _____ _____    ______ ____
ROOT
ATOM      1  N   UNL     1       1.462  -3.579   4.457  0.00  0.00    -0.315 N 
ATOM      2  C   UNL     1       2.657  -4.023   4.894  0.00  0.00    +0.212 C 
ATOM      3  O   UNL     1       3.666  -3.752   4.277  0.00  0.00    -0.276 OA
ATOM      4  H   UNL     1       0.655  -3.796   4.950  0.00  0.00    +0.149 HD
ENDROOT
BRANCH   1   5
ATOM      5  C   UNL     1       1.381  -2.770   3.239  0.00  0.00    +0.112 C 
BRANCH   5   6
ATOM      6  C   UNL     1      -0.079  -2.400   2.968  0.00  0.00    +0.095 C 
BRANCH   6  12
ATOM      7  C   UNL     1      -0.036   2.006   0.844  0.00  0.00    +0.066 C 
ATOM      8  C   UNL     1      -0.140   0.507   0.729  0.00  0.00    +0.045 A 
ATOM      9  C   UNL     1      -0.310  -0.093  -0.508  0.00  0.00    -0.005 A 
ATOM     10  C   UNL     1      -0.401  -1.473  -0.569  0.00  0.00    +0.048 A 
ATOM     11  N   UNL     1      -0.323  -2.171   0.554  0.00  0.00    -0.237 NA
ATOM     12  C   UNL     1      -0.162  -1.568   1.714  0.00  0.00    +0.131 A 
ATOM     13  N   UNL     1      -0.066  -0.257   1.808  0.00  0.00    -0.237 NA
ATOM     14  C   UNL     1      -0.582  -1.909  -2.005  0.00  0.00    +0.056 C 
ATOM     15  C   UNL     1      -1.026  -0.639  -2.761  0.00  0.00    +0.011 C 
ATOM     16  C   UNL     1      -0.424   0.490  -1.897  0.00  0.00    +0.039 C 
ENDBRANCH   6  12
ENDBRANCH   5   6
ENDBRANCH   1   5
BRANCH   2  17
ATOM     17  C   UNL     1       2.740  -4.855   6.147  0.00  0.00    +0.089 C 
BRANCH  17  18
ATOM     18  C   UNL     1       4.209  -5.104   6.498  0.00  0.00    +0.028 C 
ATOM     19  C   UNL     1       4.894  -5.763   5.334  0.00  0.00    +0.200 C 
ATOM     20  O   UNL     1       4.308  -6.640   4.735  0.00  0.00    -0.278 OA
ATOM     21  N   UNL     1       6.123  -5.422   4.932  0.00  0.00    -0.318 N 
ATOM     22  C   UNL     1       6.894  -4.360   5.573  0.00  0.00    +0.085 C 
ATOM     23  C   UNL     1       6.306  -4.048   6.950  0.00  0.00    -0.059 C 
ATOM     24  N   UNL     1       4.860  -3.824   6.805  0.00  0.00    +0.389 N 
ATOM     25  H   UNL     1       6.518  -5.899   4.185  0.00  0.00    +0.149 HD
ATOM     26  H   UNL     1       4.691  -3.171   6.055  0.00  0.00    -0.081 HD
BRANCH  24  27
ATOM     27  C   UNL     1       4.319  -3.286   8.060  0.00  0.00    -0.075 C 
BRANCH  27  28
ATOM     28  C   UNL     1       4.882  -1.883   8.298  0.00  0.00    -0.034 C 
ATOM     29  C   UNL     1       4.378  -0.940   7.203  0.00  0.00    +0.005 C 
ATOM     30  C   UNL     1       4.418  -1.373   9.664  0.00  0.00    +0.005 C 
ENDBRANCH  27  28
ENDBRANCH  24  27
ENDBRANCH  17  18
ENDBRANCH   2  17
TORSDOF 7
