REMARK  Name = ZINC61947422
REMARK  4 active torsions:
REMARK  status: ('A' for Active; 'I' for Inactive)
REMARK    1  A    between atoms: C_1  and  O_2
REMARK    2  A    between atoms: O_2  and  C_3
REMARK    3  A    between atoms: C_6  and  C_9
REMARK    4  A    between atoms: C_26  and  C_28
REMARK                            x       y       z     vdW  Elec       q    Type
REMARK                         _______ _______ _______ _____ _____    ______ ____
ROOT
ATOM      1  C   UNL     1      -4.470  -2.645  -0.186  0.00  0.00    +0.215 C 
ATOM      2  C   UNL     1      -5.077  -2.972  -1.549  0.00  0.00    +0.113 C 
ATOM      3  C   UNL     1      -3.974  -3.673  -2.326  0.00  0.00    +0.065 C 
ATOM      4  C   UNL     1      -3.226  -4.715  -1.613  0.00  0.00    +0.039 A 
ATOM      5  C   UNL     1      -2.447  -5.650  -2.294  0.00  0.00    +0.013 A 
ATOM      6  C   UNL     1      -1.754  -6.606  -1.583  0.00  0.00    +0.001 A 
ATOM      7  C   UNL     1      -1.831  -6.638  -0.200  0.00  0.00    +0.004 A 
ATOM      8  C   UNL     1      -2.601  -5.718   0.485  0.00  0.00    +0.046 A 
ATOM      9  C   UNL     1      -3.310  -4.749  -0.209  0.00  0.00    +0.130 A 
ATOM     10  O   UNL     1      -4.078  -3.858   0.462  0.00  0.00    -0.483 OA
ATOM     11  N   UNL     1      -3.693  -3.298  -3.529  0.00  0.00    -0.215 NA
ATOM     12  C   UNL     1      -4.248  -2.227  -4.150  0.00  0.00    +0.249 A 
ATOM     13  N   UNL     1      -4.067  -1.765  -5.383  0.00  0.00    -0.198 NA
ATOM     14  C   UNL     1      -4.787  -0.663  -5.565  0.00  0.00    +0.247 A 
ATOM     15  N   UNL     1      -5.451  -0.393  -4.471  0.00  0.00    -0.156 NA
ATOM     16  N   UNL     1      -5.139  -1.399  -3.549  0.00  0.00    -0.221 N 
ATOM     17  C   UNL     1      -5.604  -1.670  -2.180  0.00  0.00    +0.155 C 
ENDROOT
BRANCH   1  21
ATOM     18  C   UNL     1      -1.047  -0.141  -0.714  0.00  0.00    +0.120 A 
ATOM     19  C   UNL     1      -1.693  -0.677  -1.819  0.00  0.00    +0.046 A 
ATOM     20  C   UNL     1      -2.799  -1.487  -1.645  0.00  0.00    +0.011 A 
ATOM     21  C   UNL     1      -3.263  -1.762  -0.372  0.00  0.00    -0.006 A 
ATOM     22  C   UNL     1      -2.621  -1.229   0.730  0.00  0.00    +0.011 A 
ATOM     23  C   UNL     1      -1.511  -0.424   0.563  0.00  0.00    +0.046 A 
BRANCH  18  25
ATOM     24  C   UNL     1       0.463   0.903  -2.225  0.00  0.00    +0.277 C 
ATOM     25  O   UNL     1       0.041   0.655  -0.882  0.00  0.00    -0.495 OA
ENDBRANCH  18  25
ENDBRANCH   1  21
BRANCH  17  26
ATOM     26  C   UNL     1      -5.189  -0.518  -1.302  0.00  0.00    -0.004 A 
ATOM     27  C   UNL     1      -4.254   0.404  -1.749  0.00  0.00    +0.009 A 
ATOM     28  C   UNL     1      -3.902   1.448  -0.907  0.00  0.00    +0.020 A 
ATOM     29  C   UNL     1      -4.491   1.535   0.340  0.00  0.00    +0.111 A 
ATOM     30  N   UNL     1      -5.376   0.639   0.732  0.00  0.00    -0.263 NA
ATOM     31  C   UNL     1      -5.739  -0.363  -0.044  0.00  0.00    +0.116 A 
ENDBRANCH  17  26
TORSDOF 3
