REMARK  Name = ZINC36684814
REMARK  11 active torsions:
REMARK  status: ('A' for Active; 'I' for Inactive)
REMARK    1  A    between atoms: C_1  and  C_2
REMARK    2  A    between atoms: C_2  and  C_3
REMARK    3  A    between atoms: C_6  and  C_9
REMARK    4  A    between atoms: C_9  and  C_11
REMARK    5  A    between atoms: C_9  and  N_29
REMARK    6  A    between atoms: C_11  and  N_12
REMARK    7  A    between atoms: C_13  and  C_15
REMARK    8  A    between atoms: C_15  and  N_16
REMARK    9  A    between atoms: C_22  and  C_25
REMARK   10  A    between atoms: N_29  and  C_30
REMARK   11  A    between atoms: N_29  and  C_31
REMARK                            x       y       z     vdW  Elec       q    Type
REMARK                         _______ _______ _______ _____ _____    ______ ____
ROOT
ATOM      1  N   UNL     1       3.835  -3.673  -5.913  0.00  0.00    -0.315 N 
ATOM      2  C   UNL     1       4.211  -4.951  -6.118  0.00  0.00    +0.231 C 
ATOM      3  O   UNL     1       3.969  -5.796  -5.282  0.00  0.00    -0.274 OA
ATOM      4  H   UNL     1       4.029  -2.997  -6.581  0.00  0.00    +0.149 HD
ENDROOT
BRANCH   1   5
ATOM      5  C   UNL     1       3.134  -3.304  -4.680  0.00  0.00    +0.093 C 
BRANCH   5   6
ATOM      6  C   UNL     1       2.708  -1.837  -4.755  0.00  0.00    -0.021 C 
BRANCH   6  10
ATOM      7  C   UNL     1      -0.166  -1.349  -7.877  0.00  0.00    -0.048 A 
ATOM      8  C   UNL     1       1.156  -1.010  -8.096  0.00  0.00    +0.004 A 
ATOM      9  C   UNL     1       2.086  -1.168  -7.086  0.00  0.00    +0.002 A 
ATOM     10  C   UNL     1       1.694  -1.664  -5.856  0.00  0.00    -0.059 A 
ATOM     11  C   UNL     1       0.371  -2.001  -5.637  0.00  0.00    +0.002 A 
ATOM     12  C   UNL     1      -0.559  -1.840  -6.646  0.00  0.00    +0.004 A 
BRANCH   7  14
ATOM     13  C   UNL     1      -1.786   0.226  -8.900  0.00  0.00    +0.009 C 
ATOM     14  C   UNL     1      -1.180  -1.177  -8.979  0.00  0.00    +0.032 C 
ENDBRANCH   7  14
ENDBRANCH   6  10
BRANCH   6  15
ATOM     15  N   UNL     1       2.113  -1.434  -3.474  0.00  0.00    +0.382 N 
ATOM     16  C   UNL     1       3.107  -1.585  -2.403  0.00  0.00    -0.096 C 
ATOM     17  C   UNL     1       1.688  -0.030  -3.552  0.00  0.00    -0.096 C 
ATOM     18  H   UNL     1       1.314  -2.017  -3.276  0.00  0.00    -0.082 HD
ENDBRANCH   6  15
ENDBRANCH   5   6
ENDBRANCH   1   5
BRANCH   2  19
ATOM     19  C   UNL     1       4.932  -5.330  -7.386  0.00  0.00    +0.213 C 
BRANCH  19  20
ATOM     20  N   UNL     1       5.229  -6.764  -7.369  0.00  0.00    -0.215 N 
ATOM     21  C   UNL     1       6.359  -7.299  -6.860  0.00  0.00    +0.247 C 
ATOM     22  O   UNL     1       7.286  -6.707  -6.351  0.00  0.00    -0.273 OA
ATOM     23  C   UNL     1       6.224  -8.791  -7.060  0.00  0.00    +0.113 C 
ATOM     24  C   UNL     1       6.236  -9.511  -5.716  0.00  0.00    +0.035 C 
ATOM     25  C   UNL     1       6.069 -11.016  -5.939  0.00  0.00    +0.006 C 
ATOM     26  C   UNL     1       7.208 -11.530  -6.821  0.00  0.00    -0.014 C 
ATOM     27  C   UNL     1       7.168 -10.816  -8.174  0.00  0.00    +0.006 C 
ATOM     28  C   UNL     1       7.340  -9.310  -7.960  0.00  0.00    +0.035 C 
ATOM     29  C   UNL     1       7.048 -13.036  -7.035  0.00  0.00    +0.007 C 
ATOM     30  N   UNL     1       4.920  -8.947  -7.716  0.00  0.00    -0.285 N 
ATOM     31  C   UNL     1       4.410  -7.708  -7.850  0.00  0.00    +0.310 C 
ATOM     32  O   UNL     1       3.330  -7.472  -8.354  0.00  0.00    -0.252 OA
ATOM     33  H   UNL     1       4.505  -9.779  -7.994  0.00  0.00    +0.151 HD
ENDBRANCH  19  20
ENDBRANCH   2  19
TORSDOF 7
