REMARK  Name = ZINC50008523
REMARK  4 active torsions:
REMARK  status: ('A' for Active; 'I' for Inactive)
REMARK    1  A    between atoms: C_1  and  C_2
REMARK    2  A    between atoms: C_5  and  N_8
REMARK    3  A    between atoms: N_8  and  C_9
REMARK    4  A    between atoms: C_10  and  C_12
REMARK                            x       y       z     vdW  Elec       q    Type
REMARK                         _______ _______ _______ _____ _____    ______ ____
ROOT
ATOM      1  N   UNL     1      -0.428  -4.156   0.057  0.00  0.00    -0.271 N 
ATOM      2  C   UNL     1      -1.058  -4.952  -0.999  0.00  0.00    +0.138 C 
ATOM      3  C   UNL     1      -0.021  -4.750   1.197  0.00  0.00    +0.251 C 
ATOM      4  O   UNL     1       0.394  -4.075   2.119  0.00  0.00    -0.270 OA
ENDROOT
BRANCH   3   5
ATOM      5  C   UNL     1      -0.081  -6.224   1.326  0.00  0.00    +0.043 A 
ATOM      6  C   UNL     1      -0.138  -7.042   0.194  0.00  0.00    +0.053 A 
ATOM      7  C   UNL     1      -0.193  -8.414   0.359  0.00  0.00    +0.132 A 
ATOM      8  N   UNL     1      -0.191  -8.951   1.564  0.00  0.00    -0.224 NA
ATOM      9  C   UNL     1      -0.138  -8.215   2.658  0.00  0.00    +0.132 A 
ATOM     10  C   UNL     1      -0.076  -6.836   2.583  0.00  0.00    +0.053 A 
ATOM     11 CL   UNL     1      -0.140  -8.989   4.212  0.00  0.00    -0.062 Cl
ATOM     12 CL   UNL     1      -0.265  -9.443  -1.037  0.00  0.00    -0.062 Cl
ENDBRANCH   3   5
BRANCH   1  17
ATOM     13  C   UNL     1       0.297   1.426  -0.647  0.00  0.00    +0.044 C 
ATOM     14  C   UNL     1       0.105  -0.057  -0.460  0.00  0.00    -0.050 A 
ATOM     15  C   UNL     1      -0.621  -0.781  -1.388  0.00  0.00    +0.005 A 
ATOM     16  C   UNL     1      -0.799  -2.140  -1.220  0.00  0.00    +0.024 A 
ATOM     17  C   UNL     1      -0.249  -2.780  -0.117  0.00  0.00    +0.036 A 
ATOM     18  C   UNL     1       0.479  -2.050   0.814  0.00  0.00    +0.024 A 
ATOM     19  C   UNL     1       0.659  -0.692   0.636  0.00  0.00    +0.005 A 
ENDBRANCH   1  17
TORSDOF 2
