REMARK  Name = ZINC16071208
REMARK  8 active torsions:
REMARK  status: ('A' for Active; 'I' for Inactive)
REMARK    1  A    between atoms: C_1  and  C_2
REMARK    2  A    between atoms: C_2  and  C_4
REMARK    3  A    between atoms: C_2  and  O_25
REMARK    4  A    between atoms: N_6  and  N_7
REMARK    5  A    between atoms: C_8  and  C_10
REMARK    6  A    between atoms: C_14  and  N_16
REMARK    7  A    between atoms: C_17  and  C_19
REMARK    8  A    between atoms: O_25  and  C_26
REMARK                            x       y       z     vdW  Elec       q    Type
REMARK                         _______ _______ _______ _____ _____    ______ ____
ROOT
ATOM      1  N   UNL     1       3.055   6.273  -0.232  0.00  0.00    -0.230 N 
ATOM      2  C   UNL     1       1.954   5.510  -0.382  0.00  0.00    +0.260 C 
ATOM      3  O   UNL     1       0.851   6.016  -0.319  0.00  0.00    -0.269 OA
ATOM      4  H   UNL     1       3.936   5.869  -0.282  0.00  0.00    +0.173 HD
ENDROOT
BRANCH   2   5
ATOM      5  C   UNL     1       2.088   4.058  -0.622  0.00  0.00    +0.040 A 
ATOM      6  C   UNL     1       3.355   3.474  -0.695  0.00  0.00    +0.014 A 
ATOM      7  C   UNL     1       3.478   2.119  -0.920  0.00  0.00    +0.022 A 
ATOM      8  C   UNL     1       2.349   1.333  -1.069  0.00  0.00    +0.062 A 
ATOM      9  C   UNL     1       1.083   1.906  -1.003  0.00  0.00    +0.053 A 
ATOM     10  C   UNL     1       0.950   3.267  -0.777  0.00  0.00    +0.038 A 
ATOM     11 CL   UNL     1       2.513  -0.373  -1.344  0.00  0.00    -0.082 Cl
BRANCH   9  12
ATOM     12  N   UNL     1      -0.055   1.108  -1.159  0.00  0.00    -0.280 N 
ATOM     13  C   UNL     1      -1.196   1.427  -0.515  0.00  0.00    +0.255 C 
ATOM     14  O   UNL     1      -1.258   2.451   0.140  0.00  0.00    -0.269 OA
ATOM     15  H   UNL     1      -0.025   0.327  -1.734  0.00  0.00    +0.155 HD
BRANCH  13  16
ATOM     16  C   UNL     1      -2.359   0.540  -0.602  0.00  0.00    +0.074 A 
ATOM     17  C   UNL     1      -3.611   0.681  -0.023  0.00  0.00    +0.021 A 
ATOM     18  C   UNL     1      -4.529  -0.308  -0.271  0.00  0.00    +0.008 A 
ATOM     19  C   UNL     1      -4.176  -1.360  -1.056  0.00  0.00    +0.046 A 
ATOM     20  S   UNL     1      -2.537  -0.999  -1.488  0.00  0.00    -0.092 S 
ENDBRANCH  13  16
ENDBRANCH   9  12
ENDBRANCH   2   5
BRANCH   1  23
ATOM     21  C   UNL     1       4.029   8.412   0.145  0.00  0.00    +0.270 C 
ATOM     22  O   UNL     1       5.130   7.907   0.083  0.00  0.00    -0.270 OA
ATOM     23  N   UNL     1       2.928   7.650  -0.004  0.00  0.00    -0.231 N 
ATOM     24  H   UNL     1       2.047   8.054   0.046  0.00  0.00    +0.173 HD
BRANCH  21  26
ATOM     25  C   UNL     1       3.152  10.538  -0.783  0.00  0.00    +0.062 C 
ATOM     26  C   UNL     1       3.892   9.893   0.391  0.00  0.00    +0.257 C 
BRANCH  26  27
ATOM     27  O   UNL     1       5.190  10.477   0.514  0.00  0.00    -0.480 OA
BRANCH  27  28
ATOM     28  C   UNL     1       5.280  11.638   1.214  0.00  0.00    +0.122 A 
ATOM     29  C   UNL     1       4.115  12.257   1.677  0.00  0.00    +0.046 A 
ATOM     30  C   UNL     1       4.172  13.419   2.381  0.00  0.00    +0.012 A 
ATOM     31  C   UNL     1       5.419  14.011   2.649  0.00  0.00    -0.018 A 
ATOM     32  C   UNL     1       5.515  15.211   3.373  0.00  0.00    +0.008 A 
ATOM     33  C   UNL     1       6.739  15.757   3.614  0.00  0.00    +0.001 A 
ATOM     34  C   UNL     1       7.902  15.142   3.154  0.00  0.00    +0.001 A 
ATOM     35  C   UNL     1       7.848  13.979   2.449  0.00  0.00    +0.008 A 
ATOM     36  C   UNL     1       6.602  13.386   2.180  0.00  0.00    -0.014 A 
ATOM     37  C   UNL     1       6.508  12.183   1.461  0.00  0.00    +0.054 A 
ENDBRANCH  27  28
ENDBRANCH  26  27
ENDBRANCH  21  26
ENDBRANCH   1  23
TORSDOF 7
