REMARK  Name = ZINC11591899
REMARK  7 active torsions:
REMARK  status: ('A' for Active; 'I' for Inactive)
REMARK    1  A    between atoms: C_3  and  C_6
REMARK    2  A    between atoms: C_9  and  S_12
REMARK    3  A    between atoms: N_10  and  N_11
REMARK    4  A    between atoms: S_12  and  C_13
REMARK    5  A    between atoms: C_13  and  C_14
REMARK    6  A    between atoms: N_16  and  C_17
REMARK    7  A    between atoms: C_18  and  C_26
REMARK                            x       y       z     vdW  Elec       q    Type
REMARK                         _______ _______ _______ _____ _____    ______ ____
ROOT
ATOM      1  C   UNL     1      -3.628   3.261   0.034  0.00  0.00    +0.173 C 
ENDROOT
BRANCH   1   2
ATOM      2  C   UNL     1      -5.121   3.058   0.039  0.00  0.00    +0.228 C 
ATOM      3  O   UNL     1      -5.580   1.936   0.035  0.00  0.00    -0.275 OA
ATOM      4  N   UNL     1      -5.946   4.124   0.049  0.00  0.00    -0.278 N 
ATOM      5  H   UNL     1      -5.579   5.021   0.052  0.00  0.00    +0.155 HD
BRANCH   4   6
ATOM      6  C   UNL     1      -7.321   3.937   0.053  0.00  0.00    +0.090 A 
ATOM      7  C   UNL     1      -8.322   4.897   0.068  0.00  0.00    +0.084 A 
ATOM      8  C   UNL     1      -9.698   4.434   0.066  0.00  0.00    -0.018 A 
ATOM      9  C   UNL     1      -9.853   3.091   0.060  0.00  0.00    -0.004 A 
ATOM     10  S   UNL     1      -8.205   2.446   0.049  0.00  0.00    -0.077 S 
ATOM     11  C   UNL     1     -11.144   2.332   0.062  0.00  0.00    +0.043 C 
ATOM     12  C   UNL     1     -12.273   3.297   0.451  0.00  0.00    +0.005 C 
ATOM     13  C   UNL     1     -12.136   4.576  -0.380  0.00  0.00    +0.005 C 
ATOM     14  C   UNL     1     -10.906   5.363   0.075  0.00  0.00    +0.037 C 
BRANCH   7  15
ATOM     15  C   UNL     1      -8.009   6.294   0.081  0.00  0.00    +0.102 C 
ATOM     16  N   UNL     1      -7.760   7.403   0.091  0.00  0.00    -0.191 NA
ENDBRANCH   7  15
ENDBRANCH   4   6
ENDBRANCH   1   2
BRANCH   1  17
ATOM     17  S   UNL     1      -2.800   1.652   0.022  0.00  0.00    -0.075 S 
BRANCH  17  21
ATOM     18  C   UNL     1       1.069   2.209   0.004  0.00  0.00    +0.188 A 
ATOM     19  N   UNL     1       0.599   3.437   0.015  0.00  0.00    -0.126 NA
ATOM     20  N   UNL     1      -0.686   3.414   0.027  0.00  0.00    -0.121 NA
ATOM     21  C   UNL     1      -1.117   2.173   0.018  0.00  0.00    +0.209 A 
ATOM     22  N   UNL     1      -0.016   1.362   0.009  0.00  0.00    -0.223 N 
BRANCH  18  25
ATOM     23  C   UNL     1       4.834   1.983  -0.245  0.00  0.00    +0.008 A 
ATOM     24  C   UNL     1       3.593   2.575  -0.300  0.00  0.00    +0.019 A 
ATOM     25  C   UNL     1       2.487   1.815  -0.012  0.00  0.00    +0.058 A 
ATOM     26  S   UNL     1       3.216   0.222   0.331  0.00  0.00    -0.093 S 
ATOM     27  C   UNL     1       4.926   0.667   0.080  0.00  0.00    +0.046 A 
ENDBRANCH  18  25
BRANCH  22  28
ATOM     28  N   UNL     1       0.002  -0.004   0.002  0.00  0.00    -0.295 N 
ATOM     29  H   UNL     1       0.016  -0.371   0.942  0.00  0.00    +0.163 HD
ATOM     30  H   UNL     1      -0.779  -0.373  -0.519  0.00  0.00    +0.163 HD
ENDBRANCH  22  28
ENDBRANCH  17  21
ENDBRANCH   1  17
TORSDOF 7
