REMARK  Name = ZINC46418751
REMARK  11 active torsions:
REMARK  status: ('A' for Active; 'I' for Inactive)
REMARK    1  A    between atoms: C_1  and  C_2
REMARK    2  A    between atoms: C_3  and  C_14
REMARK    3  A    between atoms: C_4  and  C_13
REMARK    4  A    between atoms: C_8  and  C_11
REMARK    5  A    between atoms: C_14  and  C_15
REMARK    6  A    between atoms: C_15  and  C_16
REMARK    7  A    between atoms: N_18  and  C_19
REMARK    8  A    between atoms: C_21  and  C_27
REMARK    9  A    between atoms: C_21  and  C_28
REMARK   10  A    between atoms: C_23  and  C_25
REMARK   11  A    between atoms: C_23  and  C_26
REMARK                            x       y       z     vdW  Elec       q    Type
REMARK                         _______ _______ _______ _____ _____    ______ ____
ROOT
ATOM      1  C   UNL     1      -4.753   1.383   1.293  0.00  0.00    +0.214 C 
ATOM      2  O   UNL     1      -5.422   1.599   0.305  0.00  0.00    -0.276 OA
ATOM      3  N   UNL     1      -5.210   1.743   2.508  0.00  0.00    -0.313 N 
ATOM      4  H   UNL     1      -4.676   1.569   3.299  0.00  0.00    +0.149 HD
ENDROOT
BRANCH   3   5
ATOM      5  C   UNL     1      -6.518   2.398   2.636  0.00  0.00    +0.070 C 
ATOM      6  C   UNL     1      -7.607   1.329   2.743  0.00  0.00    +0.009 C 
ATOM      7  C   UNL     1      -8.975   1.995   2.889  0.00  0.00    -0.072 C 
ATOM      8  N   UNL     1      -9.009   2.939   3.996  0.00  0.00    +0.386 N 
ATOM      9  C   UNL     1      -7.907   3.880   4.116  0.00  0.00    -0.072 C 
ATOM     10  C   UNL     1      -6.540   3.234   3.915  0.00  0.00    +0.009 C 
ATOM     11  C   UNL     1      -8.069   5.066   3.162  0.00  0.00    -0.010 C 
ATOM     12  C   UNL     1      -7.938   4.450   5.554  0.00  0.00    -0.010 C 
ATOM     13  C   UNL     1      -9.999   0.878   3.196  0.00  0.00    -0.010 C 
ATOM     14  C   UNL     1      -9.392   2.641   1.568  0.00  0.00    -0.010 C 
ATOM     15  H   UNL     1      -9.882   3.470   3.938  0.00  0.00    -0.084 HD
ATOM     16  H   UNL     1      -9.075   2.408   4.868  0.00  0.00    -0.084 HD
ENDBRANCH   3   5
BRANCH   1  17
ATOM     17  C   UNL     1      -3.411   0.710   1.162  0.00  0.00    +0.100 C 
BRANCH  17  18
ATOM     18  C   UNL     1      -3.133   0.409  -0.312  0.00  0.00    +0.048 C 
BRANCH  18  21
ATOM     19  C   UNL     1      -0.703   2.007  -0.474  0.00  0.00    +0.066 C 
ATOM     20  C   UNL     1      -0.621   0.503  -0.521  0.00  0.00    +0.046 A 
ATOM     21  C   UNL     1      -1.790  -0.263  -0.443  0.00  0.00    -0.005 A 
ATOM     22  C   UNL     1      -1.704  -1.617  -0.487  0.00  0.00    +0.047 A 
ATOM     23  N   UNL     1      -0.476  -2.200  -0.605  0.00  0.00    -0.217 N 
ATOM     24  C   UNL     1       0.642  -1.417  -0.678  0.00  0.00    +0.173 A 
ATOM     25  N   UNL     1       0.548  -0.087  -0.640  0.00  0.00    -0.232 NA
ATOM     26  C   UNL     1       1.740  -2.290  -0.794  0.00  0.00    +0.115 A 
ATOM     27  C   UNL     1       1.227  -3.598  -0.786  0.00  0.00    +0.156 A 
ATOM     28  N   UNL     1      -0.075  -3.538  -0.675  0.00  0.00    -0.172 NA
ATOM     29  C   UNL     1      -2.947  -2.465  -0.405  0.00  0.00    +0.066 C 
BRANCH  26  30
ATOM     30  C   UNL     1       3.119  -1.916  -0.899  0.00  0.00    +0.104 C 
ATOM     31  N   UNL     1       4.212  -1.619  -0.983  0.00  0.00    -0.191 NA
ENDBRANCH  26  30
ENDBRANCH  18  21
ENDBRANCH  17  18
ENDBRANCH   1  17
TORSDOF 5
