REMARK  Name = ZINC55333189
REMARK  6 active torsions:
REMARK  status: ('A' for Active; 'I' for Inactive)
REMARK    1  A    between atoms: C_1  and  C_2
REMARK    2  A    between atoms: C_5  and  C_8
REMARK    3  A    between atoms: C_8  and  C_10
REMARK    4  A    between atoms: C_8  and  C_12
REMARK    5  A    between atoms: C_12  and  C_14
REMARK    6  A    between atoms: C_19  and  C_20
REMARK                            x       y       z     vdW  Elec       q    Type
REMARK                         _______ _______ _______ _____ _____    ______ ____
ROOT
ATOM      1  C   UNL     1      -0.275  -4.657   0.526  0.00  0.00    +0.192 C 
ENDROOT
BRANCH   1   6
ATOM      2  C   UNL     1      -1.079   1.028   1.178  0.00  0.00    +0.044 C 
ATOM      3  C   UNL     1      -0.869  -0.454   1.008  0.00  0.00    -0.050 A 
ATOM      4  C   UNL     1      -0.909  -1.018  -0.254  0.00  0.00    +0.003 A 
ATOM      5  C   UNL     1      -0.717  -2.378  -0.410  0.00  0.00    +0.005 A 
ATOM      6  C   UNL     1      -0.484  -3.174   0.696  0.00  0.00    -0.023 A 
ATOM      7  C   UNL     1      -0.443  -2.611   1.958  0.00  0.00    +0.005 A 
ATOM      8  C   UNL     1      -0.631  -1.250   2.113  0.00  0.00    +0.003 A 
ENDBRANCH   1   6
BRANCH   1   9
ATOM      9  C   UNL     1      -1.309  -5.387   1.276  0.00  0.00    +0.079 C 
ATOM     10  N   UNL     1      -2.108  -5.951   1.855  0.00  0.00    -0.195 NA
ENDBRANCH   1   9
BRANCH   1  11
ATOM     11  C   UNL     1       1.087  -5.036   1.049  0.00  0.00    +0.185 C 
ATOM     12  O   UNL     1       1.585  -4.403   1.956  0.00  0.00    -0.290 OA
BRANCH  11  13
ATOM     13  C   UNL     1       1.811  -6.172   0.460  0.00  0.00    +0.022 A 
ATOM     14  C   UNL     1       1.190  -6.981  -0.498  0.00  0.00    +0.013 A 
ATOM     15  C   UNL     1       1.875  -8.044  -1.045  0.00  0.00    +0.016 A 
ATOM     16  C   UNL     1       3.176  -8.312  -0.650  0.00  0.00    +0.018 A 
ATOM     17  C   UNL     1       3.797  -7.516   0.298  0.00  0.00    +0.019 A 
ATOM     18  C   UNL     1       3.126  -6.446   0.851  0.00  0.00    -0.039 A 
ATOM     19  C   UNL     1       3.806  -5.577   1.877  0.00  0.00    +0.044 C 
ATOM     20 BR   UNL     1       4.107  -9.774  -1.407  0.00  0.00    -0.050 Br
ENDBRANCH  11  13
ENDBRANCH   1  11
TORSDOF 4
