REMARK  Name = ZINC36769901
REMARK  5 active torsions:
REMARK  status: ('A' for Active; 'I' for Inactive)
REMARK    1  A    between atoms: C_1  and  C_2
REMARK    2  A    between atoms: C_2  and  C_3
REMARK    3  A    between atoms: N_6  and  C_10
REMARK    4  A    between atoms: C_10  and  C_11
REMARK    5  A    between atoms: N_12  and  O_13
REMARK                            x       y       z     vdW  Elec       q    Type
REMARK                         _______ _______ _______ _____ _____    ______ ____
ROOT
ATOM      1  C   UNL     1       0.718  -0.497  -1.257  0.00  0.00    +0.132 C 
ATOM      2  C   UNL     1       0.848  -2.022  -1.207  0.00  0.00    +0.116 C 
ATOM      3  N   UNL     1       1.467  -2.497  -2.453  0.00  0.00    -0.291 NA
ATOM      4  C   UNL     1       0.665  -2.098  -3.618  0.00  0.00    +0.113 C 
ATOM      5  C   UNL     1       0.537  -0.572  -3.644  0.00  0.00    +0.175 C 
ATOM      6  O   UNL     1      -0.037  -0.125  -2.413  0.00  0.00    -0.374 OA
ENDROOT
BRANCH   1   8
ATOM      7  C   UNL     1      -0.019   1.526   0.010  0.00  0.00    +0.006 C 
ATOM      8  C   UNL     1       0.002  -0.004   0.002  0.00  0.00    +0.029 C 
ENDBRANCH   1   8
BRANCH   3   9
ATOM      9  C   UNL     1       1.662  -3.953  -2.422  0.00  0.00    +0.159 C 
BRANCH   9  10
ATOM     10  C   UNL     1       2.512  -4.371  -3.594  0.00  0.00    +0.146 C 
ATOM     11  N   UNL     1       2.942  -3.484  -4.429  0.00  0.00    -0.075 NA
ATOM     12  N   UNL     1       2.830  -5.699  -3.775  0.00  0.00    -0.343 N 
ATOM     13  H   UNL     1       2.507  -6.365  -3.148  0.00  0.00    +0.144 HD
ATOM     14  H   UNL     1       3.377  -5.968  -4.529  0.00  0.00    +0.144 HD
BRANCH  11  15
ATOM     15  O   UNL     1       3.741  -3.877  -5.530  0.00  0.00    -0.408 OA
ATOM     16  H   UNL     1       4.015  -3.144  -6.098  0.00  0.00    +0.328 HD
ENDBRANCH  11  15
ENDBRANCH   9  10
ENDBRANCH   3   9
TORSDOF 4
