REMARK  Name = ZINC48699650
REMARK  7 active torsions:
REMARK  status: ('A' for Active; 'I' for Inactive)
REMARK    1  A    between atoms: C_1  and  C_2
REMARK    2  A    between atoms: C_2  and  C_4
REMARK    3  A    between atoms: C_2  and  N_7
REMARK    4  A    between atoms: C_4  and  C_5
REMARK    5  A    between atoms: C_4  and  C_6
REMARK    6  A    between atoms: C_8  and  C_10
REMARK    7  A    between atoms: N_12  and  C_13
REMARK                            x       y       z     vdW  Elec       q    Type
REMARK                         _______ _______ _______ _____ _____    ______ ____
ROOT
ATOM      1  C   UNL     1       0.706  -1.087  -3.588  0.00  0.00    +0.303 C 
ATOM      2  O   UNL     1       1.886  -1.366  -3.544  0.00  0.00    -0.265 OA
ATOM      3  N   UNL     1       0.024  -1.221  -4.742  0.00  0.00    -0.276 N 
ATOM      4  H   UNL     1      -0.935  -1.075  -4.759  0.00  0.00    +0.155 HD
ENDROOT
BRANCH   3   5
ATOM      5  C   UNL     1       0.698  -1.571  -5.916  0.00  0.00    +0.056 A 
ATOM      6  C   UNL     1       2.052  -1.287  -6.050  0.00  0.00    +0.072 A 
ATOM      7  C   UNL     1       2.717  -1.634  -7.211  0.00  0.00    +0.144 A 
ATOM      8  C   UNL     1       2.027  -2.267  -8.246  0.00  0.00    +0.077 A 
ATOM      9  C   UNL     1       0.678  -2.550  -8.111  0.00  0.00    +0.048 A 
ATOM     10  C   UNL     1       0.015  -2.208  -6.946  0.00  0.00    +0.064 A 
ATOM     11 CL   UNL     1      -1.674  -2.568  -6.773  0.00  0.00    -0.082 Cl
ATOM     12  N   UNL     1       2.716  -2.611  -9.419  0.00  0.00    -0.280 N 
ATOM     13  C   UNL     1       4.067  -2.617  -9.407  0.00  0.00    +0.255 C 
ATOM     14  O   UNL     1       4.684  -2.881 -10.417  0.00  0.00    -0.272 OA
ATOM     15  C   UNL     1       4.805  -2.293  -8.133  0.00  0.00    +0.325 C 
ATOM     16  O   UNL     1       4.042  -1.365  -7.358  0.00  0.00    -0.481 OA
ATOM     17  H   UNL     1       2.230  -2.841 -10.226  0.00  0.00    +0.155 HD
ENDBRANCH   3   5
BRANCH   1  19
ATOM     18  N   UNL     1       0.691  -0.460  -1.208  0.00  0.00    -0.305 N 
ATOM     19  C   UNL     1       0.009  -0.594  -2.362  0.00  0.00    +0.300 C 
ATOM     20  O   UNL     1      -1.171  -0.315  -2.406  0.00  0.00    -0.265 OA
ATOM     21  H   UNL     1       1.634  -0.683  -1.173  0.00  0.00    +0.149 HD
BRANCH  18  23
ATOM     22  C   UNL     1      -0.004   1.554  -0.006  0.00  0.00    +0.028 C 
ATOM     23  C   UNL     1       0.008   0.024  -0.005  0.00  0.00    +0.073 C 
BRANCH  23  24
ATOM     24  C   UNL     1       0.745  -0.480   1.238  0.00  0.00    +0.003 C 
ATOM     25  C   UNL     1       2.142   0.141   1.289  0.00  0.00    +0.009 C 
ATOM     26  C   UNL     1      -0.037  -0.081   2.491  0.00  0.00    +0.009 C 
ENDBRANCH  23  24
ENDBRANCH  18  23
ENDBRANCH   1  19
TORSDOF 4
