REMARK  Name = ZINC39360054
REMARK  8 active torsions:
REMARK  status: ('A' for Active; 'I' for Inactive)
REMARK    1  A    between atoms: C_1  and  N_2
REMARK    2  A    between atoms: N_2  and  C_3
REMARK    3  A    between atoms: N_2  and  C_10
REMARK    4  A    between atoms: C_3  and  C_4
REMARK    5  A    between atoms: C_10  and  C_11
REMARK    6  A    between atoms: C_14  and  C_17
REMARK    7  A    between atoms: C_17  and  C_18
REMARK    8  A    between atoms: C_22  and  C_24
REMARK                            x       y       z     vdW  Elec       q    Type
REMARK                         _______ _______ _______ _____ _____    ______ ____
ROOT
ATOM      1  C   UNL     1      -1.974  -0.018   1.449  0.00  0.00    +0.275 C 
ATOM      2  N   UNL     1      -2.075   1.450   1.449  0.00  0.00    -0.295 N 
ATOM      3  C   UNL     1      -1.295   1.902   2.487  0.00  0.00    +0.141 C 
ATOM      4  N   UNL     1      -0.737   0.932   3.115  0.00  0.00    -0.072 NA
ATOM      5  O   UNL     1      -1.097  -0.317   2.547  0.00  0.00    -0.372 OA
ATOM      6  H   UNL     1      -2.592   1.994   0.835  0.00  0.00    +0.151 HD
ENDROOT
BRANCH   1   7
ATOM      7  C   UNL     1      -1.370  -0.513   0.133  0.00  0.00    -0.010 C 
BRANCH   7   9
ATOM      8  C   UNL     1      -0.105   1.486  -0.269  0.00  0.00    -0.095 C 
ATOM      9  N   UNL     1      -0.018   0.040  -0.024  0.00  0.00    +0.385 N 
ATOM     10  H   UNL     1       0.513  -0.127   0.818  0.00  0.00    -0.081 HD
BRANCH   9  11
ATOM     11  C   UNL     1       0.648  -0.610  -1.160  0.00  0.00    -0.021 C 
BRANCH  11  12
ATOM     12  C   UNL     1       2.075  -0.133  -1.246  0.00  0.00    +0.046 A 
ATOM     13  C   UNL     1       3.190  -0.777  -0.698  0.00  0.00    +0.042 A 
ATOM     14  C   UNL     1       4.284  -0.037  -0.990  0.00  0.00    +0.105 A 
ATOM     15  N   UNL     1       3.877   1.038  -1.698  0.00  0.00    -0.285 N 
ATOM     16  N   UNL     1       2.487   0.952  -1.850  0.00  0.00    -0.181 NA
ATOM     17  H   UNL     1       4.446   1.743  -2.043  0.00  0.00    +0.188 HD
ENDBRANCH  11  12
ENDBRANCH   9  11
ENDBRANCH   7   9
ENDBRANCH   1   7
BRANCH   3  18
ATOM     18  C   UNL     1      -1.117   3.356   2.843  0.00  0.00    +0.110 C 
BRANCH  18  19
ATOM     19  C   UNL     1      -0.197   3.474   4.031  0.00  0.00    -0.040 A 
ATOM     20  C   UNL     1      -0.717   3.457   5.312  0.00  0.00    +0.004 A 
ATOM     21  C   UNL     1       0.126   3.565   6.401  0.00  0.00    +0.001 A 
ATOM     22  C   UNL     1       1.490   3.689   6.210  0.00  0.00    +0.012 A 
ATOM     23  C   UNL     1       2.010   3.704   4.930  0.00  0.00    +0.055 A 
ATOM     24  C   UNL     1       1.167   3.592   3.840  0.00  0.00    +0.016 A 
BRANCH  23  25
ATOM     25  C   UNL     1       3.496   3.839   4.722  0.00  0.00    +0.417 C 
ATOM     26  F   UNL     1       4.135   3.933   5.963  0.00  0.00    -0.166 F 
ATOM     27  F   UNL     1       3.975   2.719   4.035  0.00  0.00    -0.166 F 
ATOM     28  F   UNL     1       3.760   4.992   3.974  0.00  0.00    -0.166 F 
ENDBRANCH  23  25
ENDBRANCH  18  19
ENDBRANCH   3  18
TORSDOF 7
