REMARK  Name = ZINC38970994
REMARK  6 active torsions:
REMARK  status: ('A' for Active; 'I' for Inactive)
REMARK    1  A    between atoms: C_1  and  C_2
REMARK    2  A    between atoms: C_2  and  C_3
REMARK    3  A    between atoms: C_6  and  N_9
REMARK    4  A    between atoms: N_9  and  C_10
REMARK    5  A    between atoms: N_13  and  S_14
REMARK    6  A    between atoms: S_14  and  C_17
REMARK                            x       y       z     vdW  Elec       q    Type
REMARK                         _______ _______ _______ _____ _____    ______ ____
ROOT
ATOM      1  C   UNL     1       2.027  -2.045   5.863  0.00  0.00    +0.237 C 
ATOM      2  C   UNL     1       2.777  -1.269   6.921  0.00  0.00    +0.192 C 
ATOM      3  N   UNL     1       2.985   0.007   6.780  0.00  0.00    -0.110 NA
ATOM      4  N   UNL     1       3.224  -1.916   8.009  0.00  0.00    -0.226 NA
ATOM      5  C   UNL     1       3.025  -3.207   8.175  0.00  0.00    +0.089 A 
ATOM      6  C   UNL     1       3.512  -3.858   9.337  0.00  0.00    +0.030 A 
ATOM      7  C   UNL     1       3.311  -5.182   9.513  0.00  0.00    +0.002 A 
ATOM      8  C   UNL     1       2.625  -5.977   8.579  0.00  0.00    +0.002 A 
ATOM      9  C   UNL     1       2.121  -5.457   7.438  0.00  0.00    +0.027 A 
ATOM     10  C   UNL     1       2.297  -4.022   7.172  0.00  0.00    +0.063 A 
ATOM     11  N   UNL     1       1.824  -3.486   6.083  0.00  0.00    -0.359 N 
ATOM     12  H   UNL     1       1.349  -4.025   5.431  0.00  0.00    +0.162 HD
ENDROOT
BRANCH   3  13
ATOM     13  S   UNL     1       3.808   0.846   7.947  0.00  0.00    +0.100 S 
ATOM     14  O   UNL     1       2.993   0.828   9.111  0.00  0.00    -0.146 OA
ATOM     15  O   UNL     1       5.139   0.348   7.942  0.00  0.00    -0.146 OA
BRANCH  13  16
ATOM     16  C   UNL     1       3.896   2.524   7.418  0.00  0.00    +0.113 A 
ATOM     17  C   UNL     1       4.959   2.950   6.644  0.00  0.00    +0.032 A 
ATOM     18  C   UNL     1       5.029   4.266   6.229  0.00  0.00    +0.040 A 
ATOM     19  C   UNL     1       4.033   5.158   6.588  0.00  0.00    +0.124 A 
ATOM     20  C   UNL     1       2.968   4.731   7.363  0.00  0.00    +0.040 A 
ATOM     21  C   UNL     1       2.898   3.413   7.773  0.00  0.00    +0.032 A 
ATOM     22  F   UNL     1       4.100   6.445   6.182  0.00  0.00    -0.205 F 
ENDBRANCH  13  16
ENDBRANCH   3  13
BRANCH   1  23
ATOM     23  N   UNL     1       2.745  -1.883   4.596  0.00  0.00    -0.318 N 
ATOM     24  H   UNL     1       3.697  -2.063   4.552  0.00  0.00    +0.148 HD
BRANCH  23  28
ATOM     25  C   UNL     1       0.699  -0.649   1.186  0.00  0.00    -0.048 A 
ATOM     26  C   UNL     1      -0.003  -0.963   2.336  0.00  0.00    +0.005 A 
ATOM     27  C   UNL     1       0.673  -1.373   3.468  0.00  0.00    +0.023 A 
ATOM     28  C   UNL     1       2.058  -1.469   3.452  0.00  0.00    +0.029 A 
ATOM     29  C   UNL     1       2.760  -1.153   2.296  0.00  0.00    +0.023 A 
ATOM     30  C   UNL     1       2.078  -0.749   1.165  0.00  0.00    +0.005 A 
BRANCH  25  32
ATOM     31  C   UNL     1      -0.399  -1.423  -0.898  0.00  0.00    +0.009 C 
ATOM     32  C   UNL     1      -0.042  -0.202  -0.048  0.00  0.00    +0.032 C 
ENDBRANCH  25  32
ENDBRANCH  23  28
ENDBRANCH   1  23
TORSDOF 5
