REMARK  Name = ZINC67386606
REMARK  4 active torsions:
REMARK  status: ('A' for Active; 'I' for Inactive)
REMARK    1  A    between atoms: C_1  and  N_2
REMARK    2  A    between atoms: C_3  and  C_5
REMARK    3  A    between atoms: N_8  and  C_16
REMARK    4  A    between atoms: C_16  and  C_17
REMARK                            x       y       z     vdW  Elec       q    Type
REMARK                         _______ _______ _______ _____ _____    ______ ____
ROOT
ATOM      1  C   UNL     1      -1.135  -2.201   0.001  0.00  0.00    +0.276 C 
ATOM      2  C   UNL     1      -0.511  -2.714   1.306  0.00  0.00    +0.159 C 
ATOM      3  N   UNL     1      -0.558  -4.186   1.274  0.00  0.00    -0.318 N 
ATOM      4  C   UNL     1      -1.730  -4.791   0.792  0.00  0.00    +0.072 A 
ATOM      5  C   UNL     1      -1.949  -6.143   1.000  0.00  0.00    +0.027 A 
ATOM      6  C   UNL     1      -3.103  -6.736   0.521  0.00  0.00    +0.002 A 
ATOM      7  C   UNL     1      -4.037  -5.980  -0.163  0.00  0.00    +0.004 A 
ATOM      8  C   UNL     1      -3.823  -4.630  -0.372  0.00  0.00    +0.047 A 
ATOM      9  C   UNL     1      -2.670  -4.027   0.106  0.00  0.00    +0.143 A 
ATOM     10  O   UNL     1      -2.472  -2.697  -0.100  0.00  0.00    -0.476 OA
ENDROOT
BRANCH   1  13
ATOM     11  C   UNL     1      -0.018   1.461   0.010  0.00  0.00    +0.128 C 
ATOM     12  N   UNL     1       0.002  -0.004   0.002  0.00  0.00    -0.315 N 
ATOM     13  C   UNL     1      -1.156  -0.694   0.009  0.00  0.00    +0.255 C 
ATOM     14  O   UNL     1      -2.214  -0.102   0.023  0.00  0.00    -0.272 OA
ATOM     15  H   UNL     1       0.849  -0.478  -0.009  0.00  0.00    +0.148 HD
ENDBRANCH   1  13
BRANCH   3  16
ATOM     16  C   UNL     1       0.579  -4.990   1.727  0.00  0.00    +0.147 C 
BRANCH  16  17
ATOM     17  C   UNL     1       0.436  -5.279   3.199  0.00  0.00    +0.008 A 
ATOM     18  C   UNL     1      -0.174  -6.324   3.808  0.00  0.00    +0.014 A 
ATOM     19  C   UNL     1      -0.183  -6.383   5.190  0.00  0.00    +0.023 A 
ATOM     20  C   UNL     1       0.418  -5.393   5.894  0.00  0.00    +0.055 A 
ATOM     21  S   UNL     1       1.031  -4.335   4.593  0.00  0.00    -0.085 S 
ATOM     22 BR   UNL     1       0.574  -5.188   7.767  0.00  0.00    -0.043 Br
ENDBRANCH  16  17
ENDBRANCH   3  16
TORSDOF 3
