REMARK  Name = ZINC30995609
REMARK  8 active torsions:
REMARK  status: ('A' for Active; 'I' for Inactive)
REMARK    1  A    between atoms: C_1  and  C_2
REMARK    2  A    between atoms: C_4  and  C_28
REMARK    3  A    between atoms: C_7  and  C_12
REMARK    4  A    between atoms: N_14  and  C_15
REMARK    5  A    between atoms: C_18  and  N_21
REMARK    6  A    between atoms: N_24  and  C_25
REMARK    7  A    between atoms: C_25  and  C_26
REMARK    8  A    between atoms: C_25  and  C_27
REMARK                            x       y       z     vdW  Elec       q    Type
REMARK                         _______ _______ _______ _____ _____    ______ ____
ROOT
ATOM      1  C   UNL     1      -5.684   4.314   1.332  0.00  0.00    +0.265 C 
ATOM      2  O   UNL     1      -5.723   3.304   2.009  0.00  0.00    -0.268 OA
ATOM      3  N   UNL     1      -4.670   4.504   0.465  0.00  0.00    -0.280 N 
ATOM      4  H   UNL     1      -4.673   5.379  -0.202  0.00  0.00    +0.155 HD
ENDROOT
BRANCH   1  11
ATOM      5  C   UNL     1     -10.245  10.176   0.923  0.00  0.00    +0.044 C 
ATOM      6  C   UNL     1      -9.653   8.853   1.337  0.00  0.00    -0.048 A 
ATOM      7  C   UNL     1     -10.294   8.085   2.301  0.00  0.00    +0.007 A 
ATOM      8  C   UNL     1      -9.775   6.884   2.690  0.00  0.00    -0.041 A 
ATOM      9  C   UNL     1      -8.586   6.419   2.114  0.00  0.00    +0.003 A 
ATOM     10  C   UNL     1      -7.810   5.249   2.295  0.00  0.00    +0.041 A 
ATOM     11  C   UNL     1      -6.742   5.327   1.459  0.00  0.00    +0.103 A 
ATOM     12  N   UNL     1      -6.805   6.512   0.753  0.00  0.00    -0.351 N 
ATOM     13  H   UNL     1      -6.018   6.762   0.026  0.00  0.00    +0.166 HD
ATOM     14  C   UNL     1      -7.934   7.196   1.136  0.00  0.00    +0.048 A 
ATOM     15  C   UNL     1      -8.483   8.418   0.755  0.00  0.00    +0.029 A 
ATOM     16  C   UNL     1     -10.480   6.061   3.737  0.00  0.00    +0.044 C 
ENDBRANCH   1  11
BRANCH   3  17
ATOM     17  C   UNL     1      -3.612   3.588   0.412  0.00  0.00    +0.034 A 
ATOM     18  C   UNL     1      -3.854   2.236   0.617  0.00  0.00    +0.025 A 
ATOM     19  C   UNL     1      -2.812   1.333   0.565  0.00  0.00    +0.025 A 
ATOM     20  C   UNL     1      -1.521   1.776   0.307  0.00  0.00    +0.035 A 
ATOM     21  C   UNL     1      -1.278   3.129   0.107  0.00  0.00    +0.025 A 
ATOM     22  C   UNL     1      -2.322   4.031   0.154  0.00  0.00    +0.025 A 
BRANCH  20  23
ATOM     23  N   UNL     1      -0.463   0.859   0.254  0.00  0.00    -0.269 N 
ATOM     24  C   UNL     1      -0.666  -0.376  -0.246  0.00  0.00    +0.304 C 
ATOM     25  O   UNL     1      -1.784  -0.722  -0.577  0.00  0.00    -0.253 OA
ATOM     26  N   UNL     1       0.370  -1.228  -0.378  0.00  0.00    -0.297 N 
ATOM     27  H   UNL     1       0.534   1.147   0.620  0.00  0.00    +0.156 HD
ATOM     28  H   UNL     1       1.381  -0.915  -0.079  0.00  0.00    +0.151 HD
BRANCH  26  29
ATOM     29  C   UNL     1       0.149  -2.571  -0.921  0.00  0.00    +0.068 C 
ATOM     30  C   UNL     1       0.189  -2.516  -2.450  0.00  0.00    +0.027 C 
ATOM     31  C   UNL     1       1.244  -3.512  -0.416  0.00  0.00    +0.027 C 
ENDBRANCH  26  29
ENDBRANCH  20  23
ENDBRANCH   3  17
TORSDOF 4
