REMARK  Name = ZINC14246826
REMARK  11 active torsions:
REMARK  status: ('A' for Active; 'I' for Inactive)
REMARK    1  A    between atoms: C_1  and  C_2
REMARK    2  A    between atoms: C_4  and  C_33
REMARK    3  A    between atoms: C_9  and  C_10
REMARK    4  A    between atoms: C_10  and  N_11
REMARK    5  A    between atoms: C_12  and  C_14
REMARK    6  A    between atoms: C_14  and  C_16
REMARK    7  A    between atoms: C_14  and  N_19
REMARK    8  A    between atoms: C_16  and  C_17
REMARK    9  A    between atoms: C_16  and  C_18
REMARK   10  A    between atoms: N_19  and  S_20
REMARK   11  A    between atoms: S_20  and  C_23
REMARK                            x       y       z     vdW  Elec       q    Type
REMARK                         _______ _______ _______ _____ _____    ______ ____
ROOT
ATOM      1  C   UNL     1       4.480  -0.058  -2.584  0.00  0.00    +0.165 C 
ENDROOT
BRANCH   1   3
ATOM      2  N   UNL     1       6.056   0.342  -4.449  0.00  0.00    -0.310 N 
ATOM      3  C   UNL     1       5.517  -0.528  -3.572  0.00  0.00    +0.232 C 
ATOM      4  O   UNL     1       5.867  -1.690  -3.577  0.00  0.00    -0.274 OA
ATOM      5  H   UNL     1       5.834   1.285  -4.395  0.00  0.00    +0.149 HD
BRANCH   2   6
ATOM      6  C   UNL     1       6.978  -0.136  -5.482  0.00  0.00    +0.145 C 
BRANCH   6  15
ATOM      7  C   UNL     1       9.449   1.227  -4.873  0.00  0.00    +0.044 C 
ATOM      8  C   UNL     1       8.601   1.671  -6.037  0.00  0.00    -0.039 A 
ATOM      9  C   UNL     1       9.006   2.748  -6.839  0.00  0.00    +0.024 A 
ATOM     10  C   UNL     1       8.235   3.143  -7.879  0.00  0.00    +0.016 A 
ATOM     11  N   UNL     1       7.071   2.504  -8.161  0.00  0.00    -0.326 N 
ATOM     12  H   UNL     1       6.530   2.800  -8.910  0.00  0.00    +0.169 HD
ATOM     13  C   UNL     1       6.657   1.464  -7.413  0.00  0.00    +0.254 A 
ATOM     14  O   UNL     1       5.608   0.899  -7.679  0.00  0.00    -0.268 OA
ATOM     15  C   UNL     1       7.434   1.027  -6.325  0.00  0.00    +0.037 A 
ATOM     16  C   UNL     1       8.674   4.304  -8.733  0.00  0.00    +0.063 C 
ENDBRANCH   6  15
ENDBRANCH   2   6
ENDBRANCH   1   3
BRANCH   1  17
ATOM     17  C   UNL     1       3.153   0.172  -3.309  0.00  0.00    +0.010 C 
ATOM     18  C   UNL     1       2.653  -1.152  -3.891  0.00  0.00    +0.009 C 
ATOM     19  C   UNL     1       2.120   0.717  -2.321  0.00  0.00    +0.009 C 
ENDBRANCH   1  17
BRANCH   1  20
ATOM     20  N   UNL     1       4.299  -1.075  -1.545  0.00  0.00    -0.178 NA
ATOM     21  H   UNL     1       3.674  -1.803  -1.683  0.00  0.00    +0.149 HD
BRANCH  20  22
ATOM     22  S   UNL     1       5.163  -0.981  -0.135  0.00  0.00    +0.059 S 
ATOM     23  O   UNL     1       6.526  -0.824  -0.504  0.00  0.00    -0.153 OA
ATOM     24  O   UNL     1       4.714  -2.049   0.688  0.00  0.00    -0.153 OA
BRANCH  22  25
ATOM     25  C   UNL     1       4.685   0.511   0.670  0.00  0.00    +0.109 A 
ATOM     26  C   UNL     1       3.558   0.532   1.472  0.00  0.00    +0.032 A 
ATOM     27  C   UNL     1       3.180   1.701   2.105  0.00  0.00    +0.051 A 
ATOM     28  C   UNL     1       3.929   2.856   1.937  0.00  0.00    +0.162 A 
ATOM     29  C   UNL     1       5.062   2.835   1.133  0.00  0.00    +0.164 A 
ATOM     30  C   UNL     1       5.436   1.659   0.500  0.00  0.00    +0.078 A 
ATOM     31  O   UNL     1       5.815   3.955   0.961  0.00  0.00    -0.485 OA
ATOM     32  C   UNL     1       5.203   5.202   1.308  0.00  0.00    +0.270 C 
ATOM     33  C   UNL     1       4.520   5.039   2.673  0.00  0.00    +0.270 C 
ATOM     34  O   UNL     1       3.538   4.002   2.560  0.00  0.00    -0.485 OA
ENDBRANCH  22  25
ENDBRANCH  20  22
ENDBRANCH   1  20
TORSDOF 7
