REMARK  Name = ZINC59588790
REMARK  9 active torsions:
REMARK  status: ('A' for Active; 'I' for Inactive)
REMARK    1  A    between atoms: C_1  and  C_2
REMARK    2  A    between atoms: C_2  and  O_3
REMARK    3  A    between atoms: O_3  and  C_4
REMARK    4  A    between atoms: C_4  and  C_6
REMARK    5  A    between atoms: C_7  and  C_31
REMARK    6  A    between atoms: C_8  and  C_13
REMARK    7  A    between atoms: C_11  and  C_12
REMARK    8  A    between atoms: N_15  and  C_16
REMARK    9  A    between atoms: C_19  and  C_22
REMARK                            x       y       z     vdW  Elec       q    Type
REMARK                         _______ _______ _______ _____ _____    ______ ____
ROOT
ATOM      1  C   UNL     1      -6.236  -3.231  -1.346  0.00  0.00    +0.265 C 
ATOM      2  O   UNL     1      -6.440  -2.731  -2.437  0.00  0.00    -0.268 OA
ATOM      3  N   UNL     1      -7.038  -4.215  -0.895  0.00  0.00    -0.280 N 
ATOM      4  H   UNL     1      -6.836  -4.659  -0.056  0.00  0.00    +0.155 HD
ENDROOT
BRANCH   1   7
ATOM      5  C   UNL     1      -3.325  -1.650   0.216  0.00  0.00    +0.083 A 
ATOM      6  C   UNL     1      -4.233  -1.778  -0.860  0.00  0.00    -0.006 A 
ATOM      7  C   UNL     1      -5.115  -2.761  -0.522  0.00  0.00    +0.106 A 
ATOM      8  N   UNL     1      -4.776  -3.238   0.725  0.00  0.00    -0.354 N 
ATOM      9  H   UNL     1      -5.241  -3.943   1.202  0.00  0.00    +0.166 HD
ATOM     10  C   UNL     1      -3.696  -2.578   1.172  0.00  0.00    +0.028 A 
ATOM     11  C   UNL     1      -3.007  -2.805   2.493  0.00  0.00    +0.064 C 
ATOM     12  C   UNL     1      -4.227  -0.979  -2.138  0.00  0.00    +0.047 C 
BRANCH   5  13
ATOM     13  C   UNL     1      -2.194  -0.711   0.299  0.00  0.00    +0.341 C 
ATOM     14  O   UNL     1      -1.100  -1.039  -0.116  0.00  0.00    -0.245 OA
BRANCH  13  15
ATOM     15  O   UNL     1      -2.372   0.512   0.837  0.00  0.00    -0.461 OA
BRANCH  15  17
ATOM     16  C   UNL     1      -1.624   2.705   1.524  0.00  0.00    +0.048 C 
ATOM     17  C   UNL     1      -1.231   1.371   0.886  0.00  0.00    +0.229 C 
ENDBRANCH  15  17
ENDBRANCH  13  15
ENDBRANCH   5  13
ENDBRANCH   1   7
BRANCH   3  18
ATOM     18  C   UNL     1      -8.162  -4.596  -1.635  0.00  0.00    +0.034 A 
ATOM     19  C   UNL     1      -8.115  -4.582  -3.024  0.00  0.00    +0.024 A 
ATOM     20  C   UNL     1      -9.221  -4.957  -3.756  0.00  0.00    +0.012 A 
ATOM     21  C   UNL     1     -10.388  -5.350  -3.102  0.00  0.00    -0.000 A 
ATOM     22  C   UNL     1     -10.432  -5.364  -1.709  0.00  0.00    +0.012 A 
ATOM     23  C   UNL     1      -9.321  -4.993  -0.981  0.00  0.00    +0.024 A 
BRANCH  21  24
ATOM     24  C   UNL     1     -11.580  -5.754  -3.887  0.00  0.00    +0.064 A 
ATOM     25  C   UNL     1     -11.671  -5.793  -5.244  0.00  0.00    +0.113 A 
ATOM     26  N   UNL     1     -12.932  -6.217  -5.537  0.00  0.00    -0.335 N 
ATOM     27  C   UNL     1     -13.577  -6.425  -4.363  0.00  0.00    +0.087 A 
ATOM     28  N   UNL     1     -12.767  -6.155  -3.384  0.00  0.00    -0.343 N 
ATOM     29  C   UNL     1     -15.007  -6.902  -4.260  0.00  0.00    +0.072 C 
ATOM     30  C   UNL     1     -15.676  -6.710  -5.627  0.00  0.00    +0.009 C 
ATOM     31  C   UNL     1     -14.773  -7.294  -6.717  0.00  0.00    +0.022 C 
ATOM     32  C   UNL     1     -13.520  -6.424  -6.863  0.00  0.00    +0.123 C 
ATOM     33  H   UNL     1     -12.981  -6.227  -2.440  0.00  0.00    +0.167 HD
ENDBRANCH  21  24
ENDBRANCH   3  18
TORSDOF 6
