REMARK  Name = ZINC39007709
REMARK  7 active torsions:
REMARK  status: ('A' for Active; 'I' for Inactive)
REMARK    1  A    between atoms: C_1  and  O_2
REMARK    2  A    between atoms: O_2  and  C_3
REMARK    3  A    between atoms: C_3  and  C_5
REMARK    4  A    between atoms: C_7  and  N_16
REMARK    5  A    between atoms: C_17  and  C_19
REMARK    6  A    between atoms: C_25  and  C_27
REMARK    7  A    between atoms: C_27  and  C_28
REMARK                            x       y       z     vdW  Elec       q    Type
REMARK                         _______ _______ _______ _____ _____    ______ ____
ROOT
ATOM      1  N   UNL     1      -0.111  -4.309  -2.632  0.00  0.00    -0.286 N 
ATOM      2  C   UNL     1       0.108  -3.218  -3.393  0.00  0.00    +0.221 C 
ATOM      3  O   UNL     1      -0.616  -2.251  -3.289  0.00  0.00    -0.275 OA
ATOM      4  H   UNL     1       0.512  -5.051  -2.659  0.00  0.00    +0.155 HD
ENDROOT
BRANCH   1   6
ATOM      5  C   UNL     1      -2.348  -3.376  -1.762  0.00  0.00    +0.234 C 
ATOM      6  C   UNL     1      -1.207  -4.367  -1.825  0.00  0.00    +0.053 C 
ATOM      7  C   UNL     1      -1.508  -5.347  -0.895  0.00  0.00    +0.019 A 
ATOM      8  C   UNL     1      -0.833  -6.526  -0.497  0.00  0.00    +0.026 A 
ATOM      9  C   UNL     1      -1.373  -7.319   0.461  0.00  0.00    +0.019 A 
ATOM     10  C   UNL     1      -2.590  -7.003   1.074  0.00  0.00    +0.017 A 
ATOM     11  C   UNL     1      -3.290  -5.892   0.743  0.00  0.00    +0.027 A 
ATOM     12  C   UNL     1      -2.790  -5.011  -0.252  0.00  0.00    +0.045 A 
ATOM     13  N   UNL     1      -3.272  -3.886  -0.743  0.00  0.00    -0.367 N 
ATOM     14 BR   UNL     1      -0.459  -8.891   0.982  0.00  0.00    -0.050 Br
ATOM     15  H   UNL     1      -4.103  -3.463  -0.475  0.00  0.00    +0.161 HD
BRANCH   5  16
ATOM     16  C   UNL     1      -3.041  -3.296  -3.097  0.00  0.00    +0.335 C 
ATOM     17  O   UNL     1      -3.769  -4.191  -3.455  0.00  0.00    -0.248 OA
BRANCH  16  19
ATOM     18  C   UNL     1      -3.538  -2.219  -5.142  0.00  0.00    +0.280 C 
ATOM     19  O   UNL     1      -2.850  -2.229  -3.889  0.00  0.00    -0.466 OA
ENDBRANCH  16  19
ENDBRANCH   5  16
ENDBRANCH   1   6
BRANCH   2  20
ATOM     20  C   UNL     1       1.252  -3.201  -4.374  0.00  0.00    +0.083 C 
ATOM     21  C   UNL     1       1.637  -1.754  -4.690  0.00  0.00    +0.040 C 
ATOM     22  C   UNL     1       0.562  -1.101  -5.510  0.00  0.00    -0.030 C 
ATOM     23  C   UNL     1      -0.357  -1.749  -6.150  0.00  0.00    -0.031 C 
ATOM     24  C   UNL     1      -0.483  -3.244  -6.154  0.00  0.00    +0.031 C 
ATOM     25  C   UNL     1       0.825  -3.889  -5.677  0.00  0.00    +0.009 C 
BRANCH  25  26
ATOM     26  C   UNL     1       0.608  -5.382  -5.422  0.00  0.00    +0.039 C 
BRANCH  26  27
ATOM     27  C   UNL     1       0.308  -6.076  -6.726  0.00  0.00    -0.047 A 
ATOM     28  C   UNL     1      -0.998  -6.192  -7.163  0.00  0.00    +0.003 A 
ATOM     29  C   UNL     1      -1.272  -6.828  -8.359  0.00  0.00    +0.000 A 
ATOM     30  C   UNL     1      -0.240  -7.349  -9.118  0.00  0.00    +0.000 A 
ATOM     31  C   UNL     1       1.066  -7.233  -8.680  0.00  0.00    +0.000 A 
ATOM     32  C   UNL     1       1.341  -6.593  -7.486  0.00  0.00    +0.003 A 
ENDBRANCH  26  27
ENDBRANCH  25  26
ENDBRANCH   2  20
TORSDOF 6
