REMARK  Name = ZINC40115548
REMARK  10 active torsions:
REMARK  status: ('A' for Active; 'I' for Inactive)
REMARK    1  A    between atoms: C_1  and  C_2
REMARK    2  A    between atoms: C_2  and  O_3
REMARK    3  A    between atoms: O_3  and  C_4
REMARK    4  A    between atoms: C_4  and  C_5
REMARK    5  A    between atoms: C_5  and  C_6
REMARK    6  A    between atoms: C_6  and  N_7
REMARK    7  A    between atoms: C_8  and  C_10
REMARK    8  A    between atoms: C_14  and  N_15
REMARK    9  A    between atoms: C_16  and  C_18
REMARK   10  A    between atoms: C_19  and  C_28
REMARK                            x       y       z     vdW  Elec       q    Type
REMARK                         _______ _______ _______ _____ _____    ______ ____
ROOT
ATOM      1  C   UNL     1       3.150  -5.810  -5.465  0.00  0.00    +0.069 A 
ATOM      2  C   UNL     1       4.591  -5.991  -5.491  0.00  0.00    -0.023 A 
ATOM      3  C   UNL     1       5.084  -6.322  -6.704  0.00  0.00    -0.004 A 
ATOM      4  S   UNL     1       3.667  -6.388  -7.762  0.00  0.00    -0.077 S 
ATOM      5  C   UNL     1       2.466  -5.999  -6.655  0.00  0.00    +0.085 A 
ATOM      6  C   UNL     1       6.518  -6.573  -7.055  0.00  0.00    +0.043 C 
ATOM      7  C   UNL     1       7.395  -6.030  -5.916  0.00  0.00    +0.005 C 
ATOM      8  C   UNL     1       6.835  -6.526  -4.580  0.00  0.00    +0.005 C 
ATOM      9  C   UNL     1       5.503  -5.832  -4.284  0.00  0.00    +0.037 C 
ENDROOT
BRANCH   1  11
ATOM     10  N   UNL     1       2.259  -4.151  -3.917  0.00  0.00    -0.311 N 
ATOM     11  C   UNL     1       2.449  -5.448  -4.229  0.00  0.00    +0.247 C 
ATOM     12  O   UNL     1       2.038  -6.319  -3.485  0.00  0.00    -0.270 OA
ATOM     13  H   UNL     1       2.587  -3.456  -4.510  0.00  0.00    +0.149 HD
BRANCH  10  14
ATOM     14  C   UNL     1       1.558  -3.789  -2.683  0.00  0.00    +0.107 C 
BRANCH  14  15
ATOM     15  C   UNL     1       1.478  -2.265  -2.569  0.00  0.00    +0.047 C 
BRANCH  15  16
ATOM     16  C   UNL     1       0.746  -1.888  -1.280  0.00  0.00    +0.161 C 
BRANCH  16  17
ATOM     17  O   UNL     1       0.671  -0.465  -1.174  0.00  0.00    -0.380 OA
BRANCH  17  19
ATOM     18  C   UNL     1      -0.019   1.526   0.010  0.00  0.00    +0.034 C 
ATOM     19  C   UNL     1       0.002  -0.004   0.002  0.00  0.00    +0.156 C 
ENDBRANCH  17  19
ENDBRANCH  16  17
ENDBRANCH  15  16
ENDBRANCH  14  15
ENDBRANCH  10  14
ENDBRANCH   1  11
BRANCH   5  20
ATOM     20  N   UNL     1       1.103  -5.891  -6.881  0.00  0.00    -0.273 N 
ATOM     21  C   UNL     1       0.605  -6.112  -8.113  0.00  0.00    +0.284 C 
ATOM     22  O   UNL     1       1.351  -6.406  -9.028  0.00  0.00    -0.266 OA
ATOM     23  H   UNL     1       0.508  -5.657  -6.151  0.00  0.00    +0.156 HD
BRANCH  21  24
ATOM     24  C   UNL     1      -0.840  -5.997  -8.352  0.00  0.00    +0.194 A 
ATOM     25  C   UNL     1      -1.454  -6.202  -9.547  0.00  0.00    +0.008 A 
ATOM     26  C   UNL     1      -2.880  -5.981  -9.313  0.00  0.00    +0.024 A 
ATOM     27  C   UNL     1      -4.019  -6.034 -10.121  0.00  0.00    +0.013 A 
ATOM     28  C   UNL     1      -5.245  -5.765  -9.582  0.00  0.00    +0.016 A 
ATOM     29  C   UNL     1      -5.366  -5.440  -8.236  0.00  0.00    +0.021 A 
ATOM     30  C   UNL     1      -4.254  -5.382  -7.423  0.00  0.00    +0.062 A 
ATOM     31  C   UNL     1      -2.996  -5.652  -7.949  0.00  0.00    +0.137 A 
ATOM     32  O   UNL     1      -1.759  -5.679  -7.417  0.00  0.00    -0.450 OA
ATOM     33 BR   UNL     1      -7.074  -5.072  -7.513  0.00  0.00    -0.050 Br
ATOM     34  C   UNL     1      -0.797  -6.579 -10.850  0.00  0.00    +0.048 C 
ENDBRANCH  21  24
ENDBRANCH   5  20
TORSDOF 8
