REMARK  Name = ZINC63514968
REMARK  9 active torsions:
REMARK  status: ('A' for Active; 'I' for Inactive)
REMARK    1  A    between atoms: C_1  and  C_2
REMARK    2  A    between atoms: C_4  and  C_13
REMARK    3  A    between atoms: C_13  and  C_14
REMARK    4  A    between atoms: C_14  and  N_15
REMARK    5  A    between atoms: C_16  and  C_18
REMARK    6  A    between atoms: C_24  and  C_26
REMARK    7  A    between atoms: C_26  and  O_28
REMARK    8  A    between atoms: O_28  and  C_29
REMARK    9  A    between atoms: C_29  and  C_30
REMARK                            x       y       z     vdW  Elec       q    Type
REMARK                         _______ _______ _______ _____ _____    ______ ____
ROOT
ATOM      1  N   UNL     1       0.998  -0.730  -4.977  0.00  0.00    -0.315 N 
ATOM      2  C   UNL     1       1.751  -1.250  -5.967  0.00  0.00    +0.217 C 
ATOM      3  O   UNL     1       2.732  -1.911  -5.699  0.00  0.00    -0.275 OA
ATOM      4  H   UNL     1       0.213  -0.201  -5.192  0.00  0.00    +0.149 HD
ENDROOT
BRANCH   2   5
ATOM      5  C   UNL     1       1.374  -1.010  -7.406  0.00  0.00    +0.089 C 
ATOM      6  C   UNL     1       1.377   0.494  -7.690  0.00  0.00    +0.013 C 
ATOM      7  C   UNL     1       0.995   0.737  -9.152  0.00  0.00    +0.001 C 
ATOM      8  C   UNL     1       2.006   0.043 -10.066  0.00  0.00    +0.001 C 
ATOM      9  C   UNL     1       2.003  -1.460  -9.782  0.00  0.00    +0.015 C 
ATOM     10  C   UNL     1       2.385  -1.704  -8.320  0.00  0.00    +0.110 C 
BRANCH  10  11
ATOM     11  C   UNL     1       2.382  -3.185  -8.040  0.00  0.00    +0.311 C 
ATOM     12  O   UNL     1       1.647  -3.638  -7.196  0.00  0.00    -0.251 OA
BRANCH  11  13
ATOM     13  O   UNL     1       3.197  -3.999  -8.729  0.00  0.00    -0.455 OA
BRANCH  13  14
ATOM     14  C   UNL     1       3.141  -5.392  -8.412  0.00  0.00    +0.345 C 
BRANCH  14  15
ATOM     15  C   UNL     1       4.133  -6.155  -9.292  0.00  0.00    +0.424 C 
ATOM     16  F   UNL     1       5.426  -5.676  -9.062  0.00  0.00    -0.167 F 
ATOM     17  F   UNL     1       4.078  -7.518  -8.981  0.00  0.00    -0.167 F 
ATOM     18  F   UNL     1       3.799  -5.970 -10.638  0.00  0.00    -0.167 F 
ENDBRANCH  14  15
ENDBRANCH  13  14
ENDBRANCH  11  13
ENDBRANCH  10  11
ENDBRANCH   2   5
BRANCH   1  19
ATOM     19  C   UNL     1       1.364  -0.963  -3.578  0.00  0.00    +0.108 C 
BRANCH  19  20
ATOM     20  C   UNL     1       0.352  -0.269  -2.664  0.00  0.00    +0.052 C 
BRANCH  20  23
ATOM     21  C   UNL     1      -0.019   1.526   0.010  0.00  0.00    +0.035 C 
ATOM     22  C   UNL     1       0.002  -0.004   0.002  0.00  0.00    +0.103 C 
ATOM     23  C   UNL     1       0.729  -0.509  -1.224  0.00  0.00    -0.037 C 
ATOM     24  C   UNL     1       1.785  -1.220  -0.768  0.00  0.00    +0.002 A 
ATOM     25  C   UNL     1       2.858  -1.954  -1.449  0.00  0.00    +0.048 A 
ATOM     26  C   UNL     1       3.798  -2.583  -0.705  0.00  0.00    +0.124 A 
ATOM     27  C   UNL     1       3.771  -2.550   0.698  0.00  0.00    +0.040 A 
ATOM     28  C   UNL     1       2.817  -1.897   1.393  0.00  0.00    +0.029 A 
ATOM     29  C   UNL     1       1.780  -1.201   0.712  0.00  0.00    +0.043 A 
ATOM     30  N   UNL     1       0.758  -0.506   1.155  0.00  0.00    -0.378 N 
ATOM     31  F   UNL     1       4.787  -3.260  -1.329  0.00  0.00    -0.205 F 
ATOM     32  H   UNL     1       0.540  -0.349   2.087  0.00  0.00    +0.160 HD
ENDBRANCH  20  23
ENDBRANCH  19  20
ENDBRANCH   1  19
TORSDOF 8
