REMARK  Name = ZINC39986308
REMARK  6 active torsions:
REMARK  status: ('A' for Active; 'I' for Inactive)
REMARK    1  A    between atoms: C_1  and  C_2
REMARK    2  A    between atoms: C_5  and  N_20
REMARK    3  A    between atoms: C_7  and  S_8
REMARK    4  A    between atoms: S_8  and  N_11
REMARK    5  A    between atoms: N_11  and  C_12
REMARK    6  A    between atoms: C_15  and  O_19
REMARK                            x       y       z     vdW  Elec       q    Type
REMARK                         _______ _______ _______ _____ _____    ______ ____
ROOT
ATOM      1  S   UNL     1      -0.075  -0.042   2.746  0.00  0.00    +0.073 S 
ATOM      2  O   UNL     1      -1.270   0.726   2.744  0.00  0.00    -0.150 OA
ATOM      3  O   UNL     1       0.157  -1.089   3.679  0.00  0.00    -0.150 OA
ENDROOT
BRANCH   1  10
ATOM      4  C   UNL     1       2.240  -1.774   1.855  0.00  0.00    +0.046 C 
ATOM      5  C   UNL     1       1.164  -1.536   0.827  0.00  0.00    -0.024 A 
ATOM      6  C   UNL     1       1.272  -2.102  -0.430  0.00  0.00    +0.007 A 
ATOM      7  C   UNL     1       0.286  -1.884  -1.373  0.00  0.00    +0.033 A 
ATOM      8  C   UNL     1      -0.809  -1.100  -1.060  0.00  0.00    +0.128 A 
ATOM      9  C   UNL     1      -0.918  -0.535   0.197  0.00  0.00    +0.061 A 
ATOM     10  C   UNL     1       0.067  -0.757   1.142  0.00  0.00    +0.114 A 
BRANCH   8  11
ATOM     11  N   UNL     1      -1.865  -0.866  -2.070  0.00  0.00    +0.056 N 
ATOM     12  O   UNL     1      -1.770  -1.360  -3.170  0.00  0.00    -0.126 OA
ATOM     13  O   UNL     1      -2.823  -0.181  -1.796  0.00  0.00    -0.126 OA
ENDBRANCH   8  11
ENDBRANCH   1  10
BRANCH   1  14
ATOM     14  N   UNL     1       1.176   1.029   2.916  0.00  0.00    -0.216 N 
ATOM     15  H   UNL     1       1.882   0.853   3.558  0.00  0.00    +0.174 HD
BRANCH  14  16
ATOM     16  C   UNL     1       1.215   2.190   2.135  0.00  0.00    +0.049 A 
ATOM     17  C   UNL     1       0.967   2.117   0.770  0.00  0.00    +0.028 A 
ATOM     18  C   UNL     1       1.006   3.262  -0.001  0.00  0.00    +0.048 A 
ATOM     19  C   UNL     1       1.292   4.485   0.587  0.00  0.00    +0.131 A 
ATOM     20  C   UNL     1       1.541   4.559   1.950  0.00  0.00    +0.061 A 
ATOM     21  C   UNL     1       1.497   3.415   2.724  0.00  0.00    +0.043 A 
ATOM     22 BR   UNL     1       1.932   6.227   2.751  0.00  0.00    -0.046 Br
BRANCH  19  23
ATOM     23  O   UNL     1       1.330   5.612  -0.173  0.00  0.00    -0.506 OA
ATOM     24  H   UNL     1       0.480   6.068  -0.243  0.00  0.00    +0.292 HD
ENDBRANCH  19  23
ENDBRANCH  14  16
ENDBRANCH   1  14
TORSDOF 5
