REMARK  Name = ZINC32916621
REMARK  3 active torsions:
REMARK  status: ('A' for Active; 'I' for Inactive)
REMARK    1  A    between atoms: C_7  and  N_12
REMARK    2  A    between atoms: N_12  and  S_13
REMARK    3  A    between atoms: S_13  and  C_16
REMARK                            x       y       z     vdW  Elec       q    Type
REMARK                         _______ _______ _______ _____ _____    ______ ____
ROOT
ATOM      1  S   UNL     1      -1.570  -0.993   0.039  0.00  0.00    +0.059 S 
ATOM      2  O   UNL     1      -1.484  -2.342   0.476  0.00  0.00    -0.153 OA
ATOM      3  O   UNL     1      -2.414  -0.040   0.670  0.00  0.00    -0.153 OA
ENDROOT
BRANCH   1   4
ATOM      4  C   UNL     1       0.065  -0.338   0.102  0.00  0.00    +0.106 A 
ATOM      5  C   UNL     1       1.156  -1.188   0.146  0.00  0.00    +0.030 A 
ATOM      6  C   UNL     1       2.423  -0.662   0.192  0.00  0.00    +0.025 A 
ATOM      7  C   UNL     1       2.641   0.727   0.200  0.00  0.00    +0.037 A 
ATOM      8  C   UNL     1       1.551   1.569   0.162  0.00  0.00    -0.024 A 
ATOM      9  C   UNL     1       0.268   1.023   0.109  0.00  0.00    +0.034 A 
ATOM     10  C   UNL     1       1.614   3.062   0.183  0.00  0.00    +0.037 C 
ATOM     11  C   UNL     1       2.702   3.655   1.022  0.00  0.00    +0.014 C 
ATOM     12  C   UNL     1       4.063   3.599   0.371  0.00  0.00    +0.096 C 
ATOM     13  C   UNL     1       4.622   2.221   0.372  0.00  0.00    +0.217 C 
ATOM     14  O   UNL     1       5.821   2.125   0.521  0.00  0.00    -0.275 OA
ATOM     15  N   UNL     1       3.964   1.105   0.229  0.00  0.00    -0.285 N 
ATOM     16  H   UNL     1       4.755   0.350   0.112  0.00  0.00    +0.155 HD
ENDBRANCH   1   4
BRANCH   1  17
ATOM     17  N   UNL     1      -2.017  -1.039  -1.555  0.00  0.00    -0.182 NA
ATOM     18  H   UNL     1      -2.753  -0.312  -1.928  0.00  0.00    +0.149 HD
BRANCH  17  25
ATOM     19  C   UNL     1      -0.839   0.823  -5.077  0.00  0.00    +0.001 A 
ATOM     20  C   UNL     1      -1.030   0.133  -6.260  0.00  0.00    +0.004 A 
ATOM     21  C   UNL     1      -1.307  -1.218  -6.233  0.00  0.00    +0.046 A 
ATOM     22  C   UNL     1      -1.395  -1.890  -5.017  0.00  0.00    +0.125 A 
ATOM     23  C   UNL     1      -1.201  -1.198  -3.835  0.00  0.00    +0.013 A 
ATOM     24  C   UNL     1      -0.925   0.159  -3.869  0.00  0.00    +0.009 A 
ATOM     25  C   UNL     1      -1.283  -1.888  -2.497  0.00  0.00    +0.113 C 
ATOM     26  C   UNL     1      -2.011  -3.226  -2.651  0.00  0.00    +0.066 C 
ATOM     27  C   UNL     1      -1.401  -3.970  -3.846  0.00  0.00    +0.231 C 
ATOM     28  O   UNL     1      -1.673  -3.220  -5.030  0.00  0.00    -0.492 OA
ENDBRANCH  17  25
ENDBRANCH   1  17
TORSDOF 3
