REMARK  Name = ZINC09058096
REMARK  7 active torsions:
REMARK  status: ('A' for Active; 'I' for Inactive)
REMARK    1  A    between atoms: C_1  and  C_2
REMARK    2  A    between atoms: C_2  and  C_4
REMARK    3  A    between atoms: C_2  and  N_14
REMARK    4  A    between atoms: C_15  and  C_17
REMARK    5  A    between atoms: C_17  and  N_18
REMARK    6  A    between atoms: C_21  and  C_25
REMARK    7  A    between atoms: C_21  and  C_26
REMARK                            x       y       z     vdW  Elec       q    Type
REMARK                         _______ _______ _______ _____ _____    ______ ____
ROOT
ATOM      1  C   UNL     1       1.317  -0.740  -0.015  0.00  0.00    +0.213 C 
ENDROOT
BRANCH   1   2
ATOM      2  N   UNL     1       1.069  -2.183  -0.020  0.00  0.00    -0.215 N 
ATOM      3  C   UNL     1       0.930  -2.924  -1.137  0.00  0.00    +0.251 C 
ATOM      4  O   UNL     1       0.984  -2.535  -2.285  0.00  0.00    -0.272 OA
ATOM      5  C   UNL     1       0.692  -4.343  -0.662  0.00  0.00    +0.135 C 
ATOM      6  N   UNL     1       0.728  -4.227   0.806  0.00  0.00    -0.281 N 
ATOM      7  C   UNL     1       0.958  -2.931   1.084  0.00  0.00    +0.310 C 
ATOM      8  O   UNL     1       1.051  -2.488   2.212  0.00  0.00    -0.252 OA
ATOM      9  C   UNL     1       1.805  -5.270  -1.156  0.00  0.00    +0.047 C 
ATOM     10  H   UNL     1       0.611  -4.946   1.447  0.00  0.00    +0.152 HD
BRANCH   5  11
ATOM     11  C   UNL     1      -0.655  -4.838  -1.122  0.00  0.00    -0.015 A 
ATOM     12  C   UNL     1      -1.201  -4.360  -2.299  0.00  0.00    +0.009 A 
ATOM     13  C   UNL     1      -2.434  -4.817  -2.725  0.00  0.00    +0.039 A 
ATOM     14  C   UNL     1      -3.127  -5.744  -1.966  0.00  0.00    +0.123 A 
ATOM     15  C   UNL     1      -2.582  -6.218  -0.785  0.00  0.00    +0.039 A 
ATOM     16  C   UNL     1      -1.347  -5.764  -0.364  0.00  0.00    +0.009 A 
ATOM     17  F   UNL     1      -4.335  -6.188  -2.378  0.00  0.00    -0.205 F 
ENDBRANCH   5  11
ENDBRANCH   1   2
BRANCH   1  19
ATOM     18  N   UNL     1      -0.016   1.344   0.009  0.00  0.00    -0.307 N 
ATOM     19  C   UNL     1       0.002  -0.004   0.002  0.00  0.00    +0.231 C 
ATOM     20  O   UNL     1      -1.040  -0.625   0.009  0.00  0.00    -0.274 OA
ATOM     21  H   UNL     1       0.817   1.840   0.004  0.00  0.00    +0.149 HD
BRANCH  18  23
ATOM     22  C   UNL     1      -1.808   2.206  -1.414  0.00  0.00    +0.033 C 
ATOM     23  C   UNL     1      -1.295   2.059   0.019  0.00  0.00    +0.100 C 
BRANCH  23  24
ATOM     24  C   UNL     1      -1.102   3.425   0.626  0.00  0.00    -0.027 A 
ATOM     25  C   UNL     1       0.035   4.157   0.338  0.00  0.00    +0.006 A 
ATOM     26  C   UNL     1       0.203   5.408   0.895  0.00  0.00    +0.004 A 
ATOM     27  C   UNL     1      -0.755   5.934   1.753  0.00  0.00    -0.044 A 
ATOM     28  C   UNL     1      -1.886   5.203   2.041  0.00  0.00    -0.044 A 
ATOM     29  C   UNL     1      -2.055   3.945   1.476  0.00  0.00    +0.009 A 
ATOM     30  C   UNL     1      -2.970   5.713   2.954  0.00  0.00    +0.035 C 
ATOM     31  C   UNL     1      -2.453   6.869   3.809  0.00  0.00    +0.005 C 
ATOM     32  C   UNL     1      -1.796   7.899   2.882  0.00  0.00    +0.005 C 
ATOM     33  C   UNL     1      -0.501   7.299   2.336  0.00  0.00    +0.035 C 
ENDBRANCH  23  24
ENDBRANCH  18  23
ENDBRANCH   1  19
TORSDOF 5
