REMARK  Name = ZINC12882145
REMARK  9 active torsions:
REMARK  status: ('A' for Active; 'I' for Inactive)
REMARK    1  A    between atoms: C_1  and  C_2
REMARK    2  A    between atoms: C_2  and  C_3
REMARK    3  A    between atoms: C_3  and  N_4
REMARK    4  A    between atoms: C_5  and  N_29
REMARK    5  A    between atoms: C_6  and  C_13
REMARK    6  A    between atoms: C_13  and  C_15
REMARK    7  A    between atoms: C_15  and  S_16
REMARK    8  A    between atoms: S_16  and  C_17
REMARK    9  A    between atoms: C_20  and  C_22
REMARK                            x       y       z     vdW  Elec       q    Type
REMARK                         _______ _______ _______ _____ _____    ______ ____
ROOT
ATOM      1  C   UNL     1      -0.429  -2.820  -2.344  0.00  0.00    +0.182 C 
ATOM      2  O   UNL     1      -0.547  -2.245  -3.407  0.00  0.00    -0.291 OA
ENDROOT
BRANCH   1   5
ATOM      3  N   UNL     1      -0.001  -0.004  -0.004  0.00  0.00    -0.281 N 
ATOM      4  C   UNL     1      -0.231  -0.675  -1.170  0.00  0.00    +0.116 A 
ATOM      5  C   UNL     1      -0.202  -2.081  -1.163  0.00  0.00    +0.120 A 
ATOM      6  C   UNL     1       0.069  -2.755   0.113  0.00  0.00    +0.266 A 
ATOM      7  O   UNL     1       0.103  -3.970   0.179  0.00  0.00    -0.267 OA
ATOM      8  N   UNL     1       0.279  -2.000   1.211  0.00  0.00    -0.274 N 
ATOM      9  H   UNL     1       0.464  -2.444   2.087  0.00  0.00    +0.173 HD
ATOM     10  C   UNL     1       0.242  -0.659   1.142  0.00  0.00    +0.331 A 
ATOM     11  O   UNL     1       0.436  -0.016   2.155  0.00  0.00    -0.246 OA
BRANCH   4  12
ATOM     12  N   UNL     1      -0.482   0.005  -2.322  0.00  0.00    -0.344 N 
ATOM     13  H   UNL     1      -0.163   0.915  -2.427  0.00  0.00    +0.144 HD
ATOM     14  H   UNL     1      -0.979  -0.420  -3.038  0.00  0.00    +0.144 HD
ENDBRANCH   4  12
BRANCH   3  15
ATOM     15  C   UNL     1      -0.026   1.461  -0.002  0.00  0.00    +0.128 C 
BRANCH  15  17
ATOM     16  C   UNL     1       1.354   3.525  -0.285  0.00  0.00    +0.005 C 
ATOM     17  C   UNL     1       1.379   1.995  -0.287  0.00  0.00    +0.018 C 
ENDBRANCH  15  17
ENDBRANCH   3  15
ENDBRANCH   1   5
BRANCH   1  18
ATOM     18  C   UNL     1      -0.524  -4.323  -2.285  0.00  0.00    +0.158 C 
BRANCH  18  19
ATOM     19  S   UNL     1      -0.817  -4.974  -3.948  0.00  0.00    -0.058 S 
BRANCH  19  20
ATOM     20  C   UNL     1      -0.884  -6.699  -3.594  0.00  0.00    +0.278 A 
ATOM     21  N   UNL     1      -0.747  -7.256  -2.412  0.00  0.00    -0.101 NA
ATOM     22  N   UNL     1      -0.852  -8.533  -2.526  0.00  0.00    -0.106 NA
ATOM     23  C   UNL     1      -1.060  -8.843  -3.782  0.00  0.00    +0.249 A 
ATOM     24  O   UNL     1      -1.090  -7.688  -4.484  0.00  0.00    -0.411 OA
BRANCH  23  25
ATOM     25  C   UNL     1      -1.236 -10.204  -4.330  0.00  0.00    +0.040 A 
ATOM     26  C   UNL     1      -1.458 -10.387  -5.696  0.00  0.00    +0.013 A 
ATOM     27  C   UNL     1      -1.615 -11.660  -6.202  0.00  0.00    +0.002 A 
ATOM     28  C   UNL     1      -1.565 -12.755  -5.357  0.00  0.00    +0.015 A 
ATOM     29  C   UNL     1      -1.351 -12.581  -4.001  0.00  0.00    +0.019 A 
ATOM     30  C   UNL     1      -1.186 -11.312  -3.483  0.00  0.00    +0.028 A 
ATOM     31 BR   UNL     1      -1.284 -14.084  -2.856  0.00  0.00    -0.050 Br
ENDBRANCH  23  25
ENDBRANCH  19  20
ENDBRANCH  18  19
ENDBRANCH   1  18
TORSDOF 8
