REMARK  Name = ZINC23590771
REMARK  9 active torsions:
REMARK  status: ('A' for Active; 'I' for Inactive)
REMARK    1  A    between atoms: C_1  and  C_2
REMARK    2  A    between atoms: C_11  and  N_27
REMARK    3  A    between atoms: C_13  and  S_15
REMARK    4  A    between atoms: S_15  and  C_16
REMARK    5  A    between atoms: C_16  and  C_17
REMARK    6  A    between atoms: N_22  and  C_23
REMARK    7  A    between atoms: C_23  and  C_24
REMARK    8  A    between atoms: C_23  and  C_25
REMARK    9  A    between atoms: C_23  and  C_26
REMARK                            x       y       z     vdW  Elec       q    Type
REMARK                         _______ _______ _______ _____ _____    ______ ____
ROOT
ATOM      1  C   UNL     1      -1.243  -0.754  -0.606  0.00  0.00    +0.008 C 
ATOM      2  C   UNL     1       0.165  -0.165  -0.721  0.00  0.00    -0.009 C 
ATOM      3  C   UNL     1       1.021  -0.638   0.458  0.00  0.00    +0.008 C 
ATOM      4  C   UNL     1       2.484  -0.262   0.219  0.00  0.00    +0.037 C 
ATOM      5  C   UNL     1       2.567   1.230  -0.094  0.00  0.00    -0.025 A 
ATOM      6  C   UNL     1       1.469   1.910  -0.494  0.00  0.00    -0.004 A 
ATOM      7  S   UNL     1       2.018   3.580  -0.741  0.00  0.00    -0.073 S 
ATOM      8  C   UNL     1       3.715   3.367  -0.311  0.00  0.00    +0.115 A 
ATOM      9  C   UNL     1       3.802   1.990   0.015  0.00  0.00    +0.051 A 
ATOM     10  C   UNL     1       5.080   1.499   0.412  0.00  0.00    +0.129 A 
ATOM     11  N   UNL     1       6.065   2.393   0.436  0.00  0.00    -0.207 NA
ATOM     12  C   UNL     1       5.913   3.670   0.117  0.00  0.00    +0.191 A 
ATOM     13  N   UNL     1       4.743   4.190  -0.262  0.00  0.00    -0.214 NA
ATOM     14  C   UNL     1       0.086   1.367  -0.687  0.00  0.00    +0.046 C 
ENDROOT
BRANCH  10  15
ATOM     15  N   UNL     1       5.283   0.174   0.753  0.00  0.00    -0.343 N 
ATOM     16  H   UNL     1       6.284  -0.169   1.055  0.00  0.00    +0.144 HD
ATOM     17  H   UNL     1       4.444  -0.536   0.723  0.00  0.00    +0.144 HD
ENDBRANCH  10  15
BRANCH  12  18
ATOM     18  S   UNL     1       7.318   4.729   0.197  0.00  0.00    -0.077 S 
BRANCH  18  19
ATOM     19  C   UNL     1       8.574   3.546   0.743  0.00  0.00    +0.173 C 
BRANCH  19  20
ATOM     20  C   UNL     1       9.899   4.249   0.885  0.00  0.00    +0.231 C 
ATOM     21  O   UNL     1       9.986   5.434   0.641  0.00  0.00    -0.274 OA
ATOM     22  N   UNL     1      10.988   3.562   1.283  0.00  0.00    -0.239 N 
ATOM     23  C   UNL     1      12.173   4.191   1.410  0.00  0.00    +0.306 C 
ATOM     24  O   UNL     1      12.260   5.378   1.165  0.00  0.00    -0.252 OA
ATOM     25  N   UNL     1      13.261   3.503   1.808  0.00  0.00    -0.294 N 
ATOM     26  H   UNL     1      10.909   2.487   1.505  0.00  0.00    +0.159 HD
ATOM     27  H   UNL     1      13.183   2.428   2.030  0.00  0.00    +0.151 HD
BRANCH  25  28
ATOM     28  C   UNL     1      14.550   4.187   1.946  0.00  0.00    +0.028 C 
ATOM     29  C   UNL     1      14.424   5.309   2.978  0.00  0.00    +0.031 C 
ATOM     30  C   UNL     1      15.611   3.186   2.408  0.00  0.00    +0.031 C 
ATOM     31  C   UNL     1      14.960   4.779   0.596  0.00  0.00    +0.031 C 
ENDBRANCH  25  28
ENDBRANCH  19  20
ENDBRANCH  18  19
ENDBRANCH  12  18
TORSDOF 5
