REMARK  Name = ZINC08765023
REMARK  11 active torsions:
REMARK  status: ('A' for Active; 'I' for Inactive)
REMARK    1  A    between atoms: C_1  and  C_2
REMARK    2  A    between atoms: C_3  and  C_29
REMARK    3  A    between atoms: C_9  and  O_19
REMARK    4  A    between atoms: C_15  and  C_17
REMARK    5  A    between atoms: C_15  and  C_18
REMARK    6  A    between atoms: O_19  and  C_20
REMARK    7  A    between atoms: C_20  and  C_21
REMARK    8  A    between atoms: N_23  and  CA_24
REMARK    9  A    between atoms: CA_24  and  CB_26
REMARK   10  A    between atoms: CA_24  and  C_27
REMARK   11  A    between atoms: C_27  and  O_28
REMARK                            x       y       z     vdW  Elec       q    Type
REMARK                         _______ _______ _______ _____ _____    ______ ____
ROOT
ATOM      1  C   UNK A   0      -2.516   1.447   0.029  0.00  0.00    +0.045 C 
ATOM      2  C   UNK A   0      -2.452  -0.059   0.024  0.00  0.00    -0.027 A 
ATOM      3  C   UNK A   0      -3.590  -0.799   0.076  0.00  0.00    +0.038 A 
ATOM      4  C   UNK A   0      -3.513  -2.206   0.070  0.00  0.00    +0.340 A 
ATOM      5  O   UNK A   0      -4.538  -2.863   0.119  0.00  0.00    -0.245 OA
ATOM      6  O   UNK A   0      -2.326  -2.835   0.013  0.00  0.00    -0.421 OA
ATOM      7  C   UNK A   0      -1.172  -2.134  -0.041  0.00  0.00    +0.149 A 
ATOM      8  C   UNK A   0      -1.204  -0.729  -0.036  0.00  0.00    +0.063 A 
ATOM      9  C   UNK A   0      -0.000  -0.004  -0.089  0.00  0.00    +0.136 A 
ATOM     10  C   UNK A   0       1.198  -0.682  -0.154  0.00  0.00    +0.092 A 
ATOM     11  C   UNK A   0       1.227  -2.078  -0.156  0.00  0.00    +0.131 A 
ATOM     12  C   UNK A   0       0.047  -2.799  -0.101  0.00  0.00    +0.038 A 
ATOM     13  C   UNK A   0       0.046  -4.307  -0.100  0.00  0.00    +0.046 C 
ATOM     14  C   UNK A   0       1.396  -4.825  -0.601  0.00  0.00    +0.052 C 
ATOM     15  C   UNK A   0       2.506  -4.071   0.143  0.00  0.00    +0.105 C 
ATOM     16  O   UNK A   0       2.436  -2.692  -0.222  0.00  0.00    -0.486 OA
ATOM     17  C   UNK A   0       3.870  -4.640  -0.253  0.00  0.00    +0.055 C 
ATOM     18  C   UNK A   0       2.305  -4.215   1.653  0.00  0.00    +0.055 C 
ATOM     19  C   UNK A   0      -4.933  -0.117   0.141  0.00  0.00    +0.051 C 
ENDROOT
BRANCH   9  20
ATOM     20  O   UNK A   0      -0.019   1.353  -0.083  0.00  0.00    -0.482 OA
BRANCH  20  21
ATOM     21  C   UNK A   0       1.244   2.019  -0.140  0.00  0.00    +0.324 C 
BRANCH  21  22
ATOM     22  C   UNK A   0       1.027   3.510  -0.124  0.00  0.00    +0.251 C 
ATOM     23  O   UNK A   0      -0.099   3.958  -0.070  0.00  0.00    -0.272 OA
ATOM     24  N   ALA A   1       2.083   4.346  -0.170  0.00  0.00    -0.308 N 
ATOM     25  H   ALA A   1       2.984   3.987  -0.213  0.00  0.00    +0.149 HD
BRANCH  24  26
ATOM     26  CA  ALA A   1       1.872   5.795  -0.155  0.00  0.00    +0.095 C 
ATOM     27  CB  ALA A   1       1.741   6.277   1.292  0.00  0.00    +0.030 C 
BRANCH  26  28
ATOM     28  C   ALA A   1       3.062   6.492  -0.818  0.00  0.00    +0.177 C 
BRANCH  28  29
ATOM     29  O   ALA A   1       4.238   6.273  -0.036  0.00  0.00    -0.393 OA
ATOM     30  H   ALA A   1       5.034   6.686  -0.398  0.00  0.00    +0.209 HD
ENDBRANCH  28  29
ENDBRANCH  26  28
ENDBRANCH  24  26
ENDBRANCH  21  22
ENDBRANCH  20  21
ENDBRANCH   9  20
TORSDOF 6
