REMARK  Name = ZINC08996416
REMARK  5 active torsions:
REMARK  status: ('A' for Active; 'I' for Inactive)
REMARK    1  A    between atoms: C_1  and  O_2
REMARK    2  A    between atoms: O_2  and  C_3
REMARK    3  A    between atoms: C_6  and  N_9
REMARK    4  A    between atoms: C_10  and  C_12
REMARK    5  A    between atoms: C_23  and  C_26
REMARK                            x       y       z     vdW  Elec       q    Type
REMARK                         _______ _______ _______ _____ _____    ______ ____
ROOT
ATOM      1  C   UNL     1       3.106  -4.522   5.545  0.00  0.00    +0.119 C 
ATOM      2  C   UNL     1       4.592  -4.172   5.644  0.00  0.00    +0.113 C 
ATOM      3  C   UNL     1       5.341  -4.904   4.560  0.00  0.00    +0.218 C 
ATOM      4  O   UNL     1       6.278  -4.371   4.004  0.00  0.00    -0.275 OA
ATOM      5  N   UNL     1       4.972  -6.146   4.210  0.00  0.00    -0.289 N 
ATOM      6  C   UNL     1       3.865  -6.747   4.751  0.00  0.00    +0.018 C 
ATOM      7  C   UNL     1       2.945  -6.018   5.416  0.00  0.00    +0.024 C 
ATOM      8  C   UNL     1       1.819  -6.622   6.001  0.00  0.00    +0.162 C 
ATOM      9  O   UNL     1       1.034  -5.942   6.631  0.00  0.00    -0.292 OA
ATOM     10  C   UNL     1       1.571  -8.100   5.857  0.00  0.00    +0.091 C 
ATOM     11  C   UNL     1       2.199  -8.578   4.543  0.00  0.00    +0.068 C 
ATOM     12  C   UNL     1       3.686  -8.233   4.563  0.00  0.00    +0.063 C 
ATOM     13  H   UNL     1       5.502  -6.631   3.557  0.00  0.00    +0.155 HD
ENDROOT
BRANCH  11  14
ATOM     14  C   UNL     1       2.022 -10.069   4.410  0.00  0.00    +0.109 A 
ATOM     15  C   UNL     1       1.371 -10.698   3.415  0.00  0.00    +0.045 A 
ATOM     16  C   UNL     1       1.449 -12.084   3.687  0.00  0.00    +0.041 A 
ATOM     17  C   UNL     1       2.143 -12.218   4.831  0.00  0.00    +0.195 A 
ATOM     18  O   UNL     1       2.493 -10.995   5.261  0.00  0.00    -0.468 OA
ENDBRANCH  11  14
BRANCH   1  20
ATOM     19  N   UNL     1       2.540  -2.503   4.231  0.00  0.00    -0.285 N 
ATOM     20  C   UNL     1       2.513  -3.847   4.335  0.00  0.00    +0.225 C 
ATOM     21  O   UNL     1       2.010  -4.513   3.455  0.00  0.00    -0.275 OA
ATOM     22  H   UNL     1       3.001  -1.975   4.901  0.00  0.00    +0.155 HD
BRANCH  19  26
ATOM     23  C   UNL     1       0.645  -0.621   1.030  0.00  0.00    +0.120 A 
ATOM     24  C   UNL     1       1.262  -1.849   0.845  0.00  0.00    +0.047 A 
ATOM     25  C   UNL     1       1.890  -2.473   1.905  0.00  0.00    +0.027 A 
ATOM     26  C   UNL     1       1.904  -1.871   3.155  0.00  0.00    +0.034 A 
ATOM     27  C   UNL     1       1.286  -0.641   3.340  0.00  0.00    +0.027 A 
ATOM     28  C   UNL     1       0.664  -0.015   2.277  0.00  0.00    +0.047 A 
BRANCH  23  30
ATOM     29  C   UNL     1       0.047  -0.687  -1.271  0.00  0.00    +0.277 C 
ATOM     30  O   UNL     1       0.027  -0.007  -0.015  0.00  0.00    -0.495 OA
ENDBRANCH  23  30
ENDBRANCH  19  26
ENDBRANCH   1  20
TORSDOF 4
