REMARK  Name = ZINC12382979
REMARK  10 active torsions:
REMARK  status: ('A' for Active; 'I' for Inactive)
REMARK    1  A    between atoms: C_1  and  C_2
REMARK    2  A    between atoms: C_2  and  C_3
REMARK    3  A    between atoms: C_2  and  C_4
REMARK    4  A    between atoms: C_7  and  N_10
REMARK    5  A    between atoms: C_14  and  C_15
REMARK    6  A    between atoms: C_17  and  C_24
REMARK    7  A    between atoms: C_18  and  O_23
REMARK    8  A    between atoms: C_19  and  O_21
REMARK    9  A    between atoms: O_21  and  C_22
REMARK   10  A    between atoms: C_24  and  C_25
REMARK                            x       y       z     vdW  Elec       q    Type
REMARK                         _______ _______ _______ _____ _____    ______ ____
ROOT
ATOM      1  N   UNL     1      -2.450   4.242   0.485  0.00  0.00    -0.190 N 
ATOM      2  C   UNL     1      -1.323   3.506   0.408  0.00  0.00    +0.263 C 
ATOM      3  O   UNL     1      -1.359   2.295   0.521  0.00  0.00    -0.269 OA
ATOM      4  C   UNL     1      -0.045   4.209   0.182  0.00  0.00    +0.100 C 
ATOM      5  C   UNL     1       1.151   3.522   0.091  0.00  0.00    +0.026 C 
ATOM      6  C   UNL     1      -0.101   5.680   0.064  0.00  0.00    +0.257 C 
ATOM      7  O   UNL     1       0.911   6.331  -0.117  0.00  0.00    -0.270 OA
ATOM      8  N   UNL     1      -1.304   6.281   0.157  0.00  0.00    -0.235 N 
ATOM      9  C   UNL     1      -2.426   5.577   0.362  0.00  0.00    +0.320 C 
ATOM     10  O   UNL     1      -3.478   6.181   0.442  0.00  0.00    -0.251 OA
ATOM     11  H   UNL     1      -1.359   7.246   0.077  0.00  0.00    +0.159 HD
ENDROOT
BRANCH   1  15
ATOM     12  C   UNL     1      -6.095   2.323   1.123  0.00  0.00    -0.045 A 
ATOM     13  C   UNL     1      -5.577   3.160   2.094  0.00  0.00    +0.006 A 
ATOM     14  C   UNL     1      -4.369   3.797   1.886  0.00  0.00    +0.024 A 
ATOM     15  C   UNL     1      -3.676   3.597   0.700  0.00  0.00    +0.046 A 
ATOM     16  C   UNL     1      -4.202   2.762  -0.277  0.00  0.00    +0.024 A 
ATOM     17  C   UNL     1      -5.407   2.123  -0.060  0.00  0.00    +0.006 A 
BRANCH  12  19
ATOM     18  C   UNL     1      -8.408   2.050   0.270  0.00  0.00    +0.012 C 
ATOM     19  C   UNL     1      -7.413   1.629   1.353  0.00  0.00    +0.013 C 
ATOM     20  C   UNL     1      -7.207   0.114   1.296  0.00  0.00    +0.012 C 
ENDBRANCH  12  19
ENDBRANCH   1  15
BRANCH   5  21
ATOM     21  C   UNL     1       1.205   2.101   0.431  0.00  0.00    -0.020 A 
ATOM     22  C   UNL     1       0.583   1.631   1.598  0.00  0.00    +0.015 A 
ATOM     23  C   UNL     1       0.636   0.293   1.914  0.00  0.00    +0.002 A 
ATOM     24  C   UNL     1       1.305  -0.596   1.080  0.00  0.00    +0.162 A 
ATOM     25  C   UNL     1       1.926  -0.138  -0.083  0.00  0.00    +0.162 A 
ATOM     26  C   UNL     1       1.879   1.201  -0.409  0.00  0.00    +0.057 A 
BRANCH  25  27
ATOM     27  O   UNL     1       2.578  -1.013  -0.895  0.00  0.00    -0.491 OA
ATOM     28  C   UNL     1       3.089  -0.498  -2.126  0.00  0.00    +0.277 C 
ENDBRANCH  25  27
BRANCH  24  29
ATOM     29  O   UNL     1       1.353  -1.915   1.398  0.00  0.00    -0.503 OA
ATOM     30  H   UNL     1       2.114  -2.160   1.942  0.00  0.00    +0.292 HD
ENDBRANCH  24  29
BRANCH  23  31
ATOM     31  C   UNL     1      -0.032  -0.210   3.167  0.00  0.00    +0.065 C 
BRANCH  31  32
ATOM     32  C   UNL     1       0.978  -0.274   4.284  0.00  0.00    -0.030 C 
ATOM     33  C   UNL     1       0.747   0.350   5.412  0.00  0.00    +0.004 C 
ENDBRANCH  31  32
ENDBRANCH  23  31
ENDBRANCH   5  21
TORSDOF 7
