REMARK  Name = ZINC62049126
REMARK  15 active torsions:
REMARK  status: ('A' for Active; 'I' for Inactive)
REMARK    1  A    between atoms: C_1  and  C_2
REMARK    2  A    between atoms: C_2  and  O_3
REMARK    3  A    between atoms: O_3  and  C_4
REMARK    4  A    between atoms: C_7  and  C_10
REMARK    5  A    between atoms: C_11  and  C_35
REMARK    6  A    between atoms: C_15  and  N_20
REMARK    7  A    between atoms: C_17  and  C_19
REMARK    8  A    between atoms: N_20  and  C_21
REMARK    9  A    between atoms: C_21  and  C_22
REMARK   10  A    between atoms: C_22  and  C_24
REMARK   11  A    between atoms: C_22  and  N_32
REMARK   12  A    between atoms: C_27  and  O_30
REMARK   13  A    between atoms: O_30  and  C_31
REMARK   14  A    between atoms: N_32  and  C_33
REMARK   15  A    between atoms: N_32  and  C_34
REMARK                            x       y       z     vdW  Elec       q    Type
REMARK                         _______ _______ _______ _____ _____    ______ ____
ROOT
ATOM      1  C   UNL     1      -2.107  -5.673  -0.221  0.00  0.00    +0.005 A 
ATOM      2  C   UNL     1      -1.797  -6.289  -1.385  0.00  0.00    -0.003 A 
ATOM      3  S   UNL     1      -2.081  -8.013  -1.032  0.00  0.00    -0.073 S 
ATOM      4  C   UNL     1      -2.605  -7.872   0.656  0.00  0.00    +0.114 A 
ATOM      5  C   UNL     1      -2.542  -6.486   0.910  0.00  0.00    +0.055 A 
ATOM      6  C   UNL     1      -2.915  -6.089   2.222  0.00  0.00    +0.131 A 
ATOM      7  N   UNL     1      -3.281  -7.012   3.096  0.00  0.00    -0.217 NA
ATOM      8  C   UNL     1      -3.312  -8.297   2.791  0.00  0.00    +0.129 A 
ATOM      9  N   UNL     1      -2.987  -8.725   1.586  0.00  0.00    -0.225 NA
ATOM     10  C   UNL     1      -3.740  -9.294   3.837  0.00  0.00    +0.088 C 
ATOM     11  C   UNL     1      -1.325  -5.666  -2.674  0.00  0.00    +0.052 C 
ENDROOT
BRANCH   1  15
ATOM     12  C   UNL     1      -1.800  -1.446   0.141  0.00  0.00    +0.121 A 
ATOM     13  C   UNL     1      -0.652  -2.227   0.150  0.00  0.00    +0.046 A 
ATOM     14  C   UNL     1      -0.748  -3.598   0.033  0.00  0.00    +0.012 A 
ATOM     15  C   UNL     1      -2.000  -4.200  -0.094  0.00  0.00    -0.016 A 
ATOM     16  C   UNL     1      -3.151  -3.413  -0.103  0.00  0.00    +0.012 A 
ATOM     17  C   UNL     1      -3.048  -2.042   0.020  0.00  0.00    +0.046 A 
BRANCH  12  18
ATOM     18  O   UNL     1      -1.702  -0.096   0.256  0.00  0.00    -0.492 OA
BRANCH  18  20
ATOM     19  C   UNL     1      -0.478   1.974   0.495  0.00  0.00    +0.048 C 
ATOM     20  C   UNL     1      -0.388   0.451   0.377  0.00  0.00    +0.225 C 
ENDBRANCH  18  20
ENDBRANCH  12  18
ENDBRANCH   1  15
BRANCH   6  21
ATOM     21  N   UNL     1      -2.894  -4.753   2.581  0.00  0.00    -0.330 N 
ATOM     22  H   UNL     1      -2.701  -4.075   1.915  0.00  0.00    +0.147 HD
BRANCH  21  23
ATOM     23  C   UNL     1      -3.165  -4.363   3.967  0.00  0.00    +0.092 C 
BRANCH  23  24
ATOM     24  C   UNL     1      -4.677  -4.300   4.193  0.00  0.00    -0.021 C 
BRANCH  24  25
ATOM     25  C   UNL     1      -5.271  -3.228   3.316  0.00  0.00    -0.059 A 
ATOM     26  C   UNL     1      -5.188  -1.901   3.696  0.00  0.00    +0.005 A 
ATOM     27  C   UNL     1      -5.732  -0.916   2.895  0.00  0.00    +0.046 A 
ATOM     28  C   UNL     1      -6.363  -1.259   1.708  0.00  0.00    +0.120 A 
ATOM     29  C   UNL     1      -6.445  -2.591   1.329  0.00  0.00    +0.046 A 
ATOM     30  C   UNL     1      -5.894  -3.572   2.131  0.00  0.00    +0.005 A 
BRANCH  28  31
ATOM     31  O   UNL     1      -6.900  -0.292   0.918  0.00  0.00    -0.495 OA
ATOM     32  C   UNL     1      -7.534  -0.719  -0.290  0.00  0.00    +0.277 C 
ENDBRANCH  28  31
ENDBRANCH  24  25
BRANCH  24  33
ATOM     33  N   UNL     1      -4.949  -3.987   5.602  0.00  0.00    +0.382 N 
ATOM     34  C   UNL     1      -6.399  -3.991   5.834  0.00  0.00    -0.096 C 
ATOM     35  C   UNL     1      -4.313  -4.997   6.459  0.00  0.00    -0.096 C 
ATOM     36  H   UNL     1      -4.576  -3.076   5.822  0.00  0.00    -0.082 HD
ENDBRANCH  24  33
ENDBRANCH  23  24
ENDBRANCH  21  23
ENDBRANCH   6  21
TORSDOF 9
