REMARK  Name = ZINC46056892
REMARK  10 active torsions:
REMARK  status: ('A' for Active; 'I' for Inactive)
REMARK    1  A    between atoms: C_1  and  C_2
REMARK    2  A    between atoms: C_5  and  N_9
REMARK    3  A    between atoms: C_6  and  C_8
REMARK    4  A    between atoms: C_12  and  C_14
REMARK    5  A    between atoms: C_15  and  C_21
REMARK    6  A    between atoms: C_21  and  C_23
REMARK    7  A    between atoms: C_26  and  O_31
REMARK    8  A    between atoms: C_27  and  O_29
REMARK    9  A    between atoms: O_29  and  C_30
REMARK   10  A    between atoms: O_31  and  C_32
REMARK                            x       y       z     vdW  Elec       q    Type
REMARK                         _______ _______ _______ _____ _____    ______ ____
ROOT
ATOM      1  N   UNL     1       0.458  -4.130   0.206  0.00  0.00    -0.218 N 
ATOM      2  C   UNL     1       0.596  -4.995  -0.819  0.00  0.00    +0.133 A 
ATOM      3  C   UNL     1       0.807  -6.239  -0.284  0.00  0.00    +0.026 A 
ATOM      4  C   UNL     1       0.784  -6.121   1.097  0.00  0.00    +0.066 A 
ATOM      5  N   UNL     1       0.579  -4.860   1.400  0.00  0.00    -0.170 NA
ATOM      6  C   UNL     1       0.968  -7.247   2.083  0.00  0.00    +0.068 C 
ATOM      7  C   UNL     1       1.026  -7.459  -1.143  0.00  0.00    +0.104 C 
ATOM      8  C   UNL     1       0.295  -7.248  -2.473  0.00  0.00    +0.112 C 
ATOM      9  C   UNL     1       0.522  -5.862  -3.006  0.00  0.00    +0.219 C 
ATOM     10  O   UNL     1       0.669  -5.708  -4.200  0.00  0.00    -0.275 OA
ATOM     11  N   UNL     1       0.567  -4.782  -2.196  0.00  0.00    -0.270 N 
ATOM     12  H   UNL     1       0.579  -3.884  -2.563  0.00  0.00    +0.156 HD
ENDROOT
BRANCH   1  17
ATOM     13  C   UNL     1      -0.431   1.459  -0.226  0.00  0.00    +0.044 C 
ATOM     14  C   UNL     1      -0.195  -0.025  -0.112  0.00  0.00    -0.050 A 
ATOM     15  C   UNL     1       0.797  -0.626  -0.864  0.00  0.00    +0.005 A 
ATOM     16  C   UNL     1       1.016  -1.986  -0.761  0.00  0.00    +0.028 A 
ATOM     17  C   UNL     1       0.239  -2.749   0.100  0.00  0.00    +0.070 A 
ATOM     18  C   UNL     1      -0.756  -2.143   0.854  0.00  0.00    -0.025 A 
ATOM     19  C   UNL     1      -0.967  -0.782   0.750  0.00  0.00    +0.008 A 
ATOM     20  C   UNL     1      -1.602  -2.968   1.790  0.00  0.00    +0.046 C 
ENDBRANCH   1  17
BRANCH   7  21
ATOM     21  C   UNL     1       2.500  -7.643  -1.397  0.00  0.00    +0.171 C 
ATOM     22  O   UNL     1       3.248  -6.690  -1.345  0.00  0.00    -0.291 OA
BRANCH  21  23
ATOM     23  C   UNL     1       3.031  -8.977  -1.707  0.00  0.00    +0.022 A 
ATOM     24  C   UNL     1       2.168 -10.078  -1.773  0.00  0.00    +0.015 A 
ATOM     25  C   UNL     1       2.668 -11.327  -2.064  0.00  0.00    +0.050 A 
ATOM     26  C   UNL     1       4.028 -11.499  -2.292  0.00  0.00    +0.162 A 
ATOM     27  C   UNL     1       4.894 -10.408  -2.229  0.00  0.00    +0.162 A 
ATOM     28  C   UNL     1       4.400  -9.150  -1.943  0.00  0.00    +0.060 A 
BRANCH  27  29
ATOM     29  O   UNL     1       6.224 -10.581  -2.453  0.00  0.00    -0.491 OA
ATOM     30  C   UNL     1       7.052  -9.420  -2.371  0.00  0.00    +0.277 C 
ENDBRANCH  27  29
BRANCH  26  31
ATOM     31  O   UNL     1       4.515 -12.734  -2.578  0.00  0.00    -0.491 OA
ATOM     32  C   UNL     1       3.573 -13.807  -2.627  0.00  0.00    +0.277 C 
ENDBRANCH  26  31
ENDBRANCH  21  23
ENDBRANCH   7  21
TORSDOF 5
