REMARK  Name = ZINC04554591
REMARK  8 active torsions:
REMARK  status: ('A' for Active; 'I' for Inactive)
REMARK    1  A    between atoms: C_1  and  C_2
REMARK    2  A    between atoms: C_2  and  C_3
REMARK    3  A    between atoms: C_3  and  C_4
REMARK    4  A    between atoms: C_3  and  C_5
REMARK    5  A    between atoms: C_3  and  C_6
REMARK    6  A    between atoms: C_15  and  O_26
REMARK    7  A    between atoms: C_17  and  C_20
REMARK    8  A    between atoms: C_21  and  C_25
REMARK                            x       y       z     vdW  Elec       q    Type
REMARK                         _______ _______ _______ _____ _____    ______ ____
ROOT
ATOM      1  C   UNL     1      -0.064  -1.951  -0.952  0.00  0.00    -0.000 C 
ATOM      2  C   UNL     1       0.855  -2.459  -2.067  0.00  0.00    +0.009 C 
ATOM      3  C   UNL     1       1.087  -3.963  -1.905  0.00  0.00    +0.037 C 
ATOM      4  C   UNL     1      -0.264  -4.656  -1.790  0.00  0.00    -0.023 A 
ATOM      5  C   UNL     1      -1.380  -3.962  -1.470  0.00  0.00    -0.004 A 
ATOM      6  S   UNL     1      -2.676  -5.171  -1.457  0.00  0.00    -0.078 S 
ATOM      7  C   UNL     1      -1.797  -6.519  -1.857  0.00  0.00    +0.080 A 
ATOM      8  C   UNL     1      -0.477  -6.075  -2.005  0.00  0.00    +0.068 A 
ATOM      9  C   UNL     1       0.551  -7.089  -2.354  0.00  0.00    +0.220 C 
ATOM     10  N   UNL     1       0.136  -8.264  -2.744  0.00  0.00    -0.222 NA
ATOM     11  C   UNL     1      -1.264  -8.629  -2.920  0.00  0.00    +0.231 C 
ATOM     12  N   UNL     1      -2.146  -7.838  -2.044  0.00  0.00    -0.313 N 
ATOM     13  C   UNL     1      -1.480  -2.495  -1.186  0.00  0.00    +0.046 C 
ATOM     14  H   UNL     1      -2.930  -8.224  -1.622  0.00  0.00    +0.149 HD
ENDROOT
BRANCH  11  15
ATOM     15  C   UNL     1      -1.657  -8.392  -4.355  0.00  0.00    +0.035 A 
ATOM     16  C   UNL     1      -1.996  -9.294  -5.308  0.00  0.00    -0.037 A 
ATOM     17  C   UNL     1      -2.325  -8.843  -6.572  0.00  0.00    +0.011 A 
ATOM     18  C   UNL     1      -2.298  -7.511  -6.822  0.00  0.00    +0.046 A 
ATOM     19  S   UNL     1      -1.803  -6.848  -5.240  0.00  0.00    -0.098 S 
ATOM     20  C   UNL     1      -2.015 -10.768  -4.993  0.00  0.00    +0.045 C 
ENDBRANCH  11  15
BRANCH   1  21
ATOM     21  C   UNL     1      -0.093  -0.421  -0.969  0.00  0.00    -0.032 C 
ATOM     22  C   UNL     1      -0.612   0.063  -2.325  0.00  0.00    +0.011 C 
ATOM     23  C   UNL     1       1.321   0.118  -0.742  0.00  0.00    +0.011 C 
BRANCH  21  25
ATOM     24  C   UNL     1      -1.046   1.613   0.124  0.00  0.00    +0.004 C 
ATOM     25  C   UNL     1      -1.016   0.084   0.141  0.00  0.00    +0.003 C 
ENDBRANCH  21  25
ENDBRANCH   1  21
BRANCH   9  26
ATOM     26  O   UNL     1       1.872  -6.804  -2.272  0.00  0.00    -0.492 OA
ATOM     27  H   UNL     1       2.449  -7.538  -2.523  0.00  0.00    +0.294 HD
ENDBRANCH   9  26
TORSDOF 4
