REMARK  Name = ZINC29336934
REMARK  5 active torsions:
REMARK  status: ('A' for Active; 'I' for Inactive)
REMARK    1  A    between atoms: C_6  and  C_7
REMARK    2  A    between atoms: N_9  and  N_10
REMARK    3  A    between atoms: N_13  and  C_14
REMARK    4  A    between atoms: C_14  and  C_15
REMARK    5  A    between atoms: C_14  and  C_18
REMARK                            x       y       z     vdW  Elec       q    Type
REMARK                         _______ _______ _______ _____ _____    ______ ____
ROOT
ATOM      1  N   UNL     1      -3.529  -1.204   0.031  0.00  0.00    -0.218 N 
ATOM      2  C   UNL     1      -4.769  -0.677   0.046  0.00  0.00    +0.316 C 
ATOM      3  O   UNL     1      -5.740  -1.409   0.051  0.00  0.00    -0.251 OA
ATOM      4  N   UNL     1      -4.934   0.661   0.054  0.00  0.00    -0.295 N 
ATOM      5  H   UNL     1      -3.394  -2.295   0.024  0.00  0.00    +0.174 HD
ATOM      6  H   UNL     1      -4.055   1.323   0.049  0.00  0.00    +0.151 HD
ENDROOT
BRANCH   1   9
ATOM      7  C   UNL     1      -1.169  -0.887   0.009  0.00  0.00    +0.276 C 
ATOM      8  O   UNL     1      -1.021  -2.095   0.001  0.00  0.00    -0.267 OA
ATOM      9  N   UNL     1      -2.410  -0.360   0.024  0.00  0.00    -0.228 N 
ATOM     10  H   UNL     1      -2.544   0.731   0.031  0.00  0.00    +0.173 HD
BRANCH   7  16
ATOM     11  C   UNL     1       1.322  -0.402  -0.013  0.00  0.00    +0.047 A 
ATOM     12  C   UNL     1       2.102   0.760  -0.014  0.00  0.00    +0.036 A 
ATOM     13  C   UNL     1       1.262   1.823  -0.000  0.00  0.00    +0.098 A 
ATOM     14  N   UNL     1      -0.017   1.372   0.010  0.00  0.00    -0.356 N 
ATOM     15  H   UNL     1      -0.852   2.088   0.021  0.00  0.00    +0.166 HD
ATOM     16  C   UNL     1       0.002  -0.004   0.002  0.00  0.00    +0.104 A 
ATOM     17 BR   UNL     1       3.991   0.833  -0.031  0.00  0.00    -0.049 Br
ENDBRANCH   7  16
ENDBRANCH   1   9
BRANCH   4  18
ATOM     18  C   UNL     1      -6.282   1.233   0.071  0.00  0.00    +0.081 C 
BRANCH  18  19
ATOM     19  C   UNL     1      -6.786   1.309   1.514  0.00  0.00    +0.010 C 
ATOM     20  C   UNL     1      -5.785   1.000   2.629  0.00  0.00    +0.006 C 
ATOM     21  C   UNL     1      -6.892  -0.003   2.295  0.00  0.00    +0.006 C 
ENDBRANCH  18  19
BRANCH  18  22
ATOM     22  C   UNL     1      -6.247   2.639  -0.531  0.00  0.00    +0.010 C 
ATOM     23  C   UNL     1      -7.251   2.957  -1.641  0.00  0.00    +0.006 C 
ATOM     24  C   UNL     1      -5.769   2.776  -1.979  0.00  0.00    +0.006 C 
ENDBRANCH  18  22
ENDBRANCH   4  18
TORSDOF 5
