REMARK  Name = ZINC34711330
REMARK  9 active torsions:
REMARK  status: ('A' for Active; 'I' for Inactive)
REMARK    1  A    between atoms: C_1  and  C_2
REMARK    2  A    between atoms: C_2  and  C_3
REMARK    3  A    between atoms: C_6  and  C_9
REMARK    4  A    between atoms: C_12  and  C_26
REMARK    5  A    between atoms: N_15  and  C_17
REMARK    6  A    between atoms: C_17  and  C_18
REMARK    7  A    between atoms: C_22  and  O_24
REMARK    8  A    between atoms: O_24  and  C_25
REMARK    9  A    between atoms: N_28  and  C_29
REMARK                            x       y       z     vdW  Elec       q    Type
REMARK                         _______ _______ _______ _____ _____    ______ ____
ROOT
ATOM      1  C   UNL     1      -5.419  -2.005   0.043  0.00  0.00    +0.003 C 
ATOM      2  C   UNL     1      -5.472  -3.352  -0.682  0.00  0.00    +0.017 C 
ATOM      3  C   UNL     1      -6.923  -3.837  -0.734  0.00  0.00    +0.059 C 
ATOM      4  C   UNL     1      -7.785  -2.775  -1.421  0.00  0.00    -0.066 C 
ATOM      5  N   UNL     1      -7.714  -1.518  -0.665  0.00  0.00    +0.383 N 
ATOM      6  C   UNL     1      -6.337  -1.010  -0.671  0.00  0.00    -0.070 C 
ATOM      7  H   UNL     1      -8.006  -1.683   0.287  0.00  0.00    -0.081 HD
ENDROOT
BRANCH   1  11
ATOM      8  C   UNL     1      -1.412  -0.526   0.013  0.00  0.00    -0.048 A 
ATOM      9  C   UNL     1      -2.051  -0.766   1.215  0.00  0.00    +0.004 A 
ATOM     10  C   UNL     1      -3.348  -1.244   1.225  0.00  0.00    +0.004 A 
ATOM     11  C   UNL     1      -4.006  -1.482   0.032  0.00  0.00    -0.046 A 
ATOM     12  C   UNL     1      -3.367  -1.241  -1.170  0.00  0.00    +0.004 A 
ATOM     13  C   UNL     1      -2.072  -0.758  -1.179  0.00  0.00    +0.004 A 
BRANCH   8  15
ATOM     14  C   UNL     1      -0.019   1.526   0.010  0.00  0.00    +0.009 C 
ATOM     15  C   UNL     1       0.002  -0.004   0.002  0.00  0.00    +0.032 C 
ENDBRANCH   8  15
ENDBRANCH   1  11
BRANCH   3  16
ATOM     16  C   UNL     1      -6.996  -5.125  -1.513  0.00  0.00    +0.215 C 
ATOM     17  O   UNL     1      -7.675  -5.190  -2.516  0.00  0.00    -0.276 OA
ATOM     18  N   UNL     1      -6.308  -6.206  -1.093  0.00  0.00    -0.312 N 
ATOM     19  H   UNL     1      -5.766  -6.154  -0.291  0.00  0.00    +0.149 HD
BRANCH  18  20
ATOM     20  C   UNL     1      -6.379  -7.458  -1.850  0.00  0.00    +0.073 C 
ATOM     21  C   UNL     1      -5.072  -8.218  -2.083  0.00  0.00    +0.024 C 
ATOM     22  C   UNL     1      -6.104  -8.758  -1.091  0.00  0.00    +0.024 C 
ENDBRANCH  18  20
ENDBRANCH   3  16
BRANCH   5  23
ATOM     23  C   UNL     1      -8.603  -0.526  -1.283  0.00  0.00    -0.043 C 
BRANCH  23  24
ATOM     24  C   UNL     1     -10.033  -0.986  -1.159  0.00  0.00    -0.060 A 
ATOM     25  C   UNL     1     -10.594  -1.772  -2.148  0.00  0.00    +0.002 A 
ATOM     26  C   UNL     1     -11.905  -2.196  -2.037  0.00  0.00    +0.004 A 
ATOM     27  C   UNL     1     -12.659  -1.834  -0.937  0.00  0.00    +0.045 A 
ATOM     28  C   UNL     1     -12.098  -1.046   0.057  0.00  0.00    +0.120 A 
ATOM     29  C   UNL     1     -10.780  -0.627  -0.054  0.00  0.00    +0.047 A 
BRANCH  28  30
ATOM     30  O   UNL     1     -12.837  -0.689   1.140  0.00  0.00    -0.495 OA
ATOM     31  C   UNL     1     -14.184  -1.161   1.191  0.00  0.00    +0.277 C 
ENDBRANCH  28  30
ENDBRANCH  23  24
ENDBRANCH   5  23
TORSDOF 7
