REMARK  Name = ZINC02408703
REMARK  7 active torsions:
REMARK  status: ('A' for Active; 'I' for Inactive)
REMARK    1  A    between atoms: C_1  and  C_2
REMARK    2  A    between atoms: C_17  and  S_21
REMARK    3  A    between atoms: S_21  and  C_22
REMARK    4  A    between atoms: C_22  and  C_23
REMARK    5  A    between atoms: N_25  and  C_26
REMARK    6  A    between atoms: C_29  and  O_32
REMARK    7  A    between atoms: O_32  and  C_33
REMARK                            x       y       z     vdW  Elec       q    Type
REMARK                         _______ _______ _______ _____ _____    ______ ____
ROOT
ATOM      1  C   UNL     1      -0.012   1.078   0.010  0.00  0.00    +0.008 C 
ATOM      2  C   UNL     1      -0.727   1.571   1.270  0.00  0.00    -0.009 C 
ATOM      3  C   UNL     1       0.010   1.053   2.509  0.00  0.00    +0.009 C 
ATOM      4  C   UNL     1      -0.554   1.760   3.749  0.00  0.00    +0.043 C 
ATOM      5  C   UNL     1      -2.050   1.706   3.683  0.00  0.00    -0.004 A 
ATOM      6  C   UNL     1      -2.812   1.401   2.610  0.00  0.00    -0.024 A 
ATOM      7  C   UNL     1      -4.262   1.416   2.800  0.00  0.00    +0.054 A 
ATOM      8  C   UNL     1      -5.319   1.123   1.798  0.00  0.00    +0.169 A 
ATOM      9  N   UNL     1      -5.265   0.787   0.525  0.00  0.00    -0.214 NA
ATOM     10  C   UNL     1      -6.499   0.631   0.052  0.00  0.00    +0.246 A 
ATOM     11  N   UNL     1      -7.364   0.862   1.008  0.00  0.00    -0.150 NA
ATOM     12  N   UNL     1      -6.628   1.186   2.158  0.00  0.00    -0.178 N 
ATOM     13  C   UNL     1      -7.000   1.518   3.449  0.00  0.00    +0.260 A 
ATOM     14  N   UNL     1      -8.166   1.642   4.034  0.00  0.00    -0.107 NA
ATOM     15  N   UNL     1      -8.007   1.973   5.266  0.00  0.00    -0.120 NA
ATOM     16  C   UNL     1      -6.729   2.080   5.543  0.00  0.00    +0.198 A 
ATOM     17  N   UNL     1      -6.043   1.793   4.394  0.00  0.00    -0.248 N 
ATOM     18  C   UNL     1      -4.708   1.743   4.075  0.00  0.00    +0.101 A 
ATOM     19  S   UNL     1      -3.210   2.023   4.984  0.00  0.00    -0.075 S 
ATOM     20  C   UNL     1      -2.168   1.059   1.269  0.00  0.00    +0.040 C 
ENDROOT
BRANCH  16  21
ATOM     21  S   UNL     1      -6.028   2.511   7.101  0.00  0.00    -0.076 S 
BRANCH  21  22
ATOM     22  C   UNL     1      -7.468   2.759   8.176  0.00  0.00    +0.173 C 
BRANCH  22  23
ATOM     23  C   UNL     1      -7.003   3.138   9.559  0.00  0.00    +0.227 C 
ATOM     24  O   UNL     1      -5.816   3.231   9.795  0.00  0.00    -0.275 OA
ATOM     25  N   UNL     1      -7.904   3.373  10.533  0.00  0.00    -0.285 N 
ATOM     26  H   UNL     1      -8.852   3.364  10.328  0.00  0.00    +0.155 HD
BRANCH  25  27
ATOM     27  C   UNL     1      -7.472   3.630  11.840  0.00  0.00    +0.034 A 
ATOM     28  C   UNL     1      -8.220   3.179  12.920  0.00  0.00    +0.027 A 
ATOM     29  C   UNL     1      -7.792   3.428  14.209  0.00  0.00    +0.047 A 
ATOM     30  C   UNL     1      -6.619   4.138  14.425  0.00  0.00    +0.120 A 
ATOM     31  C   UNL     1      -5.874   4.593  13.347  0.00  0.00    +0.047 A 
ATOM     32  C   UNL     1      -6.299   4.339  12.057  0.00  0.00    +0.027 A 
BRANCH  30  33
ATOM     33  O   UNL     1      -6.200   4.388  15.694  0.00  0.00    -0.495 OA
ATOM     34  C   UNL     1      -7.016   3.890  16.756  0.00  0.00    +0.277 C 
ENDBRANCH  30  33
ENDBRANCH  25  27
ENDBRANCH  22  23
ENDBRANCH  21  22
ENDBRANCH  16  21
TORSDOF 5
