REMARK  Name = ZINC20503142
REMARK  7 active torsions:
REMARK  status: ('A' for Active; 'I' for Inactive)
REMARK    1  A    between atoms: C_6  and  C_7
REMARK    2  A    between atoms: C_14  and  O_28
REMARK    3  A    between atoms: C_15  and  C_18
REMARK    4  A    between atoms: C_18  and  N_19
REMARK    5  A    between atoms: N_22  and  C_25
REMARK    6  A    between atoms: C_25  and  C_26
REMARK    7  A    between atoms: C_26  and  O_27
REMARK                            x       y       z     vdW  Elec       q    Type
REMARK                         _______ _______ _______ _____ _____    ______ ____
ROOT
ATOM      1  C   UNL     1       4.203   2.004   0.769  0.00  0.00    +0.058 C 
ATOM      2  C   UNL     1       4.144   3.343   0.557  0.00  0.00    +0.176 C 
ATOM      3  C   UNL     1       5.291   4.259   0.462  0.00  0.00    +0.231 C 
ATOM      4  O   UNL     1       6.475   3.985   0.556  0.00  0.00    -0.283 OA
ATOM      5  C   UNL     1       4.688   5.583   0.225  0.00  0.00    +0.068 A 
ATOM      6  C   UNL     1       5.225   6.859   0.046  0.00  0.00    +0.019 A 
ATOM      7  C   UNL     1       4.395   7.925  -0.153  0.00  0.00    +0.046 A 
ATOM      8  C   UNL     1       3.014   7.742  -0.176  0.00  0.00    +0.122 A 
ATOM      9  C   UNL     1       2.467   6.482   0.002  0.00  0.00    +0.020 A 
ATOM     10  C   UNL     1       3.298   5.386   0.204  0.00  0.00    +0.144 A 
ATOM     11  O   UNL     1       3.019   4.079   0.399  0.00  0.00    -0.451 OA
ENDROOT
BRANCH   1  17
ATOM     12  C   UNL     1       3.047  -0.198   0.796  0.00  0.00    +0.009 A 
ATOM     13  C   UNL     1       1.891  -0.947   0.751  0.00  0.00    +0.022 A 
ATOM     14  C   UNL     1       0.660  -0.323   0.633  0.00  0.00    +0.059 A 
ATOM     15  C   UNL     1       0.580   1.060   0.559  0.00  0.00    +0.060 A 
ATOM     16  C   UNL     1       1.728   1.823   0.603  0.00  0.00    +0.029 A 
ATOM     17  C   UNL     1       2.975   1.198   0.722  0.00  0.00    -0.020 A 
ATOM     18 CL   UNL     1      -0.968   1.831   0.410  0.00  0.00    -0.082 Cl
ATOM     19 CL   UNL     1      -0.790  -1.276   0.578  0.00  0.00    -0.082 Cl
ENDBRANCH   1  17
BRANCH   8  20
ATOM     20  O   UNL     1       2.198   8.808  -0.374  0.00  0.00    -0.506 OA
ATOM     21  H   UNL     1       1.107   8.669  -0.393  0.00  0.00    +0.292 HD
ENDBRANCH   8  20
BRANCH   9  22
ATOM     22  C   UNL     1       0.972   6.299  -0.025  0.00  0.00    -0.035 C 
BRANCH  22  23
ATOM     23  N   UNL     1       0.435   6.455   1.334  0.00  0.00    +0.384 N 
ATOM     24  C   UNL     1       0.901   5.372   2.211  0.00  0.00    -0.063 C 
ATOM     25  C   UNL     1       0.387   5.613   3.632  0.00  0.00    +0.066 C 
ATOM     26  N   UNL     1      -1.081   5.678   3.614  0.00  0.00    -0.304 NA
ATOM     27  C   UNL     1      -1.547   6.761   2.737  0.00  0.00    +0.066 C 
ATOM     28  C   UNL     1      -1.033   6.520   1.316  0.00  0.00    -0.063 C 
ATOM     29  H   UNL     1       0.813   7.406   1.738  0.00  0.00    -0.081 HD
BRANCH  26  30
ATOM     30  C   UNL     1      -1.618   5.834   4.973  0.00  0.00    +0.112 C 
BRANCH  30  31
ATOM     31  C   UNL     1      -0.945   7.027   5.653  0.00  0.00    +0.171 C 
BRANCH  31  32
ATOM     32  O   UNL     1      -1.333   8.233   4.992  0.00  0.00    -0.394 OA
ATOM     33  H   UNL     1      -0.947   9.202   5.343  0.00  0.00    +0.209 HD
ENDBRANCH  31  32
ENDBRANCH  30  31
ENDBRANCH  26  30
ENDBRANCH  22  23
ENDBRANCH   9  22
TORSDOF 7
