REMARK  Name = ZINC66977861
REMARK  6 active torsions:
REMARK  status: ('A' for Active; 'I' for Inactive)
REMARK    1  A    between atoms: C_5  and  C_7
REMARK    2  A    between atoms: C_7  and  C_8
REMARK    3  A    between atoms: N_10  and  N_11
REMARK    4  A    between atoms: N_14  and  C_15
REMARK    5  A    between atoms: C_15  and  C_16
REMARK    6  A    between atoms: C_16  and  C_21
REMARK                            x       y       z     vdW  Elec       q    Type
REMARK                         _______ _______ _______ _____ _____    ______ ____
ROOT
ATOM      1  N   UNL     1       2.032  -4.290   2.134  0.00  0.00    -0.218 N 
ATOM      2  C   UNL     1       1.971  -5.554   2.597  0.00  0.00    +0.316 C 
ATOM      3  O   UNL     1       2.116  -5.775   3.784  0.00  0.00    -0.251 OA
ATOM      4  N   UNL     1       1.749  -6.574   1.744  0.00  0.00    -0.297 N 
ATOM      5  H   UNL     1       2.192  -3.556   2.748  0.00  0.00    +0.174 HD
ATOM      6  H   UNL     1       1.633  -6.398   0.797  0.00  0.00    +0.150 HD
ENDROOT
BRANCH   1   9
ATOM      7  C   UNL     1       1.926  -2.771   0.304  0.00  0.00    +0.234 C 
ATOM      8  O   UNL     1       2.126  -1.853   1.072  0.00  0.00    -0.274 OA
ATOM      9  N   UNL     1       1.865  -4.035   0.767  0.00  0.00    -0.233 N 
ATOM     10  H   UNL     1       1.705  -4.769   0.153  0.00  0.00    +0.173 HD
BRANCH   7  11
ATOM     11  C   UNL     1       1.746  -2.498  -1.167  0.00  0.00    +0.135 C 
BRANCH  11  16
ATOM     12  C   UNL     1       0.822   1.123  -1.705  0.00  0.00    +0.000 A 
ATOM     13  C   UNL     1       2.064   1.703  -1.885  0.00  0.00    +0.003 A 
ATOM     14  C   UNL     1       3.205   0.925  -1.832  0.00  0.00    +0.038 A 
ATOM     15  C   UNL     1       3.103  -0.437  -1.600  0.00  0.00    +0.127 A 
ATOM     16  C   UNL     1       1.859  -1.016  -1.420  0.00  0.00    -0.003 A 
ATOM     17  C   UNL     1       0.719  -0.235  -1.473  0.00  0.00    +0.007 A 
ATOM     18  F   UNL     1       4.217  -1.199  -1.549  0.00  0.00    -0.205 F 
ENDBRANCH  11  16
ENDBRANCH   7  11
ENDBRANCH   1   9
BRANCH   4  19
ATOM     19  C   UNL     1       1.682  -7.948   2.247  0.00  0.00    +0.117 C 
BRANCH  19  20
ATOM     20  C   UNL     1       1.304  -8.892   1.103  0.00  0.00    +0.018 C 
ATOM     21  C   UNL     1       1.200 -10.336   1.625  0.00  0.00    +0.013 C 
ATOM     22  C   UNL     1       2.247 -11.161   0.849  0.00  0.00    +0.001 C 
ATOM     23  C   UNL     1       3.291 -10.114   0.388  0.00  0.00    +0.001 C 
ATOM     24  C   UNL     1       2.411  -8.890   0.029  0.00  0.00    +0.013 C 
BRANCH  20  25
ATOM     25  C   UNL     1      -0.007  -8.466   0.495  0.00  0.00    -0.003 A 
ATOM     26  C   UNL     1      -1.242  -8.448   1.053  0.00  0.00    +0.012 A 
ATOM     27  C   UNL     1      -2.313  -8.011   0.297  0.00  0.00    +0.008 A 
ATOM     28  C   UNL     1      -2.097  -7.613  -0.980  0.00  0.00    +0.045 A 
ATOM     29  S   UNL     1      -0.335  -7.845  -1.147  0.00  0.00    -0.101 S 
ENDBRANCH  20  25
ENDBRANCH  19  20
ENDBRANCH   4  19
TORSDOF 6
