REMARK  Name = ZINC15753852
REMARK  10 active torsions:
REMARK  status: ('A' for Active; 'I' for Inactive)
REMARK    1  A    between atoms: C_1  and  C_2
REMARK    2  A    between atoms: C_3  and  N_9
REMARK    3  A    between atoms: C_4  and  C_8
REMARK    4  A    between atoms: N_5  and  C_7
REMARK    5  A    between atoms: C_10  and  C_12
REMARK    6  A    between atoms: C_12  and  C_14
REMARK    7  A    between atoms: C_12  and  S_15
REMARK    8  A    between atoms: S_15  and  C_16
REMARK    9  A    between atoms: N_29  and  C_30
REMARK   10  A    between atoms: C_30  and  C_31
REMARK                            x       y       z     vdW  Elec       q    Type
REMARK                         _______ _______ _______ _____ _____    ______ ____
ROOT
ATOM      1  C   UNL     1      -0.749   5.952  -0.721  0.00  0.00    +0.174 A 
ATOM      2  N   UNL     1      -1.147   5.247   0.329  0.00  0.00    -0.216 NA
ATOM      3  C   UNL     1      -0.472   4.138   0.608  0.00  0.00    +0.117 A 
ATOM      4  C   UNL     1       0.631   3.674  -0.143  0.00  0.00    +0.076 A 
ATOM      5  C   UNL     1       1.244   2.438   0.315  0.00  0.00    -0.023 A 
ATOM      6  C   UNL     1       0.697   1.859   1.408  0.00  0.00    -0.004 A 
ATOM      7  S   UNL     1      -0.650   2.918   1.872  0.00  0.00    -0.073 S 
ATOM      8  C   UNL     1       1.132   0.592   2.077  0.00  0.00    +0.043 C 
ATOM      9  C   UNL     1       2.068  -0.165   1.125  0.00  0.00    +0.005 C 
ATOM     10  C   UNL     1       3.110   0.817   0.580  0.00  0.00    +0.005 C 
ATOM     11  C   UNL     1       2.443   1.801  -0.382  0.00  0.00    +0.037 C 
ATOM     12  C   UNL     1       1.032   4.462  -1.272  0.00  0.00    +0.264 A 
ATOM     13  O   UNL     1       1.972   4.146  -1.981  0.00  0.00    -0.267 OA
ATOM     14  N   UNL     1       0.304   5.580  -1.501  0.00  0.00    -0.280 N 
ENDROOT
BRANCH   1  15
ATOM     15  S   UNL     1      -1.619   7.430  -1.125  0.00  0.00    -0.075 S 
BRANCH  15  16
ATOM     16  C   UNL     1      -2.864   7.431   0.189  0.00  0.00    +0.137 C 
ATOM     17  C   UNL     1      -3.791   6.227   0.014  0.00  0.00    +0.029 C 
BRANCH  16  19
ATOM     18  N   UNL     1      -4.282   9.176   1.220  0.00  0.00    -0.282 N 
ATOM     19  C   UNL     1      -3.670   8.702   0.116  0.00  0.00    +0.230 C 
ATOM     20  O   UNL     1      -3.769   9.298  -0.936  0.00  0.00    -0.274 OA
ATOM     21  H   UNL     1      -4.263   8.664   2.043  0.00  0.00    +0.155 HD
BRANCH  18  24
ATOM     22  C   UNL     1      -2.926  11.888   0.505  0.00  0.00    +0.069 C 
ATOM     23  C   UNL     1      -4.371  11.653   0.860  0.00  0.00    +0.081 A 
ATOM     24  C   UNL     1      -4.949  10.415   1.177  0.00  0.00    +0.077 A 
ATOM     25  C   UNL     1      -6.266  10.623   1.430  0.00  0.00    +0.057 A 
ATOM     26  N   UNL     1      -6.507  11.952   1.284  0.00  0.00    -0.270 N 
ATOM     27  N   UNL     1      -5.303  12.570   0.924  0.00  0.00    -0.175 NA
ATOM     28  C   UNL     1      -7.798  12.619   1.466  0.00  0.00    +0.172 C 
ATOM     29  C   UNL     1      -7.277   9.571   1.807  0.00  0.00    +0.067 C 
ENDBRANCH  18  24
ENDBRANCH  16  19
ENDBRANCH  15  16
ENDBRANCH   1  15
BRANCH  14  30
ATOM     30  C   UNL     1       0.665   6.428  -2.639  0.00  0.00    +0.201 C 
BRANCH  30  31
ATOM     31  C   UNL     1       1.667   7.463  -2.197  0.00  0.00    +0.125 A 
ATOM     32  C   UNL     1       3.005   7.319  -2.211  0.00  0.00    +0.046 A 
ATOM     33  C   UNL     1       3.552   8.526  -1.718  0.00  0.00    +0.041 A 
ATOM     34  C   UNL     1       2.516   9.332  -1.424  0.00  0.00    +0.195 A 
ATOM     35  O   UNL     1       1.377   8.683  -1.716  0.00  0.00    -0.466 OA
ENDBRANCH  30  31
ENDBRANCH  14  30
TORSDOF 6
