REMARK  Name = ZINC38975654
REMARK  9 active torsions:
REMARK  status: ('A' for Active; 'I' for Inactive)
REMARK    1  A    between atoms: C_1  and  C_2
REMARK    2  A    between atoms: C_2  and  C_3
REMARK    3  A    between atoms: C_3  and  N_4
REMARK    4  A    between atoms: N_4  and  C_5
REMARK    5  A    between atoms: C_5  and  C_6
REMARK    6  A    between atoms: C_13  and  C_18
REMARK    7  A    between atoms: C_19  and  C_21
REMARK    8  A    between atoms: C_21  and  C_22
REMARK    9  A    between atoms: C_21  and  C_23
REMARK                            x       y       z     vdW  Elec       q    Type
REMARK                         _______ _______ _______ _____ _____    ______ ____
ROOT
ATOM      1  C   UNL     1       1.957  -4.530   1.739  0.00  0.00    +0.116 C 
ATOM      2  C   UNL     1       2.832  -5.592   1.103  0.00  0.00    -0.003 C 
ATOM      3  C   UNL     1       2.762  -6.852   1.620  0.00  0.00    -0.007 A 
ATOM      4  C   UNL     1       3.572  -7.937   1.066  0.00  0.00    +0.009 A 
ATOM      5  C   UNL     1       3.469  -9.176   1.612  0.00  0.00    +0.001 A 
ATOM      6  C   UNL     1       2.610  -9.429   2.682  0.00  0.00    +0.005 A 
ATOM      7  C   UNL     1       1.831  -8.466   3.240  0.00  0.00    -0.029 A 
ATOM      8  C   UNL     1       1.864  -7.148   2.750  0.00  0.00    +0.043 A 
ATOM      9  N   UNL     1       1.097  -6.210   3.306  0.00  0.00    -0.284 N 
ATOM     10  C   UNL     1       1.077  -4.955   2.893  0.00  0.00    +0.226 C 
ATOM     11  O   UNL     1       0.354  -4.144   3.441  0.00  0.00    -0.275 OA
ATOM     12  C   UNL     1       0.927  -8.812   4.395  0.00  0.00    +0.045 C 
ATOM     13  H   UNL     1       0.525  -6.462   4.048  0.00  0.00    +0.155 HD
ENDROOT
BRANCH   1  14
ATOM     14  C   UNL     1       1.053  -3.952   0.648  0.00  0.00    +0.124 C 
BRANCH  14  15
ATOM     15  N   UNL     1       0.343  -2.782   1.172  0.00  0.00    -0.300 N 
ATOM     16  C   UNL     1      -0.856  -2.933   1.769  0.00  0.00    +0.218 C 
ATOM     17  O   UNL     1      -1.351  -4.036   1.865  0.00  0.00    -0.275 OA
BRANCH  16  18
ATOM     18  C   UNL     1      -1.581  -1.732   2.318  0.00  0.00    +0.069 C 
ATOM     19  C   UNL     1      -2.081  -0.865   1.161  0.00  0.00    +0.017 C 
ATOM     20  C   UNL     1      -2.771  -2.195   3.160  0.00  0.00    +0.017 C 
ENDBRANCH  16  18
BRANCH  15  21
ATOM     21  C   UNL     1       0.936  -1.448   1.046  0.00  0.00    +0.107 C 
BRANCH  21  23
ATOM     22  C   UNL     1       1.134   0.555  -0.433  0.00  0.00    +0.005 C 
ATOM     23  C   UNL     1       0.654  -0.895  -0.353  0.00  0.00    +0.016 C 
ENDBRANCH  21  23
ENDBRANCH  15  21
ENDBRANCH  14  15
ENDBRANCH   1  14
TORSDOF 5
