REMARK  Name = ZINC11842197
REMARK  7 active torsions:
REMARK  status: ('A' for Active; 'I' for Inactive)
REMARK    1  A    between atoms: C_1  and  C_2
REMARK    2  A    between atoms: C_6  and  C_12
REMARK    3  A    between atoms: C_12  and  N_13
REMARK    4  A    between atoms: C_14  and  C_16
REMARK    5  A    between atoms: C_16  and  C_17
REMARK    6  A    between atoms: C_24  and  C_25
REMARK    7  A    between atoms: C_24  and  N_52
REMARK                            x       y       z     vdW  Elec       q    Type
REMARK                         _______ _______ _______ _____ _____    ______ ____
ROOT
ATOM      1  N   UNL     1       1.247   4.172   0.746  0.00  0.00    -0.311 N 
ATOM      2  C   UNL     1       1.326   5.436   1.207  0.00  0.00    +0.212 C 
ATOM      3  O   UNL     1       1.437   6.360   0.428  0.00  0.00    -0.276 OA
ATOM      4  H   UNL     1       1.158   3.434   1.369  0.00  0.00    +0.149 HD
ENDROOT
BRANCH   1   5
ATOM      5  C   UNL     1       1.295   3.913  -0.695  0.00  0.00    +0.139 C 
BRANCH   5  11
ATOM      6  C   UNL     1      -1.536  -2.911  -1.979  0.00  0.00    +0.063 C 
ATOM      7  C   UNL     1      -0.739  -1.658  -1.726  0.00  0.00    +0.014 A 
ATOM      8  C   UNL     1      -1.261  -0.433  -1.558  0.00  0.00    +0.030 A 
ATOM      9  C   UNL     1      -0.140   0.485  -1.341  0.00  0.00    +0.000 A 
ATOM     10  C   UNL     1      -0.041   1.858  -1.111  0.00  0.00    +0.015 A 
ATOM     11  C   UNL     1       1.188   2.431  -0.943  0.00  0.00    -0.030 A 
ATOM     12  C   UNL     1       2.340   1.657  -1.000  0.00  0.00    +0.007 A 
ATOM     13  C   UNL     1       2.265   0.301  -1.225  0.00  0.00    +0.026 A 
ATOM     14  C   UNL     1       1.024  -0.303  -1.398  0.00  0.00    +0.047 A 
ATOM     15  N   UNL     1       0.625  -1.600  -1.634  0.00  0.00    -0.358 N 
ATOM     16  H   UNL     1       1.223  -2.359  -1.722  0.00  0.00    +0.166 HD
ENDBRANCH   5  11
ENDBRANCH   1   5
BRANCH   2  17
ATOM     17  C   UNL     1       1.276   5.702   2.689  0.00  0.00    +0.089 C 
BRANCH  17  18
ATOM     18  C   UNL     1       1.245   7.212   2.935  0.00  0.00    +0.028 C 
ATOM     19  C   UNL     1      -0.006   7.790   2.337  0.00  0.00    +0.200 C 
ATOM     20  O   UNL     1      -1.050   7.191   2.484  0.00  0.00    -0.278 OA
ATOM     21  N   UNL     1      -0.016   8.936   1.648  0.00  0.00    -0.318 N 
ATOM     22  C   UNL     1       1.191   9.714   1.384  0.00  0.00    +0.085 C 
ATOM     23  C   UNL     1       2.304   9.297   2.346  0.00  0.00    -0.058 C 
ATOM     24  H   UNL     1      -0.864   9.265   1.309  0.00  0.00    +0.149 HD
ATOM     25  N   UNL     1       2.425   7.826   2.297  0.00  0.00    +0.392 N 
ATOM     26  H   UNL     1       2.470   7.526   1.317  0.00  0.00    -0.080 HD
BRANCH  25  27
ATOM     27  C   UNL     1       3.659   7.394   2.992  0.00  0.00    -0.034 C 
BRANCH  27  28
ATOM     28  C   UNL     1       4.847   7.725   2.126  0.00  0.00    -0.027 A 
ATOM     29  C   UNL     1       5.599   8.853   2.103  0.00  0.00    +0.009 A 
ATOM     30  C   UNL     1       6.655   8.937   1.215  0.00  0.00    +0.008 A 
ATOM     31  C   UNL     1       6.907   7.889   0.393  0.00  0.00    +0.045 A 
ATOM     32  S   UNL     1       5.635   6.731   0.870  0.00  0.00    -0.103 S 
ENDBRANCH  27  28
ENDBRANCH  25  27
ENDBRANCH  17  18
ENDBRANCH   2  17
TORSDOF 6
