REMARK  Name = ZINC12561224
REMARK  9 active torsions:
REMARK  status: ('A' for Active; 'I' for Inactive)
REMARK    1  A    between atoms: C_1  and  C_2
REMARK    2  A    between atoms: C_3  and  C_33
REMARK    3  A    between atoms: N_4  and  C_27
REMARK    4  A    between atoms: C_5  and  N_9
REMARK    5  A    between atoms: C_6  and  C_7
REMARK    6  A    between atoms: C_10  and  C_12
REMARK    7  A    between atoms: C_12  and  N_13
REMARK    8  A    between atoms: C_15  and  C_24
REMARK    9  A    between atoms: C_27  and  C_28
REMARK                            x       y       z     vdW  Elec       q    Type
REMARK                         _______ _______ _______ _____ _____    ______ ____
ROOT
ATOM      1  N   UNL     1      -0.787   2.609   4.661  0.00  0.00    -0.269 N 
ATOM      2  C   UNL     1       0.480   2.646   5.117  0.00  0.00    +0.236 C 
ATOM      3  O   UNL     1       1.405   2.458   4.354  0.00  0.00    -0.274 OA
ATOM      4  H   UNL     1      -1.522   2.843   5.250  0.00  0.00    +0.156 HD
ENDROOT
BRANCH   1   9
ATOM      5  C   UNL     1      -0.511   0.459   0.096  0.00  0.00    +0.047 C 
ATOM      6  C   UNL     1      -0.947   1.284   1.279  0.00  0.00    -0.011 A 
ATOM      7  C   UNL     1      -2.018   2.092   1.342  0.00  0.00    +0.022 A 
ATOM      8  N   UNL     1      -2.081   2.664   2.585  0.00  0.00    -0.324 N 
ATOM      9  C   UNL     1      -1.042   2.237   3.349  0.00  0.00    +0.124 A 
ATOM     10  C   UNL     1      -0.281   1.363   2.585  0.00  0.00    +0.095 A 
ATOM     11  C   UNL     1      -3.000   2.327   0.223  0.00  0.00    +0.064 C 
BRANCH  10  12
ATOM     12  C   UNL     1       0.908   0.676   2.990  0.00  0.00    +0.103 C 
ATOM     13  N   UNL     1       1.851   0.130   3.311  0.00  0.00    -0.191 NA
ENDBRANCH  10  12
BRANCH   8  14
ATOM     14  C   UNL     1      -3.118   3.599   3.026  0.00  0.00    +0.197 C 
BRANCH  14  15
ATOM     15  C   UNL     1      -4.311   2.827   3.526  0.00  0.00    +0.124 A 
ATOM     16  C   UNL     1      -4.510   2.420   4.793  0.00  0.00    +0.046 A 
ATOM     17  C   UNL     1      -5.748   1.736   4.814  0.00  0.00    +0.041 A 
ATOM     18  C   UNL     1      -6.231   1.766   3.559  0.00  0.00    +0.195 A 
ATOM     19  O   UNL     1      -5.360   2.433   2.784  0.00  0.00    -0.466 OA
ENDBRANCH  14  15
ENDBRANCH   8  14
ENDBRANCH   1   9
BRANCH   2  20
ATOM     20  C   UNL     1       0.750   2.919   6.574  0.00  0.00    +0.201 C 
BRANCH  20  21
ATOM     21  N   UNL     1       2.189   2.789   6.839  0.00  0.00    -0.314 N 
ATOM     22  C   UNL     1       2.925   3.948   6.320  0.00  0.00    +0.160 C 
ATOM     23  C   UNL     1       4.397   3.818   6.735  0.00  0.00    +0.275 C 
ATOM     24  O   UNL     1       4.456   3.863   8.164  0.00  0.00    -0.476 OA
ATOM     25  C   UNL     1       3.547   3.105   8.838  0.00  0.00    +0.143 A 
ATOM     26  C   UNL     1       2.431   2.577   8.200  0.00  0.00    +0.073 A 
ATOM     27  C   UNL     1       1.523   1.813   8.926  0.00  0.00    +0.027 A 
ATOM     28  C   UNL     1       1.731   1.578  10.271  0.00  0.00    +0.002 A 
ATOM     29  C   UNL     1       2.844   2.101  10.902  0.00  0.00    +0.004 A 
ATOM     30  C   UNL     1       3.750   2.863  10.188  0.00  0.00    +0.047 A 
BRANCH  23  31
ATOM     31  C   UNL     1       5.192   4.960   6.156  0.00  0.00    +0.253 C 
ATOM     32  O   UNL     1       5.706   5.775   6.891  0.00  0.00    -0.272 OA
ATOM     33  N   UNL     1       5.332   5.074   4.820  0.00  0.00    -0.326 N 
ATOM     34  H   UNL     1       4.921   4.421   4.232  0.00  0.00    +0.145 HD
ATOM     35  H   UNL     1       5.845   5.809   4.447  0.00  0.00    +0.145 HD
ENDBRANCH  23  31
ENDBRANCH  20  21
ENDBRANCH   2  20
TORSDOF 7
