REMARK  Name = ZINC07237111
REMARK  12 active torsions:
REMARK  status: ('A' for Active; 'I' for Inactive)
REMARK    1  A    between atoms: C_1  and  C_2
REMARK    2  A    between atoms: C_3  and  C_27
REMARK    3  A    between atoms: N_9  and  C_24
REMARK    4  A    between atoms: C_10  and  S_12
REMARK    5  A    between atoms: S_12  and  C_13
REMARK    6  A    between atoms: C_13  and  C_14
REMARK    7  A    between atoms: N_19  and  C_20
REMARK    8  A    between atoms: C_20  and  C_21
REMARK    9  A    between atoms: C_20  and  C_22
REMARK   10  A    between atoms: C_20  and  C_23
REMARK   11  A    between atoms: C_24  and  C_25
REMARK   12  A    between atoms: C_24  and  C_26
REMARK                            x       y       z     vdW  Elec       q    Type
REMARK                         _______ _______ _______ _____ _____    ______ ____
ROOT
ATOM      1  C   UNL     1       2.403   3.377   5.312  0.00  0.00    +0.045 C 
ATOM      2  C   UNL     1       2.410   1.876   5.186  0.00  0.00    -0.026 A 
ATOM      3  C   UNL     1       3.140   1.128   6.027  0.00  0.00    -0.008 A 
ATOM      4  S   UNL     1       2.821  -0.539   5.482  0.00  0.00    -0.073 S 
ATOM      5  C   UNL     1       1.715  -0.184   4.141  0.00  0.00    +0.117 A 
ATOM      6  C   UNL     1       1.625   1.221   4.154  0.00  0.00    +0.075 A 
ATOM      7  C   UNL     1       0.783   1.800   3.153  0.00  0.00    +0.263 A 
ATOM      8  O   UNL     1       0.648   3.010   3.083  0.00  0.00    -0.267 OA
ATOM      9  N   UNL     1       0.139   0.992   2.291  0.00  0.00    -0.285 N 
ATOM     10  C   UNL     1       0.283  -0.364   2.349  0.00  0.00    +0.173 A 
ATOM     11  N   UNL     1       1.055  -0.924   3.258  0.00  0.00    -0.216 NA
ATOM     12  C   UNL     1       4.020   1.587   7.161  0.00  0.00    +0.052 C 
ENDROOT
BRANCH   9  13
ATOM     13  C   UNL     1      -0.729   1.579   1.267  0.00  0.00    +0.087 C 
ATOM     14  C   UNL     1      -1.835   2.393   1.941  0.00  0.00    +0.031 C 
ATOM     15  C   UNL     1       0.098   2.495   0.362  0.00  0.00    +0.031 C 
ENDBRANCH   9  13
BRANCH  10  16
ATOM     16  S   UNL     1      -0.577  -1.380   1.194  0.00  0.00    -0.078 S 
BRANCH  16  17
ATOM     17  C   UNL     1      -0.021  -3.014   1.738  0.00  0.00    +0.173 C 
BRANCH  17  18
ATOM     18  C   UNL     1      -0.648  -4.073   0.868  0.00  0.00    +0.231 C 
ATOM     19  O   UNL     1      -1.396  -3.755  -0.031  0.00  0.00    -0.274 OA
ATOM     20  N   UNL     1      -0.376  -5.375   1.090  0.00  0.00    -0.239 N 
ATOM     21  C   UNL     1      -0.936  -6.322   0.312  0.00  0.00    +0.306 C 
ATOM     22  O   UNL     1      -1.687  -6.002  -0.590  0.00  0.00    -0.252 OA
ATOM     23  N   UNL     1      -0.665  -7.623   0.533  0.00  0.00    -0.294 N 
ATOM     24  H   UNL     1       0.223  -5.630   1.809  0.00  0.00    +0.159 HD
ATOM     25  H   UNL     1      -0.066  -7.878   1.252  0.00  0.00    +0.151 HD
BRANCH  23  26
ATOM     26  C   UNL     1      -1.274  -8.653  -0.312  0.00  0.00    +0.028 C 
ATOM     27  C   UNL     1      -0.856  -8.430  -1.768  0.00  0.00    +0.031 C 
ATOM     28  C   UNL     1      -0.804 -10.034   0.147  0.00  0.00    +0.031 C 
ATOM     29  C   UNL     1      -2.798  -8.569  -0.201  0.00  0.00    +0.031 C 
ENDBRANCH  23  26
ENDBRANCH  17  18
ENDBRANCH  16  17
ENDBRANCH  10  16
TORSDOF 5
