REMARK  Name = ZINC02313944
REMARK  12 active torsions:
REMARK  status: ('A' for Active; 'I' for Inactive)
REMARK    1  A    between atoms: C_1  and  C_2
REMARK    2  A    between atoms: C_2  and  O_3
REMARK    3  A    between atoms: O_3  and  C_4
REMARK    4  A    between atoms: C_4  and  C_5
REMARK    5  A    between atoms: C_5  and  C_6
REMARK    6  A    between atoms: C_6  and  N_7
REMARK    7  A    between atoms: C_8  and  N_36
REMARK    8  A    between atoms: C_9  and  C_20
REMARK    9  A    between atoms: N_22  and  C_23
REMARK   10  A    between atoms: C_24  and  C_32
REMARK   11  A    between atoms: C_32  and  O_34
REMARK   12  A    between atoms: O_34  and  C_35
REMARK                            x       y       z     vdW  Elec       q    Type
REMARK                         _______ _______ _______ _____ _____    ______ ____
ROOT
ATOM      1  N   UNL     1      -4.415  -4.263   0.021  0.00  0.00    -0.312 N 
ATOM      2  C   UNL     1      -5.150  -4.473   1.147  0.00  0.00    +0.112 A 
ATOM      3  C   UNL     1      -6.451  -4.838   0.817  0.00  0.00    +0.102 A 
ATOM      4  C   UNL     1      -6.520  -4.853  -0.653  0.00  0.00    +0.098 A 
ATOM      5  C   UNL     1      -5.180  -4.469  -1.108  0.00  0.00    +0.160 A 
ATOM      6  N   UNL     1      -4.934  -4.390  -2.398  0.00  0.00    -0.226 NA
ATOM      7  C   UNL     1      -5.905  -4.656  -3.281  0.00  0.00    +0.089 A 
ATOM      8  C   UNL     1      -5.649  -4.574  -4.662  0.00  0.00    +0.030 A 
ATOM      9  C   UNL     1      -6.642  -4.847  -5.552  0.00  0.00    +0.002 A 
ATOM     10  C   UNL     1      -7.915  -5.209  -5.117  0.00  0.00    +0.002 A 
ATOM     11  C   UNL     1      -8.201  -5.299  -3.790  0.00  0.00    +0.028 A 
ATOM     12  C   UNL     1      -7.200  -5.024  -2.839  0.00  0.00    +0.065 A 
ATOM     13  N   UNL     1      -7.467  -5.117  -1.530  0.00  0.00    -0.350 N 
ATOM     14  H   UNL     1      -8.355  -5.367  -1.230  0.00  0.00    +0.166 HD
ENDROOT
BRANCH   3  15
ATOM     15  C   UNL     1      -7.504  -5.137   1.719  0.00  0.00    +0.254 C 
ATOM     16  O   UNL     1      -8.241  -4.250   2.110  0.00  0.00    -0.270 OA
ATOM     17  N   UNL     1      -7.687  -6.402   2.144  0.00  0.00    -0.275 N 
ATOM     18  H   UNL     1      -7.100  -7.109   1.833  0.00  0.00    +0.156 HD
BRANCH  17  19
ATOM     19  C   UNL     1      -8.715  -6.694   3.025  0.00  0.00    +0.087 A 
ATOM     20  C   UNL     1      -9.048  -7.927   3.569  0.00  0.00    +0.091 A 
ATOM     21  C   UNL     1     -10.182  -7.966   4.477  0.00  0.00    -0.021 A 
ATOM     22  C   UNL     1     -10.774  -6.769   4.674  0.00  0.00    -0.004 A 
ATOM     23  S   UNL     1      -9.840  -5.638   3.686  0.00  0.00    -0.077 S 
ATOM     24  C   UNL     1     -11.958  -6.484   5.546  0.00  0.00    +0.043 C 
ATOM     25  C   UNL     1     -12.636  -7.818   5.891  0.00  0.00    +0.005 C 
ATOM     26  C   UNL     1     -11.567  -8.812   6.353  0.00  0.00    +0.005 C 
ATOM     27  C   UNL     1     -10.691  -9.223   5.167  0.00  0.00    +0.037 C 
BRANCH  20  28
ATOM     28  C   UNL     1      -8.290  -9.135   3.242  0.00  0.00    +0.342 C 
ATOM     29  O   UNL     1      -7.331  -9.454   3.918  0.00  0.00    -0.245 OA
BRANCH  28  30
ATOM     30  O   UNL     1      -8.656  -9.896   2.189  0.00  0.00    -0.464 OA
ATOM     31  C   UNL     1      -7.871 -11.062   1.928  0.00  0.00    +0.280 C 
ENDBRANCH  28  30
ENDBRANCH  20  28
ENDBRANCH  17  19
ENDBRANCH   3  15
BRANCH   2  32
ATOM     32  N   UNL     1      -4.675  -4.343   2.426  0.00  0.00    -0.344 N 
ATOM     33  H   UNL     1      -3.753  -4.084   2.577  0.00  0.00    +0.144 HD
ATOM     34  H   UNL     1      -5.262  -4.510   3.180  0.00  0.00    +0.144 HD
ENDBRANCH   2  32
BRANCH   1  35
ATOM     35  C   UNL     1      -3.005  -3.866   0.010  0.00  0.00    +0.127 C 
BRANCH  35  36
ATOM     36  C   UNL     1      -2.905  -2.339   0.017  0.00  0.00    +0.050 C 
BRANCH  36  37
ATOM     37  C   UNL     1      -1.432  -1.925   0.005  0.00  0.00    +0.161 C 
BRANCH  37  38
ATOM     38  O   UNL     1      -1.339  -0.499   0.012  0.00  0.00    -0.380 OA
BRANCH  38  40
ATOM     39  C   UNL     1      -0.019   1.526   0.010  0.00  0.00    +0.034 C 
ATOM     40  C   UNL     1       0.002  -0.004   0.002  0.00  0.00    +0.156 C 
ENDBRANCH  38  40
ENDBRANCH  37  38
ENDBRANCH  36  37
ENDBRANCH  35  36
ENDBRANCH   1  35
TORSDOF 10
