REMARK  Name = ZINC36152307
REMARK  1 active torsions:
REMARK  status: ('A' for Active; 'I' for Inactive)
REMARK    1  A    between atoms: C_5  and  C_7
REMARK                            x       y       z     vdW  Elec       q    Type
REMARK                         _______ _______ _______ _____ _____    ______ ____
ROOT
ATOM      1  C   UNL     1       1.249  -2.161  -0.022  0.00  0.00    +0.185 A 
ATOM      2  N   UNL     1       2.317  -2.921  -0.124  0.00  0.00    -0.127 NA
ATOM      3  N   UNL     1       1.979  -4.165  -0.086  0.00  0.00    -0.121 NA
ATOM      4  C   UNL     1       0.689  -4.262   0.043  0.00  0.00    +0.209 A 
ATOM      5  N   UNL     1       0.164  -2.997   0.080  0.00  0.00    -0.221 N 
ATOM      6  N   UNL     1      -1.145  -2.668   0.171  0.00  0.00    -0.277 N 
ATOM      7  C   UNL     1      -2.010  -3.666   0.808  0.00  0.00    +0.101 C 
ATOM      8  C   UNL     1      -3.455  -3.136   0.750  0.00  0.00    +0.025 C 
ATOM      9  C   UNL     1      -3.802  -2.834  -0.710  0.00  0.00    +0.002 C 
ATOM     10  C   UNL     1      -3.700  -4.107  -1.550  0.00  0.00    +0.001 C 
ATOM     11  C   UNL     1      -2.288  -4.690  -1.446  0.00  0.00    +0.016 C 
ATOM     12  C   UNL     1      -1.964  -4.995   0.035  0.00  0.00    +0.076 C 
ATOM     13  S   UNL     1      -0.319  -5.708   0.173  0.00  0.00    -0.079 S 
ATOM     14  H   UNL     1      -1.261  -1.762   0.599  0.00  0.00    +0.167 HD
ENDROOT
BRANCH   1  19
ATOM     15  C   UNL     1       0.279   1.385  -0.790  0.00  0.00    +0.001 A 
ATOM     16  C   UNL     1       1.170   2.087   0.002  0.00  0.00    +0.003 A 
ATOM     17  C   UNL     1       2.088   1.413   0.786  0.00  0.00    +0.039 A 
ATOM     18  C   UNL     1       2.120   0.031   0.784  0.00  0.00    +0.134 A 
ATOM     19  C   UNL     1       1.222  -0.683  -0.014  0.00  0.00    +0.056 A 
ATOM     20  C   UNL     1       0.299   0.006  -0.802  0.00  0.00    +0.014 A 
ATOM     21  F   UNL     1       3.017  -0.627   1.550  0.00  0.00    -0.205 F 
ENDBRANCH   1  19
TORSDOF 1
