REMARK  Name = ZINC63125336
REMARK  5 active torsions:
REMARK  status: ('A' for Active; 'I' for Inactive)
REMARK    1  A    between atoms: C_1  and  N_2
REMARK    2  A    between atoms: C_5  and  C_8
REMARK    3  A    between atoms: C_8  and  N_9
REMARK    4  A    between atoms: N_9  and  C_10
REMARK    5  A    between atoms: C_17  and  C_19
REMARK                            x       y       z     vdW  Elec       q    Type
REMARK                         _______ _______ _______ _____ _____    ______ ____
ROOT
ATOM      1  N   UNL     1       2.460  -4.926   0.746  0.00  0.00    -0.288 N 
ATOM      2  C   UNL     1       1.470  -5.414   1.709  0.00  0.00    +0.133 C 
ATOM      3  C   UNL     1       3.424  -5.752   0.294  0.00  0.00    +0.306 C 
ATOM      4  O   UNL     1       4.144  -5.403  -0.622  0.00  0.00    -0.252 OA
ATOM      5  N   UNL     1       3.591  -6.966   0.856  0.00  0.00    -0.262 N 
ATOM      6  C   UNL     1       4.490  -7.981   0.266  0.00  0.00    +0.179 C 
ATOM      7  S   UNL     1       3.797  -9.535   0.983  0.00  0.00    -0.139 S 
ATOM      8  C   UNL     1       3.194  -8.785   2.561  0.00  0.00    +0.105 C 
ATOM      9  C   UNL     1       2.901  -7.342   2.079  0.00  0.00    +0.201 C 
ENDROOT
BRANCH   9  10
ATOM     10  C   UNL     1       3.297  -6.379   3.168  0.00  0.00    +0.377 C 
ATOM     11  O   UNL     1       2.779  -6.457   4.269  0.00  0.00    -0.244 OA
ATOM     12  O   UNL     1       4.136  -5.522   2.948  0.00  0.00    -0.244 OA
ENDBRANCH   9  10
BRANCH   1  13
ATOM     13  C   UNL     1       2.403  -3.540   0.275  0.00  0.00    +0.112 C 
BRANCH  13  18
ATOM     14  C   UNL     1       4.085   0.602   3.816  0.00  0.00    -0.096 C 
ATOM     15  N   UNL     1       3.386  -0.323   2.914  0.00  0.00    +0.378 N 
ATOM     16  C   UNL     1       4.055  -0.329   1.607  0.00  0.00    -0.079 C 
ATOM     17  C   UNL     1       3.284  -1.228   0.639  0.00  0.00    -0.014 C 
ATOM     18  C   UNL     1       3.240  -2.653   1.199  0.00  0.00    +0.003 C 
ATOM     19  C   UNL     1       2.607  -2.624   2.593  0.00  0.00    -0.014 C 
ATOM     20  C   UNL     1       3.404  -1.673   3.489  0.00  0.00    -0.079 C 
ATOM     21  H   UNL     1       2.430  -0.020   2.798  0.00  0.00    -0.082 HD
ENDBRANCH  13  18
ENDBRANCH   1  13
TORSDOF 3
