REMARK  Name = ZINC12878484
REMARK  7 active torsions:
REMARK  status: ('A' for Active; 'I' for Inactive)
REMARK    1  A    between atoms: C_1  and  C_2
REMARK    2  A    between atoms: C_6  and  C_7
REMARK    3  A    between atoms: N_9  and  N_10
REMARK    4  A    between atoms: C_11  and  C_13
REMARK    5  A    between atoms: N_22  and  C_24
REMARK    6  A    between atoms: C_24  and  C_25
REMARK    7  A    between atoms: C_24  and  C_26
REMARK                            x       y       z     vdW  Elec       q    Type
REMARK                         _______ _______ _______ _____ _____    ______ ____
ROOT
ATOM      1  N   UNL     1       2.606  -3.881  -0.044  0.00  0.00    -0.229 N 
ATOM      2  C   UNL     1       1.957  -5.062  -0.044  0.00  0.00    +0.281 C 
ATOM      3  O   UNL     1       0.742  -5.088  -0.033  0.00  0.00    -0.267 OA
ATOM      4  H   UNL     1       3.576  -3.860  -0.054  0.00  0.00    +0.173 HD
ENDROOT
BRANCH   2   5
ATOM      5  C   UNL     1       2.723  -6.324  -0.059  0.00  0.00    +0.155 A 
ATOM      6  C   UNL     1       2.023  -7.619  -0.053  0.00  0.00    +0.020 A 
ATOM      7  C   UNL     1       0.636  -7.726  -0.045  0.00  0.00    +0.011 A 
ATOM      8  C   UNL     1       0.054  -8.976  -0.045  0.00  0.00    +0.001 A 
ATOM      9  C   UNL     1       0.835 -10.124  -0.059  0.00  0.00    +0.001 A 
ATOM     10  C   UNL     1       2.211 -10.041  -0.072  0.00  0.00    +0.014 A 
ATOM     11  C   UNL     1       2.818  -8.789  -0.072  0.00  0.00    +0.050 A 
ATOM     12  C   UNL     1       4.276  -8.608  -0.086  0.00  0.00    +0.275 A 
ATOM     13  O   UNL     1       5.023  -9.570  -0.099  0.00  0.00    -0.266 OA
ATOM     14  N   UNL     1       4.768  -7.353  -0.084  0.00  0.00    -0.226 N 
ATOM     15  N   UNL     1       4.033  -6.306  -0.072  0.00  0.00    -0.163 NA
BRANCH  14  16
ATOM     16  C   UNL     1       6.223  -7.178  -0.097  0.00  0.00    +0.105 C 
ATOM     17  C   UNL     1       6.631  -6.394  -1.346  0.00  0.00    +0.032 C 
ATOM     18  C   UNL     1       6.655  -6.408   1.152  0.00  0.00    +0.032 C 
ENDBRANCH  14  16
ENDBRANCH   2   5
BRANCH   1  21
ATOM     19  C   UNL     1       2.529  -1.501  -0.031  0.00  0.00    +0.267 C 
ATOM     20  O   UNL     1       3.746  -1.475  -0.042  0.00  0.00    -0.268 OA
ATOM     21  N   UNL     1       1.880  -2.683  -0.031  0.00  0.00    -0.230 N 
ATOM     22  H   UNL     1       0.910  -2.703  -0.021  0.00  0.00    +0.173 HD
BRANCH  19  28
ATOM     23  C   UNL     1       3.712   1.364  -0.026  0.00  0.00    +0.045 C 
ATOM     24  C   UNL     1       2.237   1.057  -0.014  0.00  0.00    -0.031 A 
ATOM     25  C   UNL     1       1.297   2.058   0.001  0.00  0.00    +0.011 A 
ATOM     26  C   UNL     1      -0.021   1.729   0.012  0.00  0.00    +0.046 A 
ATOM     27  S   UNL     1       0.002  -0.004   0.002  0.00  0.00    -0.092 S 
ATOM     28  C   UNL     1       1.769  -0.248  -0.016  0.00  0.00    +0.078 A 
ENDBRANCH  19  28
ENDBRANCH   1  21
TORSDOF 4
