REMARK  Name = ZINC16935915
REMARK  7 active torsions:
REMARK  status: ('A' for Active; 'I' for Inactive)
REMARK    1  A    between atoms: C_1  and  C_2
REMARK    2  A    between atoms: C_2  and  N_3
REMARK    3  A    between atoms: C_7  and  C_8
REMARK    4  A    between atoms: C_11  and  O_15
REMARK    5  A    between atoms: C_12  and  O_14
REMARK    6  A    between atoms: N_18  and  C_19
REMARK    7  A    between atoms: C_22  and  O_25
REMARK                            x       y       z     vdW  Elec       q    Type
REMARK                         _______ _______ _______ _____ _____    ______ ____
ROOT
ATOM      1  N   UNL     1       4.519   0.723  -1.280  0.00  0.00    -0.246 N 
ATOM      2  C   UNL     1       5.406   1.345  -2.039  0.00  0.00    +0.259 C 
ATOM      3  O   UNL     1       6.547   0.937  -2.148  0.00  0.00    -0.269 OA
ATOM      4  C   UNL     1       4.948   2.554  -2.749  0.00  0.00    +0.078 C 
ATOM      5  C   UNL     1       5.635   3.376  -3.582  0.00  0.00    +0.028 C 
ATOM      6  S   UNL     1       3.242   2.642  -2.223  0.00  0.00    -0.049 S 
ATOM      7  C   UNL     1       3.231   1.200  -1.171  0.00  0.00    +0.168 C 
ATOM      8  N   UNL     1       2.235   0.709  -0.468  0.00  0.00    -0.225 NA
ENDROOT
BRANCH   5   9
ATOM      9  C   UNL     1       4.931   4.437  -4.313  0.00  0.00    -0.020 A 
ATOM     10  C   UNL     1       5.650   5.497  -4.878  0.00  0.00    +0.012 A 
ATOM     11  C   UNL     1       4.986   6.492  -5.563  0.00  0.00    +0.050 A 
ATOM     12  C   UNL     1       3.605   6.446  -5.695  0.00  0.00    +0.158 A 
ATOM     13  C   UNL     1       2.881   5.393  -5.136  0.00  0.00    +0.159 A 
ATOM     14  C   UNL     1       3.538   4.389  -4.452  0.00  0.00    +0.057 A 
BRANCH  13  15
ATOM     15  O   UNL     1       1.528   5.353  -5.268  0.00  0.00    -0.503 OA
ATOM     16  H   UNL     1       1.224   4.882  -6.056  0.00  0.00    +0.292 HD
ENDBRANCH  13  15
BRANCH  12  17
ATOM     17  O   UNL     1       2.956   7.429  -6.372  0.00  0.00    -0.503 OA
ATOM     18  H   UNL     1       2.856   7.254  -7.318  0.00  0.00    +0.292 HD
ENDBRANCH  12  17
ENDBRANCH   5   9
BRANCH   8  19
ATOM     19  C   UNL     1       1.014   1.329  -0.485  0.00  0.00    +0.067 A 
ATOM     20  C   UNL     1      -0.153   0.575  -0.627  0.00  0.00    +0.031 A 
ATOM     21  C   UNL     1      -1.380   1.204  -0.649  0.00  0.00    +0.047 A 
ATOM     22  C   UNL     1      -1.457   2.584  -0.519  0.00  0.00    +0.117 A 
ATOM     23  C   UNL     1      -0.300   3.338  -0.378  0.00  0.00    +0.047 A 
ATOM     24  C   UNL     1       0.931   2.718  -0.361  0.00  0.00    +0.031 A 
BRANCH  22  25
ATOM     25  O   UNL     1      -2.670   3.199  -0.536  0.00  0.00    -0.507 OA
ATOM     26  H   UNL     1      -2.967   3.459  -1.419  0.00  0.00    +0.292 HD
ENDBRANCH  22  25
ENDBRANCH   8  19
BRANCH   1  28
ATOM     27  C   UNL     1       4.651  -1.715  -1.420  0.00  0.00    +0.025 C 
ATOM     28  C   UNL     1       4.910  -0.485  -0.549  0.00  0.00    +0.112 C 
ENDBRANCH   1  28
TORSDOF 6
