REMARK  Name = ZINC20207393
REMARK  9 active torsions:
REMARK  status: ('A' for Active; 'I' for Inactive)
REMARK    1  A    between atoms: C_1  and  C_2
REMARK    2  A    between atoms: C_5  and  C_8
REMARK    3  A    between atoms: C_8  and  O_10
REMARK    4  A    between atoms: O_10  and  C_11
REMARK    5  A    between atoms: C_14  and  C_17
REMARK    6  A    between atoms: C_28  and  S_29
REMARK    7  A    between atoms: S_29  and  C_32
REMARK    8  A    between atoms: C_32  and  C_33
REMARK    9  A    between atoms: C_32  and  C_34
REMARK                            x       y       z     vdW  Elec       q    Type
REMARK                         _______ _______ _______ _____ _____    ______ ____
ROOT
ATOM      1  C   UNL     1       1.011 -10.640   0.795  0.00  0.00    +0.024 C 
ATOM      2  C   UNL     1       0.746 -11.435   1.887  0.00  0.00    +0.079 C 
ATOM      3  C   UNL     1       0.597 -12.914   1.766  0.00  0.00    +0.138 C 
ATOM      4  N   UNL     1       1.250 -13.634   0.895  0.00  0.00    -0.284 NA
ATOM      5  N   UNL     1      -0.320 -13.456   2.689  0.00  0.00    -0.201 N 
ATOM      6  C   UNL     1      -0.583 -12.750   3.845  0.00  0.00    +0.183 C 
ATOM      7  N   UNL     1      -0.139 -11.552   4.149  0.00  0.00    -0.152 NA
ATOM      8  C   UNL     1       0.600 -10.869   3.251  0.00  0.00    +0.273 C 
ATOM      9  O   UNL     1       1.131  -9.812   3.549  0.00  0.00    -0.268 OA
ATOM     10  S   UNL     1      -1.584 -13.775   4.697  0.00  0.00    +0.049 S 
ATOM     11  N   UNL     1      -1.744 -15.002   3.567  0.00  0.00    -0.174 NA
ATOM     12  C   UNL     1      -0.991 -14.627   2.580  0.00  0.00    +0.257 C 
ATOM     13  H   UNL     1       1.871 -13.210   0.283  0.00  0.00    +0.188 HD
ENDROOT
BRANCH   1  17
ATOM     14  C   UNL     1       0.897  -6.426   1.169  0.00  0.00    +0.132 A 
ATOM     15  C   UNL     1      -0.001  -7.209   1.886  0.00  0.00    +0.047 A 
ATOM     16  C   UNL     1       0.031  -8.575   1.769  0.00  0.00    +0.011 A 
ATOM     17  C   UNL     1       0.971  -9.181   0.924  0.00  0.00    -0.024 A 
ATOM     18  C   UNL     1       1.873  -8.386   0.203  0.00  0.00    +0.011 A 
ATOM     19  C   UNL     1       1.829  -7.021   0.325  0.00  0.00    +0.047 A 
BRANCH  14  20
ATOM     20  O   UNL     1       0.861  -5.074   1.289  0.00  0.00    -0.422 OA
BRANCH  20  21
ATOM     21  C   UNL     1       1.375  -4.524   2.406  0.00  0.00    +0.344 C 
ATOM     22  O   UNL     1       1.769  -5.236   3.308  0.00  0.00    -0.245 OA
BRANCH  21  27
ATOM     23  C   UNL     1       1.703   1.198   2.908  0.00  0.00    +0.044 C 
ATOM     24  C   UNL     1       1.617  -0.301   2.777  0.00  0.00    -0.050 A 
ATOM     25  C   UNL     1       2.066  -1.109   3.806  0.00  0.00    +0.004 A 
ATOM     26  C   UNL     1       1.990  -2.482   3.692  0.00  0.00    +0.015 A 
ATOM     27  C   UNL     1       1.458  -3.055   2.535  0.00  0.00    +0.059 A 
ATOM     28  C   UNL     1       1.007  -2.233   1.501  0.00  0.00    +0.015 A 
ATOM     29  C   UNL     1       1.083  -0.862   1.630  0.00  0.00    +0.004 A 
ENDBRANCH  21  27
ENDBRANCH  20  21
ENDBRANCH  14  20
ENDBRANCH   1  17
BRANCH  12  30
ATOM     30  S   UNL     1      -0.844 -15.618   1.131  0.00  0.00    +0.031 S 
ATOM     31  O   UNL     1      -1.973 -16.480   1.165  0.00  0.00    -0.166 OA
ATOM     32  O   UNL     1      -0.675 -14.687   0.070  0.00  0.00    -0.166 OA
BRANCH  30  33
ATOM     33  C   UNL     1       0.679 -16.573   1.371  0.00  0.00    +0.133 C 
ATOM     34  C   UNL     1       0.550 -17.430   2.632  0.00  0.00    +0.032 C 
ATOM     35  C   UNL     1       0.910 -17.480   0.160  0.00  0.00    +0.032 C 
ENDBRANCH  30  33
ENDBRANCH  12  30
TORSDOF 6
