REMARK  Name = ZINC67550733
REMARK  8 active torsions:
REMARK  status: ('A' for Active; 'I' for Inactive)
REMARK    1  A    between atoms: C_1  and  C_2
REMARK    2  A    between atoms: N_6  and  C_7
REMARK    3  A    between atoms: C_11  and  N_13
REMARK    4  A    between atoms: N_16  and  C_17
REMARK    5  A    between atoms: N_16  and  C_18
REMARK    6  A    between atoms: C_18  and  C_20
REMARK    7  A    between atoms: C_18  and  C_21
REMARK    8  A    between atoms: C_25  and  O_27
REMARK                            x       y       z     vdW  Elec       q    Type
REMARK                         _______ _______ _______ _____ _____    ______ ____
ROOT
ATOM      1  N   UNL     1      -1.036  -1.899   5.793  0.00  0.00    -0.269 N 
ATOM      2  C   UNL     1      -1.058  -1.370   7.033  0.00  0.00    +0.307 C 
ATOM      3  O   UNL     1      -0.396  -0.381   7.284  0.00  0.00    -0.252 OA
ATOM      4  N   UNL     1      -1.814  -1.936   7.994  0.00  0.00    -0.282 N 
ATOM      5  C   UNL     1      -2.612  -3.127   7.691  0.00  0.00    +0.134 C 
ATOM      6  H   UNL     1      -1.620  -2.641   5.572  0.00  0.00    +0.156 HD
ENDROOT
BRANCH   1  11
ATOM      7  C   UNL     1       0.310  -0.842   2.534  0.00  0.00    +0.067 A 
ATOM      8  C   UNL     1       1.550  -0.344   2.914  0.00  0.00    +0.028 A 
ATOM      9  C   UNL     1       1.926  -0.363   4.244  0.00  0.00    +0.004 A 
ATOM     10  C   UNL     1       1.071  -0.878   5.199  0.00  0.00    +0.023 A 
ATOM     11  C   UNL     1      -0.170  -1.377   4.825  0.00  0.00    +0.037 A 
ATOM     12  C   UNL     1      -0.553  -1.354   3.492  0.00  0.00    +0.051 A 
BRANCH   7  18
ATOM     13  C   UNL     1       1.074   1.366   0.547  0.00  0.00    +0.066 C 
ATOM     14  C   UNL     1       0.248   0.134   0.283  0.00  0.00    +0.042 A 
ATOM     15  C   UNL     1      -0.304  -0.218  -0.901  0.00  0.00    +0.044 A 
ATOM     16  C   UNL     1      -0.987  -1.425  -0.717  0.00  0.00    +0.135 A 
ATOM     17  N   UNL     1      -0.850  -1.786   0.534  0.00  0.00    -0.175 NA
ATOM     18  N   UNL     1      -0.070  -0.822   1.185  0.00  0.00    -0.237 N 
ENDBRANCH   7  18
ENDBRANCH   1  11
BRANCH   4  19
ATOM     19  C   UNL     1      -1.838  -1.361   9.341  0.00  0.00    +0.104 C 
ATOM     20  C   UNL     1      -1.425  -2.427  10.358  0.00  0.00    +0.033 C 
BRANCH  19  21
ATOM     21  C   UNL     1      -3.230  -0.879   9.657  0.00  0.00    -0.024 A 
ATOM     22  C   UNL     1      -3.704  -0.938  10.955  0.00  0.00    +0.006 A 
ATOM     23  C   UNL     1      -4.981  -0.497  11.248  0.00  0.00    +0.004 A 
ATOM     24  C   UNL     1      -5.787   0.004  10.244  0.00  0.00    +0.045 A 
ATOM     25  C   UNL     1      -5.314   0.065   8.941  0.00  0.00    +0.117 A 
ATOM     26  C   UNL     1      -4.030  -0.373   8.651  0.00  0.00    +0.050 A 
BRANCH  25  27
ATOM     27  O   UNL     1      -6.105   0.557   7.952  0.00  0.00    -0.507 OA
ATOM     28  H   UNL     1      -6.019   1.511   7.817  0.00  0.00    +0.292 HD
ENDBRANCH  25  27
ENDBRANCH  19  21
ENDBRANCH   4  19
TORSDOF 5
