REMARK  Name = ZINC63908587
REMARK  9 active torsions:
REMARK  status: ('A' for Active; 'I' for Inactive)
REMARK    1  A    between atoms: C_1  and  C_2
REMARK    2  A    between atoms: C_4  and  C_10
REMARK    3  A    between atoms: C_5  and  C_9
REMARK    4  A    between atoms: N_7  and  C_8
REMARK    5  A    between atoms: C_10  and  C_11
REMARK    6  A    between atoms: N_13  and  C_14
REMARK    7  A    between atoms: C_14  and  C_15
REMARK    8  A    between atoms: C_15  and  C_17
REMARK    9  A    between atoms: C_15  and  C_23
REMARK                            x       y       z     vdW  Elec       q    Type
REMARK                         _______ _______ _______ _____ _____    ______ ____
ROOT
ATOM      1  C   UNL     1      -2.469  -2.069  -6.233  0.00  0.00    +0.064 C 
ENDROOT
BRANCH   1   2
ATOM      2  C   UNL     1      -3.568  -3.020  -6.630  0.00  0.00    -0.033 C 
ATOM      3  C   UNL     1      -4.800  -2.695  -7.083  0.00  0.00    -0.000 A 
ATOM      4  C   UNL     1      -5.461  -1.408  -7.331  0.00  0.00    +0.010 A 
ATOM      5  C   UNL     1      -6.731  -1.402  -7.796  0.00  0.00    +0.001 A 
ATOM      6  C   UNL     1      -7.431  -2.591  -8.046  0.00  0.00    +0.002 A 
ATOM      7  C   UNL     1      -6.891  -3.811  -7.842  0.00  0.00    +0.026 A 
ATOM      8  C   UNL     1      -5.561  -3.936  -7.355  0.00  0.00    +0.043 A 
ATOM      9  N   UNL     1      -4.827  -4.987  -7.081  0.00  0.00    -0.380 N 
ATOM     10  C   UNL     1      -3.514  -4.532  -6.609  0.00  0.00    +0.145 C 
ATOM     11  H   UNL     1      -5.104  -5.912  -7.178  0.00  0.00    +0.160 HD
ENDBRANCH   1   2
BRANCH   1  12
ATOM     12  C   UNL     1      -1.262  -2.304  -7.104  0.00  0.00    -0.039 A 
ATOM     13  C   UNL     1      -0.649  -3.544  -7.116  0.00  0.00    +0.004 A 
ATOM     14  C   UNL     1       0.458  -3.760  -7.915  0.00  0.00    +0.000 A 
ATOM     15  C   UNL     1       0.953  -2.737  -8.702  0.00  0.00    +0.000 A 
ATOM     16  C   UNL     1       0.340  -1.498  -8.691  0.00  0.00    +0.000 A 
ATOM     17  C   UNL     1      -0.770  -1.283  -7.896  0.00  0.00    +0.004 A 
ENDBRANCH   1  12
BRANCH   1  18
ATOM     18  C   UNL     1      -2.095  -2.305  -4.769  0.00  0.00    +0.116 C 
BRANCH  18  21
ATOM     19  C   UNL     1      -0.634  -1.315  -3.088  0.00  0.00    +0.217 C 
ATOM     20  O   UNL     1      -1.018  -2.155  -2.302  0.00  0.00    -0.275 OA
ATOM     21  N   UNL     1      -1.112  -1.303  -4.348  0.00  0.00    -0.314 N 
ATOM     22  H   UNL     1      -0.805  -0.631  -4.977  0.00  0.00    +0.149 HD
BRANCH  19  23
ATOM     23  C   UNL     1       0.377  -0.284  -2.656  0.00  0.00    +0.129 C 
BRANCH  23  26
ATOM     24  C   UNL     1      -0.019   1.526   0.010  0.00  0.00    +0.030 C 
ATOM     25  C   UNL     1       0.002  -0.004   0.002  0.00  0.00    +0.100 C 
ATOM     26  C   UNL     1       0.745  -0.517  -1.213  0.00  0.00    -0.025 C 
ATOM     27  C   UNL     1       1.776  -1.206  -0.766  0.00  0.00    +0.017 C 
ATOM     28  N   UNL     1       1.821  -1.222   0.614  0.00  0.00    -0.282 N 
ATOM     29  N   UNL     1       0.778  -0.516   1.149  0.00  0.00    -0.226 NA
ATOM     30  C   UNL     1      -0.054  -1.371   2.007  0.00  0.00    +0.128 C 
ATOM     31  C   UNL     1       2.781  -1.893  -1.654  0.00  0.00    +0.062 C 
ATOM     32  H   UNL     1       2.501  -1.676   1.135  0.00  0.00    +0.166 HD
ENDBRANCH  23  26
ENDBRANCH  19  23
ENDBRANCH  18  21
ENDBRANCH   1  18
TORSDOF 6
