REMARK  Name = ZINC14041735
REMARK  13 active torsions:
REMARK  status: ('A' for Active; 'I' for Inactive)
REMARK    1  A    between atoms: C_1  and  C_2
REMARK    2  A    between atoms: C_2  and  C_3
REMARK    3  A    between atoms: C_2  and  C_4
REMARK    4  A    between atoms: C_2  and  N_5
REMARK    5  A    between atoms: C_6  and  C_8
REMARK    6  A    between atoms: C_13  and  N_14
REMARK    7  A    between atoms: N_14  and  C_15
REMARK    8  A    between atoms: C_15  and  N_17
REMARK    9  A    between atoms: C_18  and  C_20
REMARK   10  A    between atoms: C_23  and  O_26
REMARK   11  A    between atoms: O_26  and  C_27
REMARK   12  A    between atoms: C_27  and  C_28
REMARK   13  A    between atoms: C_28  and  C_29
REMARK                            x       y       z     vdW  Elec       q    Type
REMARK                         _______ _______ _______ _____ _____    ______ ____
ROOT
ATOM      1  N   UNL     1      -5.093   4.870   0.423  0.00  0.00    -0.264 N 
ATOM      2  C   UNL     1      -6.285   5.464   0.627  0.00  0.00    +0.250 C 
ATOM      3  O   UNL     1      -7.278   4.788   0.813  0.00  0.00    -0.270 OA
ATOM      4  H   UNL     1      -4.301   5.409   0.275  0.00  0.00    +0.157 HD
ENDROOT
BRANCH   2   5
ATOM      5  C   UNL     1      -6.386   6.936   0.624  0.00  0.00    +0.037 A 
ATOM      6  C   UNL     1      -5.244   7.716   0.416  0.00  0.00    +0.016 A 
ATOM      7  C   UNL     1      -5.343   9.089   0.408  0.00  0.00    +0.046 A 
ATOM      8  C   UNL     1      -6.574   9.700   0.619  0.00  0.00    +0.121 A 
ATOM      9  C   UNL     1      -7.710   8.929   0.832  0.00  0.00    +0.046 A 
ATOM     10  C   UNL     1      -7.621   7.555   0.835  0.00  0.00    +0.016 A 
BRANCH   8  11
ATOM     11  O   UNL     1      -6.666  11.054   0.617  0.00  0.00    -0.492 OA
BRANCH  11  12
ATOM     12  C   UNL     1      -5.459  11.786   0.392  0.00  0.00    +0.233 C 
BRANCH  12  13
ATOM     13  C   UNL     1      -5.759  13.286   0.424  0.00  0.00    +0.076 C 
BRANCH  13  14
ATOM     14  C   UNL     1      -4.487  14.058   0.187  0.00  0.00    -0.044 A 
ATOM     15  C   UNL     1      -3.696  14.433   1.258  0.00  0.00    +0.004 A 
ATOM     16  C   UNL     1      -2.527  15.137   1.040  0.00  0.00    +0.000 A 
ATOM     17  C   UNL     1      -2.152  15.475  -0.247  0.00  0.00    +0.000 A 
ATOM     18  C   UNL     1      -2.946  15.104  -1.317  0.00  0.00    +0.000 A 
ATOM     19  C   UNL     1      -4.113  14.396  -1.100  0.00  0.00    +0.004 A 
ENDBRANCH  13  14
ENDBRANCH  12  13
ENDBRANCH  11  12
ENDBRANCH   8  11
ENDBRANCH   2   5
BRANCH   1  20
ATOM     20  C   UNL     1      -5.002   3.525   0.426  0.00  0.00    +0.141 C 
ATOM     21  S   UNL     1      -6.400   2.572   0.688  0.00  0.00    -0.018 S 
BRANCH  20  22
ATOM     22  N   UNL     1      -3.810   2.930   0.222  0.00  0.00    -0.296 N 
ATOM     23  H   UNL     1      -3.006   3.468   0.147  0.00  0.00    +0.154 HD
BRANCH  22  29
ATOM     24  C   UNL     1      -2.727   0.842   0.801  0.00  0.00    +0.058 A 
ATOM     25  C   UNL     1      -2.657  -0.549   0.685  0.00  0.00    +0.015 A 
ATOM     26  C   UNL     1      -3.579  -1.221  -0.087  0.00  0.00    +0.001 A 
ATOM     27  C   UNL     1      -4.570  -0.524  -0.760  0.00  0.00    +0.002 A 
ATOM     28  C   UNL     1      -4.649   0.850  -0.659  0.00  0.00    +0.024 A 
ATOM     29  C   UNL     1      -3.732   1.544   0.119  0.00  0.00    +0.045 A 
BRANCH  24  31
ATOM     30  N   UNL     1      -0.846   0.883   2.364  0.00  0.00    -0.307 N 
ATOM     31  C   UNL     1      -1.747   1.567   1.631  0.00  0.00    +0.246 C 
ATOM     32  O   UNL     1      -1.752   2.783   1.654  0.00  0.00    -0.270 OA
ATOM     33  H   UNL     1      -0.843  -0.087   2.345  0.00  0.00    +0.150 HD
BRANCH  30  35
ATOM     34  C   UNL     1      -0.603   2.462   4.216  0.00  0.00    +0.031 C 
ATOM     35  C   UNL     1       0.131   1.604   3.183  0.00  0.00    +0.026 C 
ATOM     36  C   UNL     1       1.033   0.600   3.902  0.00  0.00    +0.031 C 
ATOM     37  C   UNL     1       0.983   2.504   2.286  0.00  0.00    +0.031 C 
ENDBRANCH  30  35
ENDBRANCH  24  31
ENDBRANCH  22  29
ENDBRANCH  20  22
ENDBRANCH   1  20
TORSDOF 10
