REMARK  Name = ZINC20588865
REMARK  8 active torsions:
REMARK  status: ('A' for Active; 'I' for Inactive)
REMARK    1  A    between atoms: C_1  and  S_2
REMARK    2  A    between atoms: S_2  and  C_3
REMARK    3  A    between atoms: C_3  and  C_4
REMARK    4  A    between atoms: C_4  and  C_5
REMARK    5  A    between atoms: C_5  and  C_7
REMARK    6  A    between atoms: C_5  and  N_24
REMARK    7  A    between atoms: C_25  and  C_27
REMARK    8  A    between atoms: C_27  and  C_28
REMARK                            x       y       z     vdW  Elec       q    Type
REMARK                         _______ _______ _______ _____ _____    ______ ____
ROOT
ATOM      1  C   UNL     1      -3.445  -3.866  -0.227  0.00  0.00    +0.236 C 
ATOM      2  O   UNL     1      -4.034  -4.578   0.558  0.00  0.00    -0.274 OA
ATOM      3  N   UNL     1      -2.870  -4.401  -1.322  0.00  0.00    -0.300 N 
ATOM      4  C   UNL     1      -2.057  -3.572  -2.222  0.00  0.00    +0.110 C 
ATOM      5  C   UNL     1      -0.686  -4.234  -2.396  0.00  0.00    +0.047 C 
ATOM      6  C   UNL     1      -0.874  -5.676  -2.866  0.00  0.00    +0.064 C 
ATOM      7  C   UNL     1      -1.663  -6.463  -1.819  0.00  0.00    +0.047 C 
ATOM      8  C   UNL     1      -3.040  -5.827  -1.636  0.00  0.00    +0.110 C 
ATOM      9  C   UNL     1       0.469  -6.321  -3.081  0.00  0.00    +0.057 A 
ATOM     10  C   UNL     1       0.773  -7.082  -4.158  0.00  0.00    +0.039 A 
ATOM     11  N   UNL     1       2.036  -7.488  -4.033  0.00  0.00    -0.349 N 
ATOM     12  C   UNL     1       2.531  -7.012  -2.919  0.00  0.00    +0.171 A 
ATOM     13  N   UNL     1       1.579  -6.277  -2.298  0.00  0.00    -0.348 N 
ATOM     14  H   UNL     1       1.671  -5.808  -1.454  0.00  0.00    +0.166 HD
ATOM     15  C   UNL     1      -0.213  -7.372  -5.263  0.00  0.00    +0.070 C 
ATOM     16  C   UNL     1      -1.616  -7.027  -4.746  0.00  0.00    +0.088 C 
ATOM     17  N   UNL     1      -1.606  -5.686  -4.144  0.00  0.00    -0.305 NA
ATOM     18  H   UNL     1      -2.545  -5.335  -4.025  0.00  0.00    +0.123 HD
ATOM     19  H   UNL     1       2.512  -8.048  -4.666  0.00  0.00    +0.166 HD
ENDROOT
BRANCH   1  20
ATOM     20  C   UNL     1      -3.356  -2.382   0.022  0.00  0.00    +0.160 C 
BRANCH  20  21
ATOM     21  N   UNL     1      -4.501  -1.952   0.828  0.00  0.00    -0.304 N 
ATOM     22  C   UNL     1      -4.927  -0.675   0.767  0.00  0.00    +0.218 C 
ATOM     23  O   UNL     1      -4.363   0.118   0.044  0.00  0.00    -0.275 OA
ATOM     24  H   UNL     1      -4.952  -2.587   1.407  0.00  0.00    +0.149 HD
BRANCH  22  25
ATOM     25  C   UNL     1      -6.105  -0.233   1.597  0.00  0.00    +0.130 C 
BRANCH  25  26
ATOM     26  C   UNL     1      -6.375   1.228   1.347  0.00  0.00    -0.039 A 
ATOM     27  C   UNL     1      -5.755   2.188   2.124  0.00  0.00    +0.005 A 
ATOM     28  C   UNL     1      -6.003   3.529   1.895  0.00  0.00    +0.020 A 
ATOM     29  C   UNL     1      -6.872   3.909   0.888  0.00  0.00    +0.041 A 
ATOM     30  C   UNL     1      -7.492   2.948   0.111  0.00  0.00    +0.020 A 
ATOM     31  C   UNL     1      -7.239   1.608   0.337  0.00  0.00    +0.005 A 
ATOM     32 CL   UNL     1      -7.184   5.593   0.601  0.00  0.00    -0.084 Cl
ENDBRANCH  25  26
ENDBRANCH  22  25
ENDBRANCH  20  21
BRANCH  20  33
ATOM     33  C   UNL     1      -2.059  -2.067   0.769  0.00  0.00    +0.042 C 
BRANCH  33  34
ATOM     34  C   UNL     1      -1.898  -0.551   0.895  0.00  0.00    +0.071 C 
BRANCH  34  36
ATOM     35  C   UNL     1      -0.319   1.635   1.846  0.00  0.00    +0.084 C 
ATOM     36  S   UNL     1      -0.360  -0.177   1.781  0.00  0.00    -0.164 S 
ENDBRANCH  34  36
ENDBRANCH  33  34
ENDBRANCH  20  33
ENDBRANCH   1  20
TORSDOF 7
