REMARK  Name = ZINC22078003
REMARK  7 active torsions:
REMARK  status: ('A' for Active; 'I' for Inactive)
REMARK    1  A    between atoms: C_1  and  C_2
REMARK    2  A    between atoms: C_2  and  O_3
REMARK    3  A    between atoms: O_3  and  C_4
REMARK    4  A    between atoms: C_6  and  C_11
REMARK    5  A    between atoms: C_9  and  O_10
REMARK    6  A    between atoms: C_11  and  N_12
REMARK    7  A    between atoms: C_20  and  C_30
REMARK                            x       y       z     vdW  Elec       q    Type
REMARK                         _______ _______ _______ _____ _____    ______ ____
ROOT
ATOM      1  N   UNL     1      -0.723   1.572  -1.182  0.00  0.00    +0.388 N 
ATOM      2  C   UNL     1      -0.640   3.030  -1.283  0.00  0.00    -0.076 C 
ATOM      3  C   UNL     1      -0.879   3.493  -2.716  0.00  0.00    +0.003 C 
ATOM      4  C   UNL     1      -2.290   3.103  -3.157  0.00  0.00    +0.120 C 
ATOM      5  N   UNL     1      -2.261   1.750  -3.731  0.00  0.00    -0.345 N 
ATOM      6  C   UNL     1      -3.127   1.256  -4.667  0.00  0.00    +0.049 A 
ATOM      7  C   UNL     1      -4.218   1.828  -5.319  0.00  0.00    +0.026 A 
ATOM      8  C   UNL     1      -4.892   1.031  -6.229  0.00  0.00    +0.005 A 
ATOM      9  C   UNL     1      -4.512  -0.275  -6.491  0.00  0.00    -0.050 A 
ATOM     10  C   UNL     1      -3.442  -0.863  -5.864  0.00  0.00    +0.013 A 
ATOM     11  C   UNL     1      -2.743  -0.081  -4.940  0.00  0.00    +0.003 A 
ATOM     12  C   UNL     1      -1.593  -0.344  -4.101  0.00  0.00    -0.020 A 
ATOM     13  C   UNL     1      -1.348   0.780  -3.397  0.00  0.00    +0.010 A 
ATOM     14  C   UNL     1      -0.220   0.919  -2.400  0.00  0.00    -0.020 C 
ATOM     15  C   UNL     1       0.289  -0.481  -2.040  0.00  0.00    -0.009 C 
ATOM     16  C   UNL     1       0.557  -1.273  -3.323  0.00  0.00    +0.003 C 
ATOM     17  C   UNL     1      -0.778  -1.609  -3.997  0.00  0.00    +0.037 C 
ATOM     18  C   UNL     1      -5.299  -1.075  -7.497  0.00  0.00    +0.044 C 
ATOM     19  H   UNL     1      -1.787   1.311  -1.077  0.00  0.00    -0.080 HD
ENDROOT
BRANCH   1  20
ATOM     20  C   UNL     1      -0.013   1.086   0.008  0.00  0.00    -0.042 C 
BRANCH  20  23
ATOM     21  C   UNL     1      -1.010   3.230   2.955  0.00  0.00    +0.162 A 
ATOM     22  C   UNL     1      -0.359   2.779   1.817  0.00  0.00    +0.051 A 
ATOM     23  C   UNL     1      -0.718   1.572   1.248  0.00  0.00    -0.060 A 
ATOM     24  C   UNL     1      -1.719   0.807   1.817  0.00  0.00    +0.005 A 
ATOM     25  C   UNL     1      -2.369   1.248   2.954  0.00  0.00    +0.049 A 
ATOM     26  C   UNL     1      -2.017   2.459   3.527  0.00  0.00    +0.158 A 
BRANCH  26  27
ATOM     27  O   UNL     1      -2.655   2.894   4.647  0.00  0.00    -0.503 OA
ATOM     28  H   UNL     1      -3.451   2.284   5.099  0.00  0.00    +0.292 HD
ENDBRANCH  26  27
BRANCH  21  29
ATOM     29  O   UNL     1      -0.661   4.420   3.513  0.00  0.00    -0.489 OA
BRANCH  29  31
ATOM     30  C   UNL     1       0.633   6.457   3.637  0.00  0.00    +0.048 C 
ATOM     31  C   UNL     1       0.382   5.157   2.872  0.00  0.00    +0.226 C 
ENDBRANCH  29  31
ENDBRANCH  21  29
ENDBRANCH  20  23
ENDBRANCH   1  20
TORSDOF 5
