REMARK  Name = ZINC59882658
REMARK  9 active torsions:
REMARK  status: ('A' for Active; 'I' for Inactive)
REMARK    1  A    between atoms: C_1  and  C_2
REMARK    2  A    between atoms: C_2  and  C_4
REMARK    3  A    between atoms: C_2  and  S_13
REMARK    4  A    between atoms: N_6  and  N_7
REMARK    5  A    between atoms: C_8  and  C_10
REMARK    6  A    between atoms: C_10  and  C_11
REMARK    7  A    between atoms: C_10  and  C_12
REMARK    8  A    between atoms: S_13  and  C_14
REMARK    9  A    between atoms: C_17  and  C_20
REMARK                            x       y       z     vdW  Elec       q    Type
REMARK                         _______ _______ _______ _____ _____    ______ ____
ROOT
ATOM      1  S   UNL     1      -1.700  -0.632   0.015  0.00  0.00    -0.074 S 
ENDROOT
BRANCH   1   2
ATOM      2  C   UNL     1      -2.335  -0.110   1.573  0.00  0.00    +0.185 A 
ATOM      3  N   UNL     1      -1.680   0.578   2.483  0.00  0.00    -0.201 NA
ATOM      4  H   UNL     1      -4.292  -0.821   1.586  0.00  0.00    +0.191 HD
ATOM      5  C   UNL     1      -2.475   0.796   3.541  0.00  0.00    +0.182 A 
ATOM      6  N   UNL     1      -3.647   0.248   3.313  0.00  0.00    -0.152 NA
ATOM      7  N   UNL     1      -3.582  -0.341   2.040  0.00  0.00    -0.253 N 
BRANCH   5   8
ATOM      8  C   UNL     1      -2.093   1.536   4.769  0.00  0.00    +0.021 A 
ATOM      9  C   UNL     1      -0.814   2.078   4.890  0.00  0.00    +0.013 A 
ATOM     10  C   UNL     1      -0.464   2.765   6.034  0.00  0.00    +0.016 A 
ATOM     11  C   UNL     1      -1.379   2.917   7.061  0.00  0.00    +0.018 A 
ATOM     12  C   UNL     1      -2.650   2.381   6.946  0.00  0.00    +0.016 A 
ATOM     13  C   UNL     1      -3.013   1.697   5.803  0.00  0.00    +0.013 A 
ATOM     14 BR   UNL     1      -0.892   3.859   8.626  0.00  0.00    -0.050 Br
ENDBRANCH   5   8
ENDBRANCH   1   2
BRANCH   1  16
ATOM     15  C   UNL     1      -0.019   1.526   0.010  0.00  0.00    +0.029 C 
ATOM     16  C   UNL     1       0.002  -0.004   0.002  0.00  0.00    +0.138 C 
BRANCH  16  17
ATOM     17  C   UNL     1       0.707  -0.490  -1.238  0.00  0.00    +0.242 C 
ATOM     18  O   UNL     1       0.066  -0.782  -2.225  0.00  0.00    -0.273 OA
ATOM     19  N   UNL     1       2.051  -0.601  -1.250  0.00  0.00    -0.233 N 
ATOM     20  H   UNL     1       2.563  -0.367  -0.460  0.00  0.00    +0.173 HD
BRANCH  19  21
ATOM     21  N   UNL     1       2.706  -1.052  -2.402  0.00  0.00    -0.234 N 
ATOM     22  C   UNL     1       4.050  -1.163  -2.414  0.00  0.00    +0.232 C 
ATOM     23  O   UNL     1       4.691  -0.871  -1.426  0.00  0.00    -0.274 OA
ATOM     24  H   UNL     1       2.194  -1.286  -3.192  0.00  0.00    +0.173 HD
BRANCH  22  25
ATOM     25  C   UNL     1       4.755  -1.649  -3.654  0.00  0.00    +0.070 C 
ATOM     26  C   UNL     1       4.452  -0.702  -4.817  0.00  0.00    +0.017 C 
ATOM     27  C   UNL     1       6.264  -1.681  -3.402  0.00  0.00    +0.017 C 
ENDBRANCH  22  25
ENDBRANCH  19  21
ENDBRANCH  16  17
ENDBRANCH   1  16
TORSDOF 6
