REMARK  Name = ZINC14968550
REMARK  11 active torsions:
REMARK  status: ('A' for Active; 'I' for Inactive)
REMARK    1  A    between atoms: C_1  and  C_2
REMARK    2  A    between atoms: C_3  and  C_4
REMARK    3  A    between atoms: C_9  and  C_12
REMARK    4  A    between atoms: C_12  and  C_24
REMARK    5  A    between atoms: N_15  and  C_19
REMARK    6  A    between atoms: C_19  and  C_20
REMARK    7  A    between atoms: C_20  and  C_21
REMARK    8  A    between atoms: C_21  and  N_63
REMARK    9  A    between atoms: C_22  and  N_63
REMARK   10  A    between atoms: C_23  and  N_63
REMARK   11  A    between atoms: C_24  and  C_25
REMARK                            x       y       z     vdW  Elec       q    Type
REMARK                         _______ _______ _______ _____ _____    ______ ____
ROOT
ATOM      1  C   UNL     1      -1.770   2.355   1.466  0.00  0.00    +0.119 C 
ATOM      2  C   UNL     1      -1.871   1.043   2.218  0.00  0.00    +0.247 C 
ATOM      3  O   UNL     1      -2.602   0.109   1.968  0.00  0.00    -0.273 OA
ATOM      4  N   UNL     1      -0.978   1.130   3.224  0.00  0.00    -0.224 N 
ATOM      5  C   UNL     1      -0.334   2.303   3.211  0.00  0.00    +0.309 C 
ATOM      6  O   UNL     1       0.519   2.615   4.020  0.00  0.00    -0.252 OA
ATOM      7  N   UNL     1      -0.737   3.103   2.203  0.00  0.00    -0.284 N 
ATOM      8  H   UNL     1      -0.411   3.994   2.001  0.00  0.00    +0.151 HD
ENDROOT
BRANCH   1  14
ATOM      9  C   UNL     1      -5.122   6.465   2.724  0.00  0.00    +0.291 C 
ATOM     10  O   UNL     1      -5.516   6.530   3.873  0.00  0.00    -0.260 OA
ATOM     11  N   UNL     1      -4.779   5.274   2.196  0.00  0.00    -0.291 N 
ATOM     12  C   UNL     1      -4.874   4.045   2.995  0.00  0.00    +0.109 C 
ATOM     13  C   UNL     1      -3.520   3.328   2.960  0.00  0.00    +0.025 C 
ATOM     14  C   UNL     1      -3.105   3.101   1.505  0.00  0.00    +0.025 C 
ATOM     15  C   UNL     1      -2.956   4.451   0.799  0.00  0.00    +0.025 C 
ATOM     16  C   UNL     1      -4.303   5.180   0.809  0.00  0.00    +0.109 C 
BRANCH   9  19
ATOM     17  C   UNL     1      -4.844   9.853   0.471  0.00  0.00    +0.106 C 
ATOM     18  C   UNL     1      -4.945   8.630   1.284  0.00  0.00    -0.096 C 
ATOM     19  C   UNL     1      -5.025   7.655   1.933  0.00  0.00    -0.008 C 
ENDBRANCH   9  19
ENDBRANCH   1  14
BRANCH   4  20
ATOM     20  C   UNL     1      -0.742   0.072   4.209  0.00  0.00    +0.116 C 
BRANCH  20  21
ATOM     21  C   UNL     1       0.356  -0.864   3.700  0.00  0.00    +0.001 C 
BRANCH  21  22
ATOM     22  C   UNL     1       0.602  -1.968   4.729  0.00  0.00    -0.078 C 
BRANCH  22  25
ATOM     23  C   UNL     1       2.947  -2.170   4.160  0.00  0.00    -0.097 C 
ATOM     24  C   UNL     1       1.758  -4.067   5.082  0.00  0.00    -0.097 C 
ATOM     25  N   UNL     1       1.649  -2.876   4.214  0.00  0.00    +0.376 N 
ATOM     26  H   UNL     1       1.393  -3.176   3.266  0.00  0.00    -0.083 HD
ENDBRANCH  22  25
ENDBRANCH  21  22
ENDBRANCH  20  21
ENDBRANCH   4  20
BRANCH   1  27
ATOM     27  C   UNL     1      -1.332   2.114   0.020  0.00  0.00    +0.070 C 
BRANCH  27  28
ATOM     28  C   UNL     1      -0.017   1.378   0.010  0.00  0.00    -0.042 A 
ATOM     29  C   UNL     1       0.002  -0.004   0.002  0.00  0.00    +0.004 A 
ATOM     30  C   UNL     1       1.208  -0.680  -0.013  0.00  0.00    +0.003 A 
ATOM     31  C   UNL     1       2.396   0.026  -0.021  0.00  0.00    +0.038 A 
ATOM     32  C   UNL     1       2.379   1.410  -0.013  0.00  0.00    +0.124 A 
ATOM     33  C   UNL     1       1.170   2.086   0.002  0.00  0.00    +0.042 A 
ATOM     34  F   UNL     1       3.540   2.101  -0.021  0.00  0.00    -0.205 F 
ENDBRANCH  27  28
ENDBRANCH   1  27
TORSDOF 8
