REMARK  Name = ZINC19503491
REMARK  5 active torsions:
REMARK  status: ('A' for Active; 'I' for Inactive)
REMARK    1  A    between atoms: C_1  and  C_2
REMARK    2  A    between atoms: C_2  and  C_3
REMARK    3  A    between atoms: C_3  and  N_4
REMARK    4  A    between atoms: C_12  and  C_17
REMARK    5  A    between atoms: C_21  and  C_22
REMARK                            x       y       z     vdW  Elec       q    Type
REMARK                         _______ _______ _______ _____ _____    ______ ____
ROOT
ATOM      1  N   UNL     1       0.738  -1.966  -1.265  0.00  0.00    -0.296 NA
ATOM      2  C   UNL     1       1.597  -2.476  -2.346  0.00  0.00    +0.089 C 
ATOM      3  C   UNL     1       1.851  -3.963  -2.098  0.00  0.00    +0.058 C 
ATOM      4  C   UNL     1       0.547  -4.676  -1.846  0.00  0.00    +0.040 A 
ATOM      5  C   UNL     1      -0.578  -4.010  -1.518  0.00  0.00    +0.040 A 
ATOM      6  N   UNL     1      -1.733  -4.706  -1.289  0.00  0.00    -0.342 N 
ATOM      7  C   UNL     1      -1.758  -6.082  -1.400  0.00  0.00    +0.139 A 
ATOM      8  C   UNL     1      -2.751  -6.998  -1.234  0.00  0.00    +0.076 A 
ATOM      9  C   UNL     1      -2.207  -8.271  -1.478  0.00  0.00    +0.099 A 
ATOM     10  N   UNL     1      -0.933  -8.126  -1.779  0.00  0.00    -0.162 NA
ATOM     11  N   UNL     1      -0.622  -6.761  -1.738  0.00  0.00    -0.179 N 
ATOM     12  C   UNL     1       0.520  -6.085  -1.961  0.00  0.00    +0.278 A 
ATOM     13  O   UNL     1       1.534  -6.689  -2.261  0.00  0.00    -0.265 OA
ATOM     14  C   UNL     1      -0.617  -2.509  -1.399  0.00  0.00    +0.138 C 
ATOM     15  H   UNL     1      -2.542  -4.229  -1.046  0.00  0.00    +0.167 HD
ENDROOT
BRANCH   9  16
ATOM     16  C   UNL     1      -2.942  -9.558  -1.407  0.00  0.00    +0.043 A 
ATOM     17  C   UNL     1      -4.359  -9.751  -1.081  0.00  0.00    +0.051 A 
ATOM     18  C   UNL     1      -4.576 -11.076  -1.138  0.00  0.00    +0.196 A 
ATOM     19  O   UNL     1      -3.431 -11.692  -1.466  0.00  0.00    -0.467 OA
ATOM     20  C   UNL     1      -2.444 -10.800  -1.637  0.00  0.00    +0.111 A 
ATOM     21  C   UNL     1      -1.021 -11.122  -2.015  0.00  0.00    +0.087 C 
ENDBRANCH   9  16
BRANCH   1  22
ATOM     22  C   UNL     1       0.718  -0.497  -1.257  0.00  0.00    +0.084 C 
BRANCH  22  24
ATOM     23  C   UNL     1      -0.019   1.526   0.010  0.00  0.00    +0.005 C 
ATOM     24  C   UNL     1       0.002  -0.004   0.002  0.00  0.00    +0.012 C 
ENDBRANCH  22  24
ENDBRANCH   1  22
TORSDOF 3
