REMARK  Name = ZINC22852191
REMARK  5 active torsions:
REMARK  status: ('A' for Active; 'I' for Inactive)
REMARK    1  A    between atoms: N_9  and  C_11
REMARK    2  A    between atoms: C_11  and  C_13
REMARK    3  A    between atoms: C_11  and  C_20
REMARK    4  A    between atoms: C_21  and  O_33
REMARK    5  A    between atoms: C_26  and  C_28
REMARK                            x       y       z     vdW  Elec       q    Type
REMARK                         _______ _______ _______ _____ _____    ______ ____
ROOT
ATOM      1  C   UNL     1      -8.386   0.319   0.038  0.00  0.00    +0.130 C 
ENDROOT
BRANCH   1  10
ATOM      2  C   UNL     1     -11.648  -3.624  -3.851  0.00  0.00    +0.000 A 
ATOM      3  C   UNL     1     -12.411  -3.377  -2.725  0.00  0.00    +0.000 A 
ATOM      4  C   UNL     1     -11.950  -2.504  -1.760  0.00  0.00    +0.005 A 
ATOM      5  C   UNL     1     -10.724  -1.873  -1.913  0.00  0.00    -0.030 A 
ATOM      6  C   UNL     1      -9.962  -2.123  -3.034  0.00  0.00    -0.042 A 
ATOM      7  C   UNL     1     -10.427  -2.999  -4.004  0.00  0.00    +0.004 A 
ATOM      8  C   UNL     1      -8.621  -1.467  -3.241  0.00  0.00    +0.051 C 
ATOM      9  C   UNL     1      -8.482  -0.260  -2.313  0.00  0.00    +0.090 C 
ATOM     10  N   UNL     1      -8.826  -0.679  -0.946  0.00  0.00    -0.286 NA
ATOM     11  C   UNL     1     -10.268  -0.922  -0.838  0.00  0.00    +0.120 C 
ENDBRANCH   1  10
BRANCH   1  12
ATOM     12  C   UNL     1      -6.881   0.400   0.032  0.00  0.00    +0.076 A 
ATOM     13  C   UNL     1      -6.094   1.482   0.036  0.00  0.00    +0.228 A 
ATOM     14  N   UNL     1      -4.726   1.354   0.029  0.00  0.00    -0.173 N 
ATOM     15  C   UNL     1      -4.219   0.084   0.020  0.00  0.00    +0.200 A 
ATOM     16  S   UNL     1      -5.682  -0.924   0.020  0.00  0.00    -0.047 S 
ATOM     17  N   UNL     1      -2.916   0.130   0.009  0.00  0.00    -0.197 NA
ATOM     18  C   UNL     1      -2.518   1.410   0.020  0.00  0.00    +0.218 A 
ATOM     19  N   UNL     1      -3.579   2.189   0.029  0.00  0.00    -0.138 NA
BRANCH  18  20
ATOM     20  C   UNL     1      -1.115   1.872   0.017  0.00  0.00    +0.173 A 
ATOM     21  C   UNL     1      -0.013   1.076   0.008  0.00  0.00    +0.053 A 
ATOM     22  C   UNL     1       1.107   1.932   0.002  0.00  0.00    +0.042 A 
ATOM     23  C   UNL     1       0.638   3.195   0.013  0.00  0.00    +0.196 A 
ATOM     24  O   UNL     1      -0.705   3.155   0.026  0.00  0.00    -0.460 OA
ENDBRANCH  18  20
BRANCH  13  25
ATOM     25  O   UNL     1      -6.654   2.721   0.045  0.00  0.00    -0.492 OA
ATOM     26  H   UNL     1      -6.012   3.615   0.048  0.00  0.00    +0.294 HD
ENDBRANCH  13  25
ENDBRANCH   1  12
BRANCH   1  27
ATOM     27  C   UNL     1      -8.862  -0.083   1.410  0.00  0.00    -0.022 A 
ATOM     28  C   UNL     1      -8.829  -1.412   1.791  0.00  0.00    +0.006 A 
ATOM     29  C   UNL     1      -9.261  -1.782   3.050  0.00  0.00    +0.003 A 
ATOM     30  C   UNL     1      -9.737  -0.825   3.927  0.00  0.00    +0.038 A 
ATOM     31  C   UNL     1      -9.775   0.505   3.545  0.00  0.00    +0.124 A 
ATOM     32  C   UNL     1      -9.337   0.875   2.284  0.00  0.00    +0.044 A 
ATOM     33  F   UNL     1     -10.240   1.442   4.401  0.00  0.00    -0.205 F 
ENDBRANCH   1  27
TORSDOF 5
