REMARK  Name = ZINC18142996
REMARK  9 active torsions:
REMARK  status: ('A' for Active; 'I' for Inactive)
REMARK    1  A    between atoms: C_1  and  C_2
REMARK    2  A    between atoms: C_2  and  C_31
REMARK    3  A    between atoms: C_6  and  C_16
REMARK    4  A    between atoms: C_18  and  O_26
REMARK    5  A    between atoms: C_19  and  O_24
REMARK    6  A    between atoms: C_21  and  O_22
REMARK    7  A    between atoms: O_22  and  C_23
REMARK    8  A    between atoms: O_24  and  C_25
REMARK    9  A    between atoms: O_26  and  C_27
REMARK                            x       y       z     vdW  Elec       q    Type
REMARK                         _______ _______ _______ _____ _____    ______ ____
ROOT
ATOM      1  C   UNL     1       0.637   1.470   0.100  0.00  0.00    +0.011 C 
ATOM      2  C   UNL     1       0.476  -0.051   0.065  0.00  0.00    -0.023 C 
ATOM      3  C   UNL     1      -1.004  -0.417   0.160  0.00  0.00    +0.058 C 
ATOM      4  C   UNL     1      -1.165  -1.928   0.137  0.00  0.00    +0.017 C 
ATOM      5  C   UNL     1      -0.229  -2.719   0.687  0.00  0.00    +0.037 C 
ATOM      6  C   UNL     1      -0.272  -4.228   0.756  0.00  0.00    +0.140 C 
ATOM      7  N   UNL     1      -1.300  -4.835  -0.062  0.00  0.00    -0.331 N 
ATOM      8  C   UNL     1      -2.651  -4.617   0.201  0.00  0.00    +0.049 A 
ATOM      9  C   UNL     1      -3.486  -5.647   0.604  0.00  0.00    +0.025 A 
ATOM     10  C   UNL     1      -4.811  -5.373   0.898  0.00  0.00    +0.002 A 
ATOM     11  C   UNL     1      -5.299  -4.084   0.793  0.00  0.00    +0.002 A 
ATOM     12  C   UNL     1      -4.472  -3.056   0.374  0.00  0.00    +0.025 A 
ATOM     13  C   UNL     1      -3.152  -3.332   0.061  0.00  0.00    +0.052 A 
ATOM     14  N   UNL     1      -2.298  -2.369  -0.465  0.00  0.00    -0.316 N 
ATOM     15  C   UNL     1       0.933  -2.154   1.263  0.00  0.00    +0.163 C 
ATOM     16  O   UNL     1       1.754  -2.893   1.771  0.00  0.00    -0.292 OA
ATOM     17  C   UNL     1       1.190  -0.677   1.269  0.00  0.00    +0.086 C 
ATOM     18  C   UNL     1       1.067  -0.605  -1.233  0.00  0.00    +0.011 C 
ATOM     19  H   UNL     1      -1.044  -5.403  -0.806  0.00  0.00    +0.147 HD
ATOM     20  H   UNL     1      -2.530  -1.984  -1.325  0.00  0.00    +0.152 HD
ENDROOT
BRANCH   6  21
ATOM     21  C   UNL     1      -0.502  -4.635   2.188  0.00  0.00    +0.023 A 
ATOM     22  C   UNL     1      -0.981  -3.712   3.100  0.00  0.00    +0.058 A 
ATOM     23  C   UNL     1      -1.194  -4.084   4.417  0.00  0.00    +0.162 A 
ATOM     24  C   UNL     1      -0.925  -5.388   4.823  0.00  0.00    +0.165 A 
ATOM     25  C   UNL     1      -0.446  -6.311   3.909  0.00  0.00    +0.095 A 
ATOM     26  C   UNL     1      -0.239  -5.936   2.589  0.00  0.00    +0.129 A 
BRANCH  26  27
ATOM     27  O   UNL     1       0.227  -6.843   1.690  0.00  0.00    -0.495 OA
ATOM     28  C   UNL     1       0.476  -8.165   2.172  0.00  0.00    +0.277 C 
ENDBRANCH  26  27
BRANCH  24  29
ATOM     29  O   UNL     1      -1.133  -5.755   6.116  0.00  0.00    -0.491 OA
ATOM     30  C   UNL     1      -0.836  -7.109   6.461  0.00  0.00    +0.277 C 
ENDBRANCH  24  29
BRANCH  23  31
ATOM     31  O   UNL     1      -1.665  -3.175   5.313  0.00  0.00    -0.491 OA
ATOM     32  C   UNL     1      -1.918  -1.855   4.827  0.00  0.00    +0.277 C 
ENDBRANCH  23  31
ENDBRANCH   6  21
TORSDOF 4
