REMARK  Name = ZINC32751109
REMARK  7 active torsions:
REMARK  status: ('A' for Active; 'I' for Inactive)
REMARK    1  A    between atoms: C_1  and  O_2
REMARK    2  A    between atoms: O_2  and  C_3
REMARK    3  A    between atoms: C_6  and  C_9
REMARK    4  A    between atoms: N_14  and  C_16
REMARK    5  A    between atoms: C_16  and  N_17
REMARK    6  A    between atoms: N_20  and  C_23
REMARK    7  A    between atoms: C_26  and  O_29
REMARK                            x       y       z     vdW  Elec       q    Type
REMARK                         _______ _______ _______ _____ _____    ______ ____
ROOT
ATOM      1  C   UNL     1       1.662   7.549  -1.035  0.00  0.00    +0.072 C 
ENDROOT
BRANCH   1   7
ATOM      2  C   UNL     1       0.933   8.734  -4.361  0.00  0.00    +0.160 A 
ATOM      3  N   UNL     1      -0.328   8.717  -3.799  0.00  0.00    -0.317 N 
ATOM      4  H   UNL     1      -1.199   9.028  -4.394  0.00  0.00    +0.169 HD
ATOM      5  C   UNL     1      -0.217   8.286  -2.526  0.00  0.00    +0.174 A 
ATOM      6  S   UNL     1      -1.501   8.092  -1.411  0.00  0.00    -0.012 S 
ATOM      7  N   UNL     1       1.087   8.036  -2.291  0.00  0.00    -0.257 N 
ATOM      8  N   UNL     1       1.792   8.333  -3.465  0.00  0.00    -0.153 NA
BRANCH   2  12
ATOM      9  C   UNL     1       1.863   9.914  -8.337  0.00  0.00    +0.120 A 
ATOM     10  C   UNL     1       2.877   9.498  -7.482  0.00  0.00    +0.046 A 
ATOM     11  C   UNL     1       2.579   9.115  -6.192  0.00  0.00    +0.015 A 
ATOM     12  C   UNL     1       1.257   9.144  -5.745  0.00  0.00    +0.019 A 
ATOM     13  C   UNL     1       0.241   9.556  -6.608  0.00  0.00    +0.015 A 
ATOM     14  C   UNL     1       0.547   9.944  -7.895  0.00  0.00    +0.046 A 
BRANCH   9  16
ATOM     15  C   UNL     1       1.070  10.706 -10.433  0.00  0.00    +0.277 C 
ATOM     16  O   UNL     1       2.160  10.290  -9.607  0.00  0.00    -0.495 OA
ENDBRANCH   9  16
ENDBRANCH   2  12
ENDBRANCH   1   7
BRANCH   1  17
ATOM     17  N   UNL     1       1.681   6.080  -1.042  0.00  0.00    +0.395 N 
ATOM     18  C   UNL     1       2.462   5.557   0.088  0.00  0.00    -0.057 C 
ATOM     19  C   UNL     1       2.523   4.031  -0.001  0.00  0.00    +0.086 C 
ATOM     20  N   UNL     1       1.159   3.486   0.009  0.00  0.00    -0.333 N 
ATOM     21  C   UNL     1       0.378   4.009  -1.121  0.00  0.00    +0.086 C 
ATOM     22  C   UNL     1       0.316   5.535  -1.032  0.00  0.00    -0.057 C 
ATOM     23  H   UNL     1       2.170   5.754  -1.972  0.00  0.00    -0.079 HD
BRANCH  20  24
ATOM     24  C   UNL     1       1.177   2.087   0.002  0.00  0.00    +0.030 A 
ATOM     25  C   UNL     1      -0.017   1.377   0.010  0.00  0.00    +0.026 A 
ATOM     26  C   UNL     1       0.002  -0.004   0.002  0.00  0.00    +0.047 A 
ATOM     27  C   UNL     1       1.212  -0.681  -0.014  0.00  0.00    +0.117 A 
ATOM     28  C   UNL     1       2.405   0.027  -0.021  0.00  0.00    +0.047 A 
ATOM     29  C   UNL     1       2.388   1.408  -0.012  0.00  0.00    +0.026 A 
BRANCH  27  30
ATOM     30  O   UNL     1       1.230  -2.041  -0.022  0.00  0.00    -0.507 OA
ATOM     31  H   UNL     1       2.189  -2.579  -0.034  0.00  0.00    +0.292 HD
ENDBRANCH  27  30
ENDBRANCH  20  24
ENDBRANCH   1  17
TORSDOF 6
