REMARK  Name = ZINC36026904
REMARK  11 active torsions:
REMARK  status: ('A' for Active; 'I' for Inactive)
REMARK    1  A    between atoms: C_1  and  C_2
REMARK    2  A    between atoms: C_2  and  C_3
REMARK    3  A    between atoms: C_3  and  C_5
REMARK    4  A    between atoms: C_3  and  C_6
REMARK    5  A    between atoms: C_6  and  N_7
REMARK    6  A    between atoms: C_10  and  C_30
REMARK    7  A    between atoms: N_16  and  C_19
REMARK    8  A    between atoms: C_19  and  N_21
REMARK    9  A    between atoms: N_21  and  C_22
REMARK   10  A    between atoms: C_25  and  O_28
REMARK   11  A    between atoms: O_28  and  C_29
REMARK                            x       y       z     vdW  Elec       q    Type
REMARK                         _______ _______ _______ _____ _____    ______ ____
ROOT
ATOM      1  N   UNL     1       1.666  -2.548  -2.364  0.00  0.00    -0.313 N 
ATOM      2  C   UNL     1       1.095  -2.838  -3.551  0.00  0.00    +0.200 C 
ATOM      3  O   UNL     1      -0.088  -2.759  -3.806  0.00  0.00    -0.277 OA
ATOM      4  C   UNL     1       2.178  -3.278  -4.511  0.00  0.00    +0.016 C 
ATOM      5  N   UNL     1       3.444  -2.820  -3.889  0.00  0.00    +0.401 N 
ATOM      6  C   UNL     1       3.112  -2.768  -2.451  0.00  0.00    +0.006 C 
ATOM      7  C   UNL     1       3.864  -1.615  -1.788  0.00  0.00    +0.025 C 
ATOM      8  C   UNL     1       3.486  -1.550  -0.304  0.00  0.00    +0.107 C 
ATOM      9  N   UNL     1       3.724  -2.866   0.303  0.00  0.00    -0.312 N 
ATOM     10  C   UNL     1       3.104  -4.050  -0.308  0.00  0.00    +0.107 C 
ATOM     11  C   UNL     1       3.486  -4.095  -1.792  0.00  0.00    +0.025 C 
ATOM     12  C   UNL     1       2.174  -4.801  -4.658  0.00  0.00    -0.004 C 
ATOM     13  H   UNL     1       4.186  -3.482  -4.062  0.00  0.00    -0.082 HD
ATOM     14  H   UNL     1       3.696  -1.903  -4.226  0.00  0.00    -0.082 HD
ENDROOT
BRANCH   9  15
ATOM     15  C   UNL     1       4.498  -2.986   1.400  0.00  0.00    +0.137 C 
ATOM     16  S   UNL     1       5.320  -1.618   2.022  0.00  0.00    -0.018 S 
BRANCH  15  17
ATOM     17  N   UNL     1       4.625  -4.182   2.008  0.00  0.00    -0.297 N 
ATOM     18  H   UNL     1       5.461  -4.670   1.949  0.00  0.00    +0.154 HD
BRANCH  17  19
ATOM     19  C   UNL     1       3.549  -4.720   2.726  0.00  0.00    +0.033 A 
ATOM     20  C   UNL     1       2.321  -4.071   2.729  0.00  0.00    +0.027 A 
ATOM     21  C   UNL     1       1.261  -4.602   3.436  0.00  0.00    +0.047 A 
ATOM     22  C   UNL     1       1.423  -5.784   4.145  0.00  0.00    +0.120 A 
ATOM     23  C   UNL     1       2.649  -6.432   4.144  0.00  0.00    +0.047 A 
ATOM     24  C   UNL     1       3.708  -5.905   3.432  0.00  0.00    +0.027 A 
BRANCH  22  25
ATOM     25  O   UNL     1       0.378  -6.306   4.842  0.00  0.00    -0.495 OA
ATOM     26  C   UNL     1       0.615  -7.525   5.550  0.00  0.00    +0.277 C 
ENDBRANCH  22  25
ENDBRANCH  17  19
ENDBRANCH  15  17
ENDBRANCH   9  15
BRANCH   1  27
ATOM     27  C   UNL     1       0.953  -2.080  -1.173  0.00  0.00    +0.109 C 
BRANCH  27  28
ATOM     28  C   UNL     1       0.867  -0.552  -1.198  0.00  0.00    +0.003 C 
ATOM     29  C   UNL     1       0.064  -0.106  -2.422  0.00  0.00    +0.009 C 
BRANCH  28  31
ATOM     30  C   UNL     1       0.199   1.469   0.109  0.00  0.00    +0.004 C 
ATOM     31  C   UNL     1       0.174  -0.060   0.074  0.00  0.00    +0.001 C 
ENDBRANCH  28  31
ENDBRANCH  27  28
ENDBRANCH   1  27
TORSDOF 7
