REMARK  Name = ZINC58500268
REMARK  9 active torsions:
REMARK  status: ('A' for Active; 'I' for Inactive)
REMARK    1  A    between atoms: C_1  and  C_2
REMARK    2  A    between atoms: C_2  and  N_3
REMARK    3  A    between atoms: C_4  and  C_24
REMARK    4  A    between atoms: C_7  and  S_8
REMARK    5  A    between atoms: S_8  and  C_9
REMARK    6  A    between atoms: C_9  and  C_11
REMARK    7  A    between atoms: C_9  and  C_12
REMARK    8  A    between atoms: C_16  and  C_22
REMARK    9  A    between atoms: C_17  and  C_21
REMARK                            x       y       z     vdW  Elec       q    Type
REMARK                         _______ _______ _______ _____ _____    ______ ____
ROOT
ATOM      1  C   UNL     1       5.174  -0.716  -1.450  0.00  0.00    +0.119 C 
ATOM      2  C   UNL     1       5.500   0.208  -2.624  0.00  0.00    +0.028 C 
ENDROOT
BRANCH   1   3
ATOM      3  C   UNL     1       6.320  -0.710  -0.472  0.00  0.00    +0.145 A 
ATOM      4  N   UNL     1       6.489   0.335   0.319  0.00  0.00    -0.216 NA
ATOM      5  C   UNL     1       7.476   0.401   1.198  0.00  0.00    +0.128 A 
ATOM      6  C   UNL     1       8.387  -0.687   1.300  0.00  0.00    +0.050 A 
ATOM      7  C   UNL     1       9.536  -0.857   2.172  0.00  0.00    -0.028 A 
ATOM      8  C   UNL     1      10.259  -1.983   2.091  0.00  0.00    -0.008 A 
ATOM      9  S   UNL     1       9.435  -2.915   0.813  0.00  0.00    -0.074 S 
ATOM     10  C   UNL     1       8.142  -1.766   0.424  0.00  0.00    +0.114 A 
ATOM     11  N   UNL     1       7.129  -1.751  -0.420  0.00  0.00    -0.224 NA
ATOM     12  C   UNL     1      11.478  -2.370   2.889  0.00  0.00    +0.052 C 
ATOM     13  C   UNL     1       9.911   0.220   3.157  0.00  0.00    +0.045 C 
ATOM     14  N   UNL     1       7.619   1.513   2.007  0.00  0.00    -0.343 N 
ATOM     15  H   UNL     1       7.234   2.361   1.738  0.00  0.00    +0.144 HD
ATOM     16  H   UNL     1       8.105   1.444   2.844  0.00  0.00    +0.144 HD
ENDBRANCH   1   3
BRANCH   1  17
ATOM     17  S   UNL     1       3.669  -0.133  -0.622  0.00  0.00    -0.075 S 
BRANCH  17  22
ATOM     18  N   UNL     1       1.083  -0.033  -1.687  0.00  0.00    -0.302 N 
ATOM     19  C   UNL     1       0.492  -0.352  -2.890  0.00  0.00    +0.171 A 
ATOM     20  N   UNL     1       1.441  -0.818  -3.672  0.00  0.00    -0.128 NA
ATOM     21  N   UNL     1       2.566  -0.811  -3.050  0.00  0.00    -0.122 NA
ATOM     22  C   UNL     1       2.408  -0.336  -1.836  0.00  0.00    +0.193 A 
BRANCH  19  23
ATOM     23  C   UNL     1      -0.931  -0.202  -3.233  0.00  0.00    +0.056 A 
ATOM     24  C   UNL     1      -1.531  -0.238  -4.467  0.00  0.00    +0.019 A 
ATOM     25  C   UNL     1      -2.895  -0.070  -4.542  0.00  0.00    +0.008 A 
ATOM     26  C   UNL     1      -3.603   0.125  -3.400  0.00  0.00    +0.046 A 
ATOM     27  S   UNL     1      -2.327   0.068  -2.153  0.00  0.00    -0.094 S 
ENDBRANCH  19  23
BRANCH  18  29
ATOM     28  C   UNL     1       0.453   2.049  -0.570  0.00  0.00    +0.027 C 
ATOM     29  C   UNL     1       0.429   0.521  -0.499  0.00  0.00    +0.122 C 
ENDBRANCH  18  29
ENDBRANCH  17  22
ENDBRANCH   1  17
TORSDOF 5
