REMARK  Name = ZINC32446313
REMARK  9 active torsions:
REMARK  status: ('A' for Active; 'I' for Inactive)
REMARK    1  A    between atoms: C_1  and  C_2
REMARK    2  A    between atoms: C_2  and  C_3
REMARK    3  A    between atoms: C_3  and  C_5
REMARK    4  A    between atoms: C_3  and  N_22
REMARK    5  A    between atoms: C_5  and  N_6
REMARK    6  A    between atoms: C_7  and  C_9
REMARK    7  A    between atoms: C_9  and  C_11
REMARK    8  A    between atoms: C_9  and  N_12
REMARK    9  A    between atoms: N_15  and  C_16
REMARK                            x       y       z     vdW  Elec       q    Type
REMARK                         _______ _______ _______ _____ _____    ______ ____
ROOT
ATOM      1  N   UNL     1      -3.711  -3.685   0.806  0.00  0.00    -0.315 N 
ATOM      2  C   UNL     1      -3.710  -2.398   1.205  0.00  0.00    +0.233 C 
ATOM      3  O   UNL     1      -4.473  -2.032   2.074  0.00  0.00    -0.274 OA
ATOM      4  H   UNL     1      -3.019  -4.017   0.018  0.00  0.00    +0.149 HD
ENDROOT
BRANCH   2   5
ATOM      5  C   UNL     1      -2.761  -1.413   0.572  0.00  0.00    +0.157 C 
ATOM      6  C   UNL     1      -3.037  -1.334  -0.931  0.00  0.00    +0.038 C 
BRANCH   5   7
ATOM      7  N   UNL     1      -2.955  -0.092   1.174  0.00  0.00    -0.288 N 
ATOM      8  C   UNL     1      -1.949   0.805   1.168  0.00  0.00    +0.304 C 
ATOM      9  O   UNL     1      -0.881   0.518   0.663  0.00  0.00    -0.252 OA
ATOM     10  N   UNL     1      -2.127   2.021   1.723  0.00  0.00    -0.269 N 
ATOM     11  H   UNL     1      -3.921   0.168   1.632  0.00  0.00    +0.151 HD
ATOM     12  H   UNL     1      -3.118   2.313   2.100  0.00  0.00    +0.156 HD
BRANCH  10  13
ATOM     13  C   UNL     1      -1.052   2.911   1.817  0.00  0.00    +0.035 A 
ATOM     14  C   UNL     1       0.234   2.429   2.025  0.00  0.00    +0.023 A 
ATOM     15  C   UNL     1       1.294   3.309   2.113  0.00  0.00    +0.002 A 
ATOM     16  C   UNL     1       1.075   4.670   2.006  0.00  0.00    +0.000 A 
ATOM     17  C   UNL     1      -0.205   5.154   1.805  0.00  0.00    +0.002 A 
ATOM     18  C   UNL     1      -1.268   4.278   1.710  0.00  0.00    +0.023 A 
ENDBRANCH  10  13
ENDBRANCH   5   7
ENDBRANCH   2   5
BRANCH   1  19
ATOM     19  C   UNL     1      -4.633  -4.643   1.421  0.00  0.00    +0.089 C 
BRANCH  19  20
ATOM     20  C   UNL     1      -4.431  -6.023   0.792  0.00  0.00    -0.051 C 
BRANCH  20  21
ATOM     21  N   UNL     1      -3.020  -6.412   0.908  0.00  0.00    +0.385 N 
ATOM     22  C   UNL     1      -2.680  -7.461  -0.065  0.00  0.00    -0.073 C 
ATOM     23  C   UNL     1      -1.157  -7.564  -0.157  0.00  0.00    +0.017 C 
ATOM     24  C   UNL     1      -0.566  -7.684   1.224  0.00  0.00    -0.048 A 
ATOM     25  C   UNL     1       0.739  -8.136   1.348  0.00  0.00    +0.004 A 
ATOM     26  C   UNL     1       1.322  -8.252   2.594  0.00  0.00    +0.000 A 
ATOM     27  C   UNL     1       0.600  -7.915   3.724  0.00  0.00    +0.000 A 
ATOM     28  C   UNL     1      -0.699  -7.467   3.602  0.00  0.00    +0.002 A 
ATOM     29  C   UNL     1      -1.287  -7.351   2.351  0.00  0.00    -0.061 A 
ATOM     30  C   UNL     1      -2.709  -6.861   2.269  0.00  0.00    -0.042 C 
ATOM     31  H   UNL     1      -2.410  -5.522   0.692  0.00  0.00    -0.081 HD
ENDBRANCH  20  21
BRANCH  20  33
ATOM     32  C   UNL     1      -5.205  -8.398   0.808  0.00  0.00    +0.002 C 
ATOM     33  C   UNL     1      -5.304  -7.048   1.519  0.00  0.00    -0.017 C 
ENDBRANCH  20  33
ENDBRANCH  19  20
ENDBRANCH   1  19
TORSDOF 7
