REMARK  Name = ZINC21782815
REMARK  7 active torsions:
REMARK  status: ('A' for Active; 'I' for Inactive)
REMARK    1  A    between atoms: C_1  and  C_2
REMARK    2  A    between atoms: C_5  and  O_32
REMARK    3  A    between atoms: C_6  and  C_8
REMARK    4  A    between atoms: N_16  and  C_26
REMARK    5  A    between atoms: C_17  and  C_19
REMARK    6  A    between atoms: C_23  and  O_25
REMARK    7  A    between atoms: C_26  and  C_27
REMARK                            x       y       z     vdW  Elec       q    Type
REMARK                         _______ _______ _______ _____ _____    ______ ____
ROOT
ATOM      1  C   UNL     1      -0.103  -2.915   2.698  0.00  0.00    +0.102 A 
ATOM      2  C   UNL     1       0.110  -4.297   2.727  0.00  0.00    +0.035 A 
ATOM      3  C   UNL     1       0.120  -4.649   4.063  0.00  0.00    +0.126 A 
ATOM      4  N   UNL     1      -0.083  -3.493   4.762  0.00  0.00    -0.272 N 
ATOM      5  H   UNL     1      -0.125  -3.426   5.728  0.00  0.00    +0.189 HD
ATOM      6  N   UNL     1      -0.203  -2.505   3.947  0.00  0.00    -0.173 NA
ATOM      7  C   UNL     1       0.341  -6.096   4.163  0.00  0.00    +0.266 C 
ATOM      8  O   UNL     1       0.402  -6.718   5.206  0.00  0.00    -0.268 OA
ATOM      9  N   UNL     1       0.465  -6.637   2.938  0.00  0.00    -0.278 N 
ATOM     10  C   UNL     1       0.332  -5.563   1.945  0.00  0.00    +0.142 C 
ENDROOT
BRANCH   1  16
ATOM     11  C   UNL     1       1.669  -1.558  -1.767  0.00  0.00    +0.044 C 
ATOM     12  C   UNL     1       0.655  -1.409  -0.662  0.00  0.00    -0.050 A 
ATOM     13  C   UNL     1      -0.362  -0.477  -0.781  0.00  0.00    +0.007 A 
ATOM     14  C   UNL     1      -1.296  -0.334   0.227  0.00  0.00    +0.046 A 
ATOM     15  C   UNL     1      -1.220  -1.123   1.363  0.00  0.00    +0.126 A 
ATOM     16  C   UNL     1      -0.194  -2.065   1.485  0.00  0.00    +0.044 A 
ATOM     17  C   UNL     1       0.739  -2.206   0.461  0.00  0.00    +0.017 A 
BRANCH  15  18
ATOM     18  O   UNL     1      -2.137  -0.982   2.354  0.00  0.00    -0.506 OA
ATOM     19  H   UNL     1      -2.949  -1.490   2.214  0.00  0.00    +0.292 HD
ENDBRANCH  15  18
ENDBRANCH   1  16
BRANCH  10  20
ATOM     20  C   UNL     1      -0.848  -5.831   1.046  0.00  0.00    -0.019 A 
ATOM     21  C   UNL     1      -2.068  -6.181   1.594  0.00  0.00    +0.006 A 
ATOM     22  C   UNL     1      -3.152  -6.428   0.773  0.00  0.00    +0.004 A 
ATOM     23  C   UNL     1      -3.018  -6.326  -0.599  0.00  0.00    +0.045 A 
ATOM     24  C   UNL     1      -1.795  -5.975  -1.151  0.00  0.00    +0.117 A 
ATOM     25  C   UNL     1      -0.710  -5.722  -0.324  0.00  0.00    +0.051 A 
BRANCH  24  26
ATOM     26  O   UNL     1      -1.661  -5.874  -2.500  0.00  0.00    -0.507 OA
ATOM     27  H   UNL     1      -1.848  -4.992  -2.849  0.00  0.00    +0.292 HD
ENDBRANCH  24  26
ENDBRANCH  10  20
BRANCH   9  28
ATOM     28  C   UNL     1       0.694  -8.053   2.644  0.00  0.00    +0.183 C 
BRANCH  28  29
ATOM     29  C   UNL     1      -0.631  -8.756   2.496  0.00  0.00    +0.122 A 
ATOM     30  C   UNL     1      -1.318  -8.906   1.349  0.00  0.00    +0.046 A 
ATOM     31  C   UNL     1      -2.495  -9.621   1.668  0.00  0.00    +0.041 A 
ATOM     32  C   UNL     1      -2.457  -9.865   2.990  0.00  0.00    +0.195 A 
ATOM     33  O   UNL     1      -1.323  -9.344   3.485  0.00  0.00    -0.466 OA
ENDBRANCH  28  29
ENDBRANCH   9  28
TORSDOF 6
