REMARK  Name = ZINC02190295
REMARK  11 active torsions:
REMARK  status: ('A' for Active; 'I' for Inactive)
REMARK    1  A    between atoms: C_1  and  C_2
REMARK    2  A    between atoms: C_2  and  O_3
REMARK    3  A    between atoms: O_3  and  C_4
REMARK    4  A    between atoms: C_4  and  C_6
REMARK    5  A    between atoms: C_9  and  O_30
REMARK    6  A    between atoms: N_13  and  C_23
REMARK    7  A    between atoms: C_14  and  C_15
REMARK    8  A    between atoms: C_15  and  N_56
REMARK    9  A    between atoms: C_16  and  C_17
REMARK   10  A    between atoms: C_16  and  N_56
REMARK   11  A    between atoms: O_30  and  C_31
REMARK                            x       y       z     vdW  Elec       q    Type
REMARK                         _______ _______ _______ _____ _____    ______ ____
ROOT
ATOM      1  C   UNL     1       1.585  -4.164  -0.721  0.00  0.00    +0.086 A 
ATOM      2  C   UNL     1       0.976  -4.218   0.621  0.00  0.00    +0.018 A 
ATOM      3  C   UNL     1       0.604  -5.256   1.472  0.00  0.00    +0.057 A 
ATOM      4  C   UNL     1       0.055  -4.964   2.706  0.00  0.00    +0.135 A 
ATOM      5  C   UNL     1      -0.137  -3.640   3.092  0.00  0.00    +0.061 A 
ATOM      6  C   UNL     1       0.224  -2.607   2.254  0.00  0.00    +0.045 A 
ATOM      7  C   UNL     1       0.785  -2.883   1.012  0.00  0.00    +0.056 A 
ATOM      8  N   UNL     1       1.237  -2.081  -0.020  0.00  0.00    -0.314 N 
ATOM      9  C   UNL     1       1.710  -2.842  -1.038  0.00  0.00    +0.022 A 
ATOM     10 BR   UNL     1      -0.899  -3.256   4.779  0.00  0.00    -0.046 Br
ENDROOT
BRANCH   8  11
ATOM     11  C   UNL     1       1.215  -0.680  -0.013  0.00  0.00    +0.047 A 
ATOM     12  C   UNL     1       0.002  -0.004   0.002  0.00  0.00    +0.026 A 
ATOM     13  C   UNL     1      -0.017   1.377   0.010  0.00  0.00    +0.002 A 
ATOM     14  C   UNL     1       1.171   2.086   0.002  0.00  0.00    +0.000 A 
ATOM     15  C   UNL     1       2.380   1.415  -0.013  0.00  0.00    +0.002 A 
ATOM     16  C   UNL     1       2.405   0.035  -0.021  0.00  0.00    +0.026 A 
ENDBRANCH   8  11
BRANCH   1  17
ATOM     17  C   UNL     1       1.979  -5.307  -1.553  0.00  0.00    +0.341 C 
ATOM     18  O   UNL     1       3.101  -5.767  -1.462  0.00  0.00    -0.245 OA
BRANCH  17  19
ATOM     19  O   UNL     1       1.097  -5.847  -2.418  0.00  0.00    -0.461 OA
BRANCH  19  21
ATOM     20  C   UNL     1       0.425  -7.449  -4.124  0.00  0.00    +0.048 C 
ATOM     21  C   UNL     1       1.556  -6.975  -3.208  0.00  0.00    +0.229 C 
ENDBRANCH  19  21
ENDBRANCH  17  19
ENDBRANCH   1  17
BRANCH   4  22
ATOM     22  O   UNL     1      -0.307  -5.973   3.543  0.00  0.00    -0.494 OA
ATOM     23  C   UNL     1      -0.082  -7.308   3.085  0.00  0.00    +0.277 C 
ENDBRANCH   4  22
BRANCH   9  24
ATOM     24  C   UNL     1       2.286  -2.309  -2.324  0.00  0.00    -0.027 C 
BRANCH  24  25
ATOM     25  N   UNL     1       3.740  -2.120  -2.161  0.00  0.00    +0.385 N 
ATOM     26  H   UNL     1       4.175  -3.021  -1.931  0.00  0.00    -0.085 HD
ATOM     27  H   UNL     1       3.911  -1.453  -1.399  0.00  0.00    -0.085 HD
BRANCH  25  28
ATOM     28  C   UNL     1       4.332  -1.598  -3.407  0.00  0.00    -0.046 C 
BRANCH  28  29
ATOM     29  C   UNL     1       5.815  -1.415  -3.211  0.00  0.00    -0.064 A 
ATOM     30  C   UNL     1       6.307  -0.209  -2.747  0.00  0.00    +0.002 A 
ATOM     31  C   UNL     1       7.667  -0.043  -2.562  0.00  0.00    +0.000 A 
ATOM     32  C   UNL     1       8.535  -1.079  -2.851  0.00  0.00    +0.000 A 
ATOM     33  C   UNL     1       8.044  -2.283  -3.321  0.00  0.00    +0.000 A 
ATOM     34  C   UNL     1       6.683  -2.451  -3.500  0.00  0.00    +0.002 A 
ENDBRANCH  28  29
ENDBRANCH  25  28
ENDBRANCH  24  25
ENDBRANCH   9  24
TORSDOF 9
