REMARK  Name = ZINC40783376
REMARK  7 active torsions:
REMARK  status: ('A' for Active; 'I' for Inactive)
REMARK    1  A    between atoms: C_1  and  C_2
REMARK    2  A    between atoms: C_5  and  S_8
REMARK    3  A    between atoms: S_8  and  C_9
REMARK    4  A    between atoms: C_10  and  N_26
REMARK    5  A    between atoms: C_11  and  N_15
REMARK    6  A    between atoms: N_15  and  N_16
REMARK    7  A    between atoms: C_17  and  C_19
REMARK                            x       y       z     vdW  Elec       q    Type
REMARK                         _______ _______ _______ _____ _____    ______ ____
ROOT
ATOM      1  C   UNL     1       0.225  -4.966   1.677  0.00  0.00    +0.127 A 
ATOM      2  C   UNL     1       0.389  -6.300   2.056  0.00  0.00    +0.099 A 
ATOM      3  C   UNL     1       0.514  -6.588   3.416  0.00  0.00    +0.160 A 
ATOM      4  N   UNL     1       0.472  -5.588   4.294  0.00  0.00    -0.218 NA
ATOM      5  C   UNL     1       0.315  -4.342   3.894  0.00  0.00    +0.224 A 
ATOM      6  N   UNL     1       0.200  -4.027   2.620  0.00  0.00    -0.227 NA
ENDROOT
BRANCH   2   7
ATOM      7  N   UNL     1       0.427  -7.324   1.096  0.00  0.00    -0.353 N 
ATOM      8  H   UNL     1       0.339  -7.109   0.154  0.00  0.00    +0.142 HD
ATOM      9  H   UNL     1       0.542  -8.246   1.374  0.00  0.00    +0.142 HD
ENDBRANCH   2   7
BRANCH   3  10
ATOM     10  N   UNL     1       0.679  -7.899   3.848  0.00  0.00    -0.247 N 
ATOM     11  H   UNL     1       0.708  -8.622   3.202  0.00  0.00    +0.172 HD
BRANCH  10  12
ATOM     12  N   UNL     1       0.803  -8.176   5.215  0.00  0.00    -0.231 N 
ATOM     13  C   UNL     1       0.963  -9.447   5.634  0.00  0.00    +0.260 C 
ATOM     14  O   UNL     1       0.999 -10.354   4.825  0.00  0.00    -0.269 OA
ATOM     15  H   UNL     1       0.773  -7.453   5.861  0.00  0.00    +0.173 HD
BRANCH  13  16
ATOM     16  C   UNL     1       1.093  -9.739   7.077  0.00  0.00    +0.038 A 
ATOM     17  C   UNL     1       1.046  -8.701   8.009  0.00  0.00    +0.014 A 
ATOM     18  C   UNL     1       1.168  -8.980   9.354  0.00  0.00    +0.016 A 
ATOM     19  C   UNL     1       1.339 -10.287   9.781  0.00  0.00    +0.018 A 
ATOM     20  C   UNL     1       1.387 -11.321   8.861  0.00  0.00    +0.016 A 
ATOM     21  C   UNL     1       1.259 -11.055   7.513  0.00  0.00    +0.014 A 
ATOM     22 BR   UNL     1       1.507 -10.660  11.627  0.00  0.00    -0.050 Br
ENDBRANCH  13  16
ENDBRANCH  10  12
ENDBRANCH   3  10
BRANCH   1  23
ATOM     23  S   UNL     1       0.062  -4.533  -0.023  0.00  0.00    -0.068 S 
BRANCH  23  28
ATOM     24  C   UNL     1      -0.035   1.502   0.010  0.00  0.00    +0.044 C 
ATOM     25  C   UNL     1      -0.011  -0.004   0.002  0.00  0.00    -0.050 A 
ATOM     26  C   UNL     1       1.199  -0.675  -0.007  0.00  0.00    +0.004 A 
ATOM     27  C   UNL     1       1.225  -2.055  -0.014  0.00  0.00    +0.015 A 
ATOM     28  C   UNL     1       0.034  -2.771  -0.013  0.00  0.00    +0.014 A 
ATOM     29  C   UNL     1      -1.180  -2.094  -0.004  0.00  0.00    +0.015 A 
ATOM     30  C   UNL     1      -1.198  -0.713   0.009  0.00  0.00    +0.004 A 
ENDBRANCH  23  28
ENDBRANCH   1  23
TORSDOF 6
