REMARK  Name = ZINC17091103
REMARK  11 active torsions:
REMARK  status: ('A' for Active; 'I' for Inactive)
REMARK    1  A    between atoms: C_1  and  C_2
REMARK    2  A    between atoms: C_5  and  C_7
REMARK    3  A    between atoms: N_9  and  C_10
REMARK    4  A    between atoms: C_13  and  C_16
REMARK    5  A    between atoms: C_16  and  C_31
REMARK    6  A    between atoms: N_17  and  N_18
REMARK    7  A    between atoms: C_19  and  C_21
REMARK    8  A    between atoms: C_24  and  C_27
REMARK    9  A    between atoms: C_27  and  C_28
REMARK   10  A    between atoms: C_27  and  C_29
REMARK   11  A    between atoms: C_27  and  C_30
REMARK                            x       y       z     vdW  Elec       q    Type
REMARK                         _______ _______ _______ _____ _____    ______ ____
ROOT
ATOM      1  C   UNL     1       3.440   6.311   0.101  0.00  0.00    +0.063 C 
ATOM      2  N   UNL     1       2.354   5.714  -0.285  0.00  0.00    -0.184 NA
ATOM      3  C   UNL     1       3.388   7.744   0.565  0.00  0.00    +0.068 C 
ENDROOT
BRANCH   1   7
ATOM      4  C   UNL     1       7.139   4.228   0.056  0.00  0.00    +0.034 A 
ATOM      5  C   UNL     1       6.205   4.006  -0.951  0.00  0.00    +0.024 A 
ATOM      6  C   UNL     1       5.004   4.680  -0.940  0.00  0.00    +0.011 A 
ATOM      7  C   UNL     1       4.724   5.588   0.085  0.00  0.00    -0.002 A 
ATOM      8  C   UNL     1       5.667   5.814   1.092  0.00  0.00    +0.011 A 
ATOM      9  C   UNL     1       6.864   5.131   1.077  0.00  0.00    +0.024 A 
BRANCH   4  12
ATOM     10  C   UNL     1       8.982   3.307  -1.128  0.00  0.00    +0.284 C 
ATOM     11  O   UNL     1       8.535   3.768  -2.162  0.00  0.00    -0.266 OA
ATOM     12  N   UNL     1       8.355   3.543   0.041  0.00  0.00    -0.279 N 
ATOM     13  H   UNL     1       8.749   3.236   0.873  0.00  0.00    +0.155 HD
BRANCH  10  18
ATOM     14  C   UNL     1      12.829   0.492   0.402  0.00  0.00    +0.086 C 
ATOM     15  C   UNL     1      11.890   1.260  -0.491  0.00  0.00    +0.103 A 
ATOM     16  C   UNL     1      12.009   1.391  -1.831  0.00  0.00    +0.045 A 
ATOM     17  C   UNL     1      10.932   2.180  -2.266  0.00  0.00    +0.055 A 
ATOM     18  C   UNL     1      10.202   2.494  -1.155  0.00  0.00    +0.190 A 
ATOM     19  O   UNL     1      10.804   1.931  -0.087  0.00  0.00    -0.455 OA
ENDBRANCH  10  18
ENDBRANCH   4  12
ENDBRANCH   1   7
BRANCH   2  20
ATOM     20  N   UNL     1       2.376   4.346  -0.586  0.00  0.00    -0.203 N 
ATOM     21  C   UNL     1       1.278   3.749  -1.092  0.00  0.00    +0.263 C 
ATOM     22  O   UNL     1       0.269   4.399  -1.288  0.00  0.00    -0.268 OA
ATOM     23  H   UNL     1       3.181   3.828  -0.429  0.00  0.00    +0.178 HD
BRANCH  21  24
ATOM     24  C   UNL     1       1.302   2.306  -1.409  0.00  0.00    +0.038 A 
ATOM     25  C   UNL     1       0.167   1.685  -1.933  0.00  0.00    +0.013 A 
ATOM     26  C   UNL     1       0.195   0.338  -2.227  0.00  0.00    +0.005 A 
ATOM     27  C   UNL     1       1.345  -0.398  -2.003  0.00  0.00    -0.042 A 
ATOM     28  C   UNL     1       2.474   0.211  -1.483  0.00  0.00    +0.005 A 
ATOM     29  C   UNL     1       2.458   1.558  -1.185  0.00  0.00    +0.013 A 
BRANCH  27  30
ATOM     30  C   UNL     1       1.369  -1.870  -2.327  0.00  0.00    -0.013 C 
ATOM     31  C   UNL     1       1.085  -2.069  -3.817  0.00  0.00    +0.015 C 
ATOM     32  C   UNL     1       2.747  -2.444  -1.990  0.00  0.00    +0.015 C 
ATOM     33  C   UNL     1       0.301  -2.591  -1.503  0.00  0.00    +0.015 C 
ENDBRANCH  27  30
ENDBRANCH  21  24
ENDBRANCH   2  20
TORSDOF 6
