REMARK  Name = ZINC35674828
REMARK  16 active torsions:
REMARK  status: ('A' for Active; 'I' for Inactive)
REMARK    1  A    between atoms: C_1  and  C_2
REMARK    2  A    between atoms: C_2  and  C_3
REMARK    3  A    between atoms: C_3  and  C_5
REMARK    4  A    between atoms: C_3  and  N_28
REMARK    5  A    between atoms: C_9  and  O_26
REMARK    6  A    between atoms: C_10  and  O_24
REMARK    7  A    between atoms: N_15  and  C_16
REMARK    8  A    between atoms: C_16  and  C_17
REMARK    9  A    between atoms: C_22  and  C_23
REMARK   10  A    between atoms: O_24  and  C_25
REMARK   11  A    between atoms: O_26  and  C_27
REMARK   12  A    between atoms: N_28  and  C_29
REMARK   13  A    between atoms: C_29  and  N_31
REMARK   14  A    between atoms: N_31  and  C_32
REMARK   15  A    between atoms: C_32  and  C_33
REMARK   16  A    between atoms: C_32  and  C_34
REMARK                            x       y       z     vdW  Elec       q    Type
REMARK                         _______ _______ _______ _____ _____    ______ ____
ROOT
ATOM      1  C   UNL     1      -0.289  -2.639   1.093  0.00  0.00    -0.016 C 
ATOM      2  C   UNL     1      -1.772  -2.893   1.154  0.00  0.00    -0.052 A 
ATOM      3  C   UNL     1      -2.599  -2.197   0.283  0.00  0.00    +0.051 A 
ATOM      4  C   UNL     1      -3.967  -2.401   0.304  0.00  0.00    +0.162 A 
ATOM      5  C   UNL     1      -4.516  -3.311   1.203  0.00  0.00    +0.162 A 
ATOM      6  C   UNL     1      -3.688  -4.001   2.070  0.00  0.00    +0.053 A 
ATOM      7  C   UNL     1      -2.317  -3.792   2.046  0.00  0.00    -0.044 A 
ATOM      8  C   UNL     1      -1.454  -4.560   3.014  0.00  0.00    +0.017 C 
ATOM      9  C   UNL     1       0.007  -4.497   2.567  0.00  0.00    -0.073 C 
ATOM     10  N   UNL     1       0.362  -3.090   2.325  0.00  0.00    +0.388 N 
ATOM     11  H   UNL     1       0.049  -2.524   3.100  0.00  0.00    -0.080 HD
ENDROOT
BRANCH   5  12
ATOM     12  O   UNL     1      -5.859  -3.519   1.230  0.00  0.00    -0.491 OA
ATOM     13  C   UNL     1      -6.350  -4.467   2.179  0.00  0.00    +0.277 C 
ENDBRANCH   5  12
BRANCH   4  14
ATOM     14  O   UNL     1      -4.772  -1.716  -0.552  0.00  0.00    -0.491 OA
ATOM     15  C   UNL     1      -4.138  -0.800  -1.447  0.00  0.00    +0.277 C 
ENDBRANCH   4  14
BRANCH   1  16
ATOM     16  C   UNL     1      -0.041  -1.140   0.910  0.00  0.00    +0.062 C 
BRANCH  16  18
ATOM     17  C   UNL     1       1.448   0.230  -0.555  0.00  0.00    +0.005 C 
ATOM     18  C   UNL     1       1.404  -0.913   0.460  0.00  0.00    +0.017 C 
ENDBRANCH  16  18
BRANCH  16  19
ATOM     19  N   UNL     1      -0.270  -0.449   2.182  0.00  0.00    -0.325 N 
ATOM     20  H   UNL     1       0.095  -0.812   3.004  0.00  0.00    +0.148 HD
BRANCH  19  21
ATOM     21  C   UNL     1      -0.988   0.691   2.209  0.00  0.00    +0.131 C 
ATOM     22  S   UNL     1      -1.632   1.332   0.758  0.00  0.00    -0.019 S 
BRANCH  21  23
ATOM     23  N   UNL     1      -1.198   1.327   3.378  0.00  0.00    -0.324 N 
ATOM     24  H   UNL     1      -0.834   0.964   4.200  0.00  0.00    +0.148 HD
BRANCH  23  25
ATOM     25  C   UNL     1      -1.979   2.567   3.408  0.00  0.00    +0.066 C 
ATOM     26  C   UNL     1      -3.469   2.229   3.491  0.00  0.00    +0.027 C 
ATOM     27  C   UNL     1      -1.575   3.395   4.629  0.00  0.00    +0.027 C 
ENDBRANCH  23  25
ENDBRANCH  21  23
ENDBRANCH  19  21
ENDBRANCH  16  19
ENDBRANCH   1  16
BRANCH  10  28
ATOM     28  C   UNL     1       1.820  -2.969   2.184  0.00  0.00    -0.042 C 
BRANCH  28  29
ATOM     29  C   UNL     1       2.491  -3.517   3.417  0.00  0.00    -0.061 A 
ATOM     30  C   UNL     1       3.062  -4.775   3.392  0.00  0.00    +0.002 A 
ATOM     31  C   UNL     1       3.678  -5.277   4.523  0.00  0.00    +0.000 A 
ATOM     32  C   UNL     1       3.723  -4.521   5.680  0.00  0.00    +0.000 A 
ATOM     33  C   UNL     1       3.152  -3.262   5.705  0.00  0.00    +0.003 A 
ATOM     34  C   UNL     1       2.540  -2.758   4.572  0.00  0.00    -0.049 A 
ATOM     35  C   UNL     1       1.923  -1.384   4.598  0.00  0.00    +0.044 C 
ENDBRANCH  28  29
ENDBRANCH  10  28
TORSDOF 10
