REMARK  Name = ZINC40700973
REMARK  8 active torsions:
REMARK  status: ('A' for Active; 'I' for Inactive)
REMARK    1  A    between atoms: C_1  and  C_2
REMARK    2  A    between atoms: C_2  and  C_27
REMARK    3  A    between atoms: C_4  and  N_10
REMARK    4  A    between atoms: C_6  and  C_8
REMARK    5  A    between atoms: C_6  and  C_9
REMARK    6  A    between atoms: C_12  and  N_26
REMARK    7  A    between atoms: C_13  and  N_17
REMARK    8  A    between atoms: N_17  and  C_18
REMARK                            x       y       z     vdW  Elec       q    Type
REMARK                         _______ _______ _______ _____ _____    ______ ____
ROOT
ATOM      1  N   UNL     1       2.873  -1.106  -2.402  0.00  0.00    -0.325 N 
ATOM      2  C   UNL     1       3.937  -0.464  -3.026  0.00  0.00    +0.145 A 
ATOM      3  C   UNL     1       4.449  -0.948  -4.231  0.00  0.00    +0.105 A 
ATOM      4  C   UNL     1       5.517  -0.266  -4.815  0.00  0.00    +0.149 A 
ATOM      5  N   UNL     1       6.005   0.812  -4.205  0.00  0.00    -0.219 NA
ATOM      6  C   UNL     1       5.493   1.235  -3.067  0.00  0.00    +0.225 A 
ATOM      7  N   UNL     1       4.481   0.623  -2.485  0.00  0.00    -0.219 NA
ATOM      8  H   UNL     1       2.483  -1.898  -2.803  0.00  0.00    +0.148 HD
ENDROOT
BRANCH   1  12
ATOM      9  C   UNL     1       0.045   0.989   0.246  0.00  0.00    -0.010 C 
ATOM     10  C   UNL     1       0.313  -0.517   0.336  0.00  0.00    -0.072 C 
ATOM     11  C   UNL     1       0.883  -1.020  -0.986  0.00  0.00    +0.009 C 
ATOM     12  C   UNL     1       2.341  -0.583  -1.138  0.00  0.00    +0.069 C 
ATOM     13  C   UNL     1       3.138  -1.172   0.026  0.00  0.00    +0.009 C 
ATOM     14  C   UNL     1       2.584  -0.671   1.356  0.00  0.00    -0.072 C 
ATOM     15  N   UNL     1       1.147  -0.838   1.481  0.00  0.00    +0.386 N 
ATOM     16  C   UNL     1       2.997   0.788   1.573  0.00  0.00    -0.010 C 
ATOM     17  C   UNL     1       3.252  -1.502   2.477  0.00  0.00    -0.010 C 
ATOM     18  C   UNL     1      -1.054  -1.210   0.542  0.00  0.00    -0.010 C 
ATOM     19  H   UNL     1       0.827  -0.278   2.278  0.00  0.00    -0.084 HD
ATOM     20  H   UNL     1       0.959  -1.808   1.752  0.00  0.00    -0.084 HD
ENDBRANCH   1  12
BRANCH   3  21
ATOM     21  N   UNL     1       3.903  -2.090  -4.840  0.00  0.00    -0.353 N 
ATOM     22  H   UNL     1       3.160  -2.554  -4.423  0.00  0.00    +0.143 HD
ATOM     23  H   UNL     1       4.269  -2.415  -5.678  0.00  0.00    +0.143 HD
ENDBRANCH   3  21
BRANCH   4  24
ATOM     24  N   UNL     1       6.065  -0.706  -6.016  0.00  0.00    -0.298 N 
ATOM     25  H   UNL     1       5.652  -1.441  -6.496  0.00  0.00    +0.154 HD
BRANCH  24  26
ATOM     26  C   UNL     1       7.209  -0.090  -6.529  0.00  0.00    +0.035 A 
ATOM     27  C   UNL     1       8.192   0.379  -5.668  0.00  0.00    +0.043 A 
ATOM     28  C   UNL     1       9.323   0.989  -6.178  0.00  0.00    +0.044 A 
ATOM     29  C   UNL     1       9.476   1.131  -7.546  0.00  0.00    +0.040 A 
ATOM     30  C   UNL     1       8.497   0.665  -8.407  0.00  0.00    +0.044 A 
ATOM     31  C   UNL     1       7.367   0.050  -7.902  0.00  0.00    +0.043 A 
ATOM     32 CL   UNL     1       8.693   0.847 -10.122  0.00  0.00    -0.083 Cl
ATOM     33 CL   UNL     1      10.553   1.576  -5.103  0.00  0.00    -0.083 Cl
ENDBRANCH  24  26
ENDBRANCH   4  24
TORSDOF 4
