REMARK  Name = ZINC44896523
REMARK  3 active torsions:
REMARK  status: ('A' for Active; 'I' for Inactive)
REMARK    1  A    between atoms: C_3  and  C_6
REMARK    2  A    between atoms: C_8  and  C_11
REMARK    3  A    between atoms: C_11  and  N_12
REMARK                            x       y       z     vdW  Elec       q    Type
REMARK                         _______ _______ _______ _____ _____    ______ ____
ROOT
ATOM      1  N   UNL     1       6.802  -1.955   1.289  0.00  0.00    -0.218 N 
ATOM      2  C   UNL     1       7.798  -1.532   2.097  0.00  0.00    +0.247 C 
ATOM      3  O   UNL     1       8.658  -0.717   1.839  0.00  0.00    -0.273 OA
ATOM      4  C   UNL     1       7.613  -2.289   3.387  0.00  0.00    +0.113 C 
ATOM      5  C   UNL     1       8.848  -3.142   3.707  0.00  0.00    +0.035 C 
ATOM      6  C   UNL     1       9.639  -2.288   4.731  0.00  0.00    +0.003 C 
ATOM      7  C   UNL     1       8.516  -1.643   5.583  0.00  0.00    +0.003 C 
ATOM      8  C   UNL     1       7.396  -1.335   4.564  0.00  0.00    +0.035 C 
ATOM      9  N   UNL     1       6.436  -3.128   3.154  0.00  0.00    -0.285 N 
ATOM     10  C   UNL     1       6.025  -2.861   1.898  0.00  0.00    +0.310 C 
ATOM     11  O   UNL     1       5.061  -3.385   1.376  0.00  0.00    -0.252 OA
ATOM     12  H   UNL     1       6.031  -3.749   3.779  0.00  0.00    +0.151 HD
ENDROOT
BRANCH   1  13
ATOM     13  C   UNL     1       6.592  -1.478  -0.080  0.00  0.00    +0.173 C 
BRANCH  13  16
ATOM     14  C   UNL     1       3.567   0.618  -0.029  0.00  0.00    +0.144 A 
ATOM     15  N   UNL     1       4.385  -0.428  -0.048  0.00  0.00    -0.239 NA
ATOM     16  C   UNL     1       5.689  -0.272  -0.059  0.00  0.00    +0.067 A 
ATOM     17  C   UNL     1       6.222   0.978  -0.051  0.00  0.00    +0.072 A 
ATOM     18  S   UNL     1       4.735   1.972  -0.034  0.00  0.00    -0.072 S 
BRANCH  14  21
ATOM     19  C   UNL     1      -0.016   1.344   0.009  0.00  0.00    +0.042 A 
ATOM     20  C   UNL     1       1.324   1.776  -0.001  0.00  0.00    +0.052 A 
ATOM     21  C   UNL     1       2.097   0.654  -0.015  0.00  0.00    +0.160 A 
ATOM     22  O   UNL     1       1.279  -0.418  -0.012  0.00  0.00    -0.461 OA
ATOM     23  C   UNL     1       0.002  -0.004   0.002  0.00  0.00    +0.196 A 
ENDBRANCH  14  21
ENDBRANCH  13  16
ENDBRANCH   1  13
TORSDOF 3
