REMARK  Name = ZINC60242428
REMARK  4 active torsions:
REMARK  status: ('A' for Active; 'I' for Inactive)
REMARK    1  A    between atoms: C_6  and  N_7
REMARK    2  A    between atoms: C_10  and  C_12
REMARK    3  A    between atoms: C_12  and  N_13
REMARK    4  A    between atoms: N_18  and  C_21
REMARK                            x       y       z     vdW  Elec       q    Type
REMARK                         _______ _______ _______ _____ _____    ______ ____
ROOT
ATOM      1  N   UNL     1      -1.202  -0.723   0.010  0.00  0.00    -0.236 N 
ATOM      2  C   UNL     1      -1.432  -1.901  -0.618  0.00  0.00    +0.048 A 
ATOM      3  C   UNL     1      -2.710  -2.260  -0.364  0.00  0.00    -0.002 A 
ATOM      4  C   UNL     1      -3.283  -1.269   0.446  0.00  0.00    +0.085 A 
ATOM      5  N   UNL     1      -2.378  -0.352   0.673  0.00  0.00    -0.169 NA
ATOM      6  C   UNL     1      -3.028  -3.576  -1.042  0.00  0.00    +0.039 C 
ATOM      7  C   UNL     1      -1.916  -3.762  -2.096  0.00  0.00    +0.011 C 
ATOM      8  C   UNL     1      -0.759  -2.937  -1.492  0.00  0.00    +0.056 C 
ENDROOT
BRANCH   1  14
ATOM      9  C   UNL     1      -0.017   1.384   0.010  0.00  0.00    +0.030 A 
ATOM     10  C   UNL     1       1.170   2.090   0.002  0.00  0.00    +0.040 A 
ATOM     11  C   UNL     1       2.379   1.414  -0.013  0.00  0.00    +0.124 A 
ATOM     12  C   UNL     1       2.400   0.029  -0.022  0.00  0.00    +0.040 A 
ATOM     13  C   UNL     1       1.215  -0.680  -0.014  0.00  0.00    +0.030 A 
ATOM     14  C   UNL     1       0.002  -0.004   0.002  0.00  0.00    +0.066 A 
ATOM     15  F   UNL     1       3.539   2.106  -0.021  0.00  0.00    -0.205 F 
ENDBRANCH   1  14
BRANCH   4  16
ATOM     16  C   UNL     1      -4.696  -1.264   0.969  0.00  0.00    +0.176 C 
BRANCH  16  17
ATOM     17  N   UNL     1      -4.739  -1.944   2.266  0.00  0.00    -0.212 N 
ATOM     18  C   UNL     1      -4.947  -3.266   2.454  0.00  0.00    +0.310 C 
ATOM     19  O   UNL     1      -5.132  -4.109   1.601  0.00  0.00    -0.264 OA
ATOM     20  C   UNL     1      -4.901  -3.470   3.939  0.00  0.00    +0.310 C 
ATOM     21  O   UNL     1      -5.040  -4.513   4.542  0.00  0.00    -0.264 OA
ATOM     22  N   UNL     1      -4.670  -2.246   4.463  0.00  0.00    -0.215 N 
ATOM     23  C   UNL     1      -4.572  -1.357   3.462  0.00  0.00    +0.319 C 
ATOM     24  O   UNL     1      -4.361  -0.171   3.618  0.00  0.00    -0.252 OA
BRANCH  22  25
ATOM     25  C   UNL     1      -4.543  -1.941   5.890  0.00  0.00    +0.086 C 
ATOM     26  C   UNL     1      -3.374  -2.733   6.479  0.00  0.00    +0.023 C 
ATOM     27  C   UNL     1      -3.241  -2.414   7.969  0.00  0.00    +0.002 C 
ATOM     28  C   UNL     1      -4.534  -2.800   8.691  0.00  0.00    +0.000 C 
ATOM     29  C   UNL     1      -5.703  -2.008   8.102  0.00  0.00    +0.002 C 
ATOM     30  C   UNL     1      -5.836  -2.327   6.611  0.00  0.00    +0.023 C 
ENDBRANCH  22  25
ENDBRANCH  16  17
ENDBRANCH   4  16
TORSDOF 4
