REMARK  Name = ZINC05145901
REMARK  7 active torsions:
REMARK  status: ('A' for Active; 'I' for Inactive)
REMARK    1  A    between atoms: C_1  and  C_2
REMARK    2  A    between atoms: C_7  and  C_8
REMARK    3  A    between atoms: N_10  and  C_11
REMARK    4  A    between atoms: C_12  and  C_22
REMARK    5  A    between atoms: C_17  and  C_21
REMARK    6  A    between atoms: C_25  and  O_27
REMARK    7  A    between atoms: O_27  and  C_28
REMARK                            x       y       z     vdW  Elec       q    Type
REMARK                         _______ _______ _______ _____ _____    ______ ____
ROOT
ATOM      1  C   UNL     1      -2.272   1.098  -0.927  0.00  0.00    +0.085 A 
ATOM      2  C   UNL     1      -3.558   1.574  -1.149  0.00  0.00    +0.069 A 
ATOM      3  C   UNL     1      -4.605   0.593  -1.379  0.00  0.00    -0.023 A 
ATOM      4  C   UNL     1      -4.205  -0.696  -1.341  0.00  0.00    -0.004 A 
ATOM      5  S   UNL     1      -2.467  -0.622  -1.014  0.00  0.00    -0.077 S 
ATOM      6  C   UNL     1      -5.057  -1.912  -1.535  0.00  0.00    +0.046 C 
ATOM      7  C   UNL     1      -6.530  -1.495  -1.413  0.00  0.00    -0.009 C 
ATOM      8  C   UNL     1      -6.763  -0.249  -2.273  0.00  0.00    +0.008 C 
ATOM      9  C   UNL     1      -6.062   0.956  -1.642  0.00  0.00    +0.037 C 
ATOM     10  C   UNL     1      -7.428  -2.634  -1.903  0.00  0.00    +0.008 C 
ENDROOT
BRANCH   2  11
ATOM     11  C   UNL     1      -3.846   3.010  -1.154  0.00  0.00    +0.255 C 
ATOM     12  O   UNL     1      -3.775   3.641  -2.192  0.00  0.00    -0.270 OA
ATOM     13  N   UNL     1      -4.190   3.632  -0.009  0.00  0.00    -0.217 N 
ATOM     14  C   UNL     1      -4.456   4.954  -0.014  0.00  0.00    +0.407 C 
ATOM     15  O   UNL     1      -4.385   5.584  -1.050  0.00  0.00    -0.226 OA
ATOM     16  H   UNL     1      -4.247   3.129   0.818  0.00  0.00    +0.161 HD
BRANCH  14  17
ATOM     17  O   UNL     1      -4.800   5.575   1.130  0.00  0.00    -0.453 OA
ATOM     18  C   UNL     1      -5.071   6.999   1.050  0.00  0.00    +0.282 C 
ENDBRANCH  14  17
ENDBRANCH   2  11
BRANCH   1  21
ATOM     19  C   UNL     1       0.053   1.180  -0.489  0.00  0.00    +0.249 C 
ATOM     20  O   UNL     1       0.091  -0.035  -0.517  0.00  0.00    -0.270 OA
ATOM     21  N   UNL     1      -1.115   1.822  -0.689  0.00  0.00    -0.275 N 
ATOM     22  H   UNL     1      -1.146   2.791  -0.666  0.00  0.00    +0.156 HD
BRANCH  19  29
ATOM     23  C   UNL     1       2.499  -0.211   0.184  0.00  0.00    +0.044 C 
ATOM     24  C   UNL     1       2.474   1.292   0.085  0.00  0.00    -0.038 A 
ATOM     25  C   UNL     1       3.624   2.020   0.315  0.00  0.00    +0.004 A 
ATOM     26  C   UNL     1       3.603   3.400   0.223  0.00  0.00    +0.000 A 
ATOM     27  C   UNL     1       2.430   4.061  -0.099  0.00  0.00    +0.001 A 
ATOM     28  C   UNL     1       1.275   3.345  -0.336  0.00  0.00    +0.013 A 
ATOM     29  C   UNL     1       1.288   1.952  -0.241  0.00  0.00    +0.040 A 
ENDBRANCH  19  29
ENDBRANCH   1  21
TORSDOF 4
