REMARK  Name = ZINC01735633
REMARK  4 active torsions:
REMARK  status: ('A' for Active; 'I' for Inactive)
REMARK    1  A    between atoms: C_1  and  C_2
REMARK    2  A    between atoms: C_6  and  C_8
REMARK    3  A    between atoms: C_11  and  C_12
REMARK    4  A    between atoms: C_19  and  O_22
REMARK                            x       y       z     vdW  Elec       q    Type
REMARK                         _______ _______ _______ _____ _____    ______ ____
ROOT
ATOM      1  C   UNL     1      -1.886  -4.197  -0.294  0.00  0.00    +0.232 C 
ATOM      2  N   UNL     1      -2.309  -2.966  -0.207  0.00  0.00    -0.205 NA
ATOM      3  C   UNL     1      -1.236  -2.131  -0.102  0.00  0.00    +0.152 C 
ATOM      4  C   UNL     1      -1.254  -0.756   0.009  0.00  0.00    +0.043 C 
ATOM      5  C   UNL     1      -0.051  -3.008  -0.140  0.00  0.00    +0.364 C 
ATOM      6  O   UNL     1       1.117  -2.674  -0.079  0.00  0.00    -0.243 OA
ATOM      7  O   UNL     1      -0.541  -4.261  -0.254  0.00  0.00    -0.402 OA
ENDROOT
BRANCH   4   8
ATOM      8  C   UNL     1      -0.013  -0.027   0.278  0.00  0.00    -0.019 A 
ATOM      9  C   UNL     1       0.936  -0.556   1.164  0.00  0.00    +0.012 A 
ATOM     10  C   UNL     1       2.102   0.133   1.414  0.00  0.00    +0.050 A 
ATOM     11  C   UNL     1       2.342   1.352   0.792  0.00  0.00    +0.169 A 
ATOM     12  C   UNL     1       1.401   1.886  -0.091  0.00  0.00    +0.170 A 
ATOM     13  C   UNL     1       0.230   1.204  -0.349  0.00  0.00    +0.057 A 
ATOM     14  O   UNL     1       1.873   3.078  -0.561  0.00  0.00    -0.428 OA
ATOM     15  C   UNL     1       2.917   3.464   0.352  0.00  0.00    +0.519 C 
ATOM     16  O   UNL     1       3.399   2.211   0.872  0.00  0.00    -0.428 OA
BRANCH  15  17
ATOM     17  O   UNL     1       3.960   4.153  -0.341  0.00  0.00    -0.325 OA
ATOM     18  H   UNL     1       4.719   4.379   0.215  0.00  0.00    +0.217 HD
ENDBRANCH  15  17
ENDBRANCH   4   8
BRANCH   1  24
ATOM     19  C   UNL     1      -2.468  -9.134  -0.719  0.00  0.00    +0.044 C 
ATOM     20  C   UNL     1      -3.056  -7.749  -0.625  0.00  0.00    -0.050 A 
ATOM     21  C   UNL     1      -4.429  -7.578  -0.656  0.00  0.00    +0.003 A 
ATOM     22  C   UNL     1      -4.977  -6.311  -0.570  0.00  0.00    +0.001 A 
ATOM     23  C   UNL     1      -4.156  -5.207  -0.452  0.00  0.00    +0.013 A 
ATOM     24  C   UNL     1      -2.770  -5.373  -0.420  0.00  0.00    +0.037 A 
ATOM     25  C   UNL     1      -2.224  -6.655  -0.513  0.00  0.00    +0.016 A 
ENDBRANCH   1  24
TORSDOF 3
