REMARK  Name = ZINC32798419
REMARK  6 active torsions:
REMARK  status: ('A' for Active; 'I' for Inactive)
REMARK    1  A    between atoms: C_1  and  N_2
REMARK    2  A    between atoms: C_3  and  C_5
REMARK    3  A    between atoms: C_5  and  C_17
REMARK    4  A    between atoms: C_6  and  C_7
REMARK    5  A    between atoms: C_12  and  O_13
REMARK    6  A    between atoms: O_13  and  C_14
REMARK                            x       y       z     vdW  Elec       q    Type
REMARK                         _______ _______ _______ _____ _____    ______ ____
ROOT
ATOM      1  C   UNL     1      -2.287  -0.020   2.068  0.00  0.00    +0.020 A 
ATOM      2  C   UNL     1      -3.617  -0.307   2.407  0.00  0.00    +0.027 A 
ATOM      3  C   UNL     1      -4.634   0.488   1.930  0.00  0.00    +0.020 A 
ATOM      4  C   UNL     1      -4.350   1.574   1.114  0.00  0.00    +0.034 A 
ATOM      5  C   UNL     1      -3.044   1.873   0.775  0.00  0.00    +0.061 A 
ATOM      6  C   UNL     1      -2.005   1.082   1.241  0.00  0.00    +0.141 A 
ATOM      7 BR   UNL     1      -2.674   3.361  -0.332  0.00  0.00    -0.046 Br
ATOM      8 BR   UNL     1      -6.427   0.099   2.387  0.00  0.00    -0.050 Br
ENDROOT
BRANCH   1  10
ATOM      9  C   UNL     1      -1.405  -2.209   2.767  0.00  0.00    +0.114 C 
ATOM     10  C   UNL     1      -1.199  -0.861   2.571  0.00  0.00    +0.035 C 
BRANCH   9  13
ATOM     11  C   UNL     1       0.470  -5.159   4.242  0.00  0.00    +0.128 C 
ATOM     12  N   UNL     1      -0.566  -4.345   3.602  0.00  0.00    -0.314 N 
ATOM     13  C   UNL     1      -0.365  -3.026   3.410  0.00  0.00    +0.254 C 
ATOM     14  O   UNL     1       0.678  -2.512   3.769  0.00  0.00    -0.269 OA
ATOM     15  H   UNL     1      -1.509  -4.810   3.277  0.00  0.00    +0.149 HD
ENDBRANCH   9  13
BRANCH   9  16
ATOM     16  C   UNL     1      -2.632  -2.815   2.345  0.00  0.00    +0.104 C 
ATOM     17  N   UNL     1      -3.606  -3.295   2.010  0.00  0.00    -0.191 NA
ENDBRANCH   9  16
ENDBRANCH   1  10
BRANCH   6  18
ATOM     18  O   UNL     1      -0.723   1.372   0.905  0.00  0.00    -0.493 OA
ATOM     19  C   UNL     1      -0.210   0.765  -0.283  0.00  0.00    +0.277 C 
ENDBRANCH   6  18
TORSDOF 4
