REMARK  Name = ZINC48594570
REMARK  10 active torsions:
REMARK  status: ('A' for Active; 'I' for Inactive)
REMARK    1  A    between atoms: C_1  and  C_2
REMARK    2  A    between atoms: C_2  and  C_4
REMARK    3  A    between atoms: C_2  and  N_19
REMARK    4  A    between atoms: N_6  and  S_7
REMARK    5  A    between atoms: S_7  and  C_10
REMARK    6  A    between atoms: C_20  and  O_22
REMARK    7  A    between atoms: O_22  and  C_23
REMARK    8  A    between atoms: C_23  and  C_24
REMARK    9  A    between atoms: C_23  and  C_25
REMARK   10  A    between atoms: C_23  and  C_26
REMARK                            x       y       z     vdW  Elec       q    Type
REMARK                         _______ _______ _______ _____ _____    ______ ____
ROOT
ATOM      1  C   UNL     1      -1.412  -0.526   0.013  0.00  0.00    +0.284 C 
ATOM      2  O   UNL     1      -2.021  -0.849  -1.147  0.00  0.00    -0.267 OA
ATOM      3  N   UNL     1      -2.040  -0.664   1.131  0.00  0.00    -0.089 NA
ENDROOT
BRANCH   3   4
ATOM      4  S   UNL     1      -3.594  -1.237   1.143  0.00  0.00    +0.105 S 
ATOM      5  O   UNL     1      -4.394  -0.255   0.499  0.00  0.00    -0.146 OA
ATOM      6  O   UNL     1      -3.533  -2.584   0.695  0.00  0.00    -0.146 OA
BRANCH   4   7
ATOM      7  C   UNL     1      -4.117  -1.288   2.825  0.00  0.00    +0.151 A 
ATOM      8  C   UNL     1      -5.152  -0.477   3.251  0.00  0.00    +0.035 A 
ATOM      9  C   UNL     1      -5.564  -0.515   4.570  0.00  0.00    +0.043 A 
ATOM     10  C   UNL     1      -4.942  -1.368   5.466  0.00  0.00    +0.161 A 
ATOM     11  C   UNL     1      -3.905  -2.182   5.040  0.00  0.00    +0.195 A 
ATOM     12  C   UNL     1      -3.496  -2.146   3.716  0.00  0.00    +0.188 A 
ATOM     13  F   UNL     1      -2.489  -2.943   3.297  0.00  0.00    -0.200 F 
ATOM     14  F   UNL     1      -3.296  -3.014   5.914  0.00  0.00    -0.199 F 
ATOM     15  F   UNL     1      -5.345  -1.405   6.755  0.00  0.00    -0.202 F 
ENDBRANCH   4   7
ENDBRANCH   3   4
BRANCH   1  17
ATOM     16  C   UNL     1      -0.019   1.526   0.010  0.00  0.00    +0.038 C 
ATOM     17  C   UNL     1       0.002  -0.004   0.002  0.00  0.00    +0.165 C 
BRANCH  17  18
ATOM     18  N   UNL     1       0.688  -0.476  -1.203  0.00  0.00    -0.270 N 
ATOM     19  C   UNL     1       2.031  -0.587  -1.215  0.00  0.00    +0.401 C 
ATOM     20  O   UNL     1       2.673  -0.295  -0.226  0.00  0.00    -0.226 OA
ATOM     21  H   UNL     1       0.175  -0.710  -1.993  0.00  0.00    +0.153 HD
BRANCH  19  22
ATOM     22  O   UNL     1       2.661  -1.021  -2.323  0.00  0.00    -0.445 OA
BRANCH  22  23
ATOM     23  C   UNL     1       4.086  -1.114  -2.264  0.00  0.00    +0.107 C 
ATOM     24  C   UNL     1       4.489  -2.087  -1.154  0.00  0.00    +0.055 C 
ATOM     25  C   UNL     1       4.619  -1.621  -3.606  0.00  0.00    +0.055 C 
ATOM     26  C   UNL     1       4.675   0.267  -1.971  0.00  0.00    +0.055 C 
ENDBRANCH  22  23
ENDBRANCH  19  22
ENDBRANCH  17  18
ENDBRANCH   1  17
TORSDOF 6
