REMARK  Name = ZINC08800378
REMARK  8 active torsions:
REMARK  status: ('A' for Active; 'I' for Inactive)
REMARK    1  A    between atoms: C_1  and  N_2
REMARK    2  A    between atoms: C_10  and  C_12
REMARK    3  A    between atoms: C_12  and  C_14
REMARK    4  A    between atoms: C_12  and  N_63
REMARK    5  A    between atoms: C_14  and  N_15
REMARK    6  A    between atoms: N_15  and  S_16
REMARK    7  A    between atoms: S_16  and  C_19
REMARK    8  A    between atoms: C_19  and  C_20
REMARK                            x       y       z     vdW  Elec       q    Type
REMARK                         _______ _______ _______ _____ _____    ______ ____
ROOT
ATOM      1  C   UNL     1       3.771  -2.036   4.884  0.00  0.00    -0.022 C 
ENDROOT
BRANCH   1  11
ATOM      2  C   UNL     1      -0.175  -1.328   0.003  0.00  0.00    +0.129 C 
ATOM      3  N   UNL     1       1.013  -0.481   0.174  0.00  0.00    -0.333 N 
ATOM      4  C   UNL     1       0.661   0.938   0.098  0.00  0.00    +0.105 C 
ATOM      5  C   UNL     1       1.932   1.771   0.310  0.00  0.00    +0.024 C 
ATOM      6  C   UNL     1       2.377   1.588   1.763  0.00  0.00    +0.038 C 
ATOM      7  C   UNL     1       2.362   0.122   2.117  0.00  0.00    -0.026 A 
ATOM      8  C   UNL     1       1.699  -0.813   1.342  0.00  0.00    +0.033 A 
ATOM      9  C   UNL     1       1.707  -2.154   1.729  0.00  0.00    +0.023 A 
ATOM     10  C   UNL     1       2.373  -2.547   2.870  0.00  0.00    +0.004 A 
ATOM     11  C   UNL     1       3.039  -1.609   3.638  0.00  0.00    -0.059 A 
ATOM     12  C   UNL     1       3.033  -0.281   3.261  0.00  0.00    +0.007 A 
ENDBRANCH   1  11
BRANCH   1  18
ATOM     13  C   UNL     1       5.062  -3.832   5.870  0.00  0.00    -0.078 C 
ATOM     14  C   UNL     1       5.638  -5.225   5.609  0.00  0.00    -0.019 C 
ATOM     15  C   UNL     1       6.688  -5.138   4.498  0.00  0.00    -0.004 C 
ATOM     16  C   UNL     1       6.042  -4.550   3.240  0.00  0.00    -0.019 C 
ATOM     17  C   UNL     1       5.455  -3.176   3.570  0.00  0.00    -0.078 C 
ATOM     18  N   UNL     1       4.434  -3.332   4.628  0.00  0.00    +0.385 N 
ATOM     19  H   UNL     1       3.730  -4.010   4.314  0.00  0.00    -0.081 HD
ENDBRANCH   1  18
BRANCH   1  20
ATOM     20  C   UNL     1       2.771  -2.207   6.030  0.00  0.00    +0.095 C 
BRANCH  20  21
ATOM     21  N   UNL     1       2.126  -0.922   6.310  0.00  0.00    -0.195 NA
ATOM     22  H   UNL     1       2.508  -0.101   5.962  0.00  0.00    +0.148 HD
BRANCH  21  23
ATOM     23  S   UNL     1       0.745  -0.871   7.222  0.00  0.00    +0.033 S 
ATOM     24  O   UNL     1       0.392   0.505   7.269  0.00  0.00    -0.158 OA
ATOM     25  O   UNL     1      -0.123  -1.822   6.620  0.00  0.00    -0.158 OA
BRANCH  23  26
ATOM     26  C   UNL     1       1.251  -1.442   8.868  0.00  0.00    +0.221 C 
BRANCH  26  27
ATOM     27  C   UNL     1       0.059  -1.436   9.790  0.00  0.00    -0.007 A 
ATOM     28  C   UNL     1      -0.234  -0.307  10.533  0.00  0.00    +0.007 A 
ATOM     29  C   UNL     1      -1.330  -0.300  11.376  0.00  0.00    +0.000 A 
ATOM     30  C   UNL     1      -2.127  -1.424  11.484  0.00  0.00    +0.001 A 
ATOM     31  C   UNL     1      -1.831  -2.555  10.747  0.00  0.00    +0.020 A 
ATOM     32  C   UNL     1      -0.737  -2.561   9.899  0.00  0.00    +0.046 A 
ATOM     33 CL   UNL     1      -0.365  -3.982   8.973  0.00  0.00    -0.083 Cl
ENDBRANCH  26  27
ENDBRANCH  23  26
ENDBRANCH  21  23
ENDBRANCH  20  21
ENDBRANCH   1  20
TORSDOF 7
