REMARK  Name = ZINC59762071
REMARK  8 active torsions:
REMARK  status: ('A' for Active; 'I' for Inactive)
REMARK    1  A    between atoms: C_1  and  C_2
REMARK    2  A    between atoms: C_5  and  C_12
REMARK    3  A    between atoms: C_7  and  N_8
REMARK    4  A    between atoms: C_9  and  C_11
REMARK    5  A    between atoms: N_14  and  C_15
REMARK    6  A    between atoms: C_17  and  N_23
REMARK    7  A    between atoms: C_20  and  O_21
REMARK    8  A    between atoms: O_21  and  C_22
REMARK                            x       y       z     vdW  Elec       q    Type
REMARK                         _______ _______ _______ _____ _____    ______ ____
ROOT
ATOM      1  C   UNL     1      -0.044  -4.460  -0.002  0.00  0.00    +0.248 C 
ATOM      2  O   UNL     1       0.008  -5.028   1.072  0.00  0.00    -0.270 OA
ATOM      3  N   UNL     1      -0.077  -5.177  -1.142  0.00  0.00    -0.278 N 
ATOM      4  H   UNL     1      -0.037  -4.726  -2.000  0.00  0.00    +0.155 HD
ENDROOT
BRANCH   1   9
ATOM      5  C   UNL     1      -0.151   1.294  -0.229  0.00  0.00    +0.045 C 
ATOM      6  C   UNL     1      -0.122  -0.212  -0.167  0.00  0.00    -0.029 A 
ATOM      7  C   UNL     1      -0.156  -0.950  -1.336  0.00  0.00    +0.006 A 
ATOM      8  C   UNL     1      -0.131  -2.328  -1.288  0.00  0.00    +0.013 A 
ATOM      9  C   UNL     1      -0.071  -2.983  -0.056  0.00  0.00    +0.039 A 
ATOM     10  C   UNL     1      -0.037  -2.239   1.123  0.00  0.00    +0.036 A 
ATOM     11  C   UNL     1      -0.057  -0.854   1.063  0.00  0.00    +0.037 A 
BRANCH  11  12
ATOM     12  N   UNL     1      -0.017  -0.102   2.243  0.00  0.00    -0.285 N 
ATOM     13  C   UNL     1      -0.633  -0.556   3.353  0.00  0.00    +0.214 C 
ATOM     14  O   UNL     1      -1.147  -1.655   3.354  0.00  0.00    -0.276 OA
ATOM     15  C   UNL     1      -0.682   0.300   4.592  0.00  0.00    +0.109 C 
ATOM     16  H   UNL     1       0.453   0.746   2.262  0.00  0.00    +0.155 HD
ENDBRANCH  11  12
ENDBRANCH   1   9
BRANCH   3  17
ATOM     17  C   UNL     1      -0.170  -6.574  -1.089  0.00  0.00    +0.078 A 
ATOM     18  C   UNL     1      -0.729  -7.192   0.020  0.00  0.00    +0.059 A 
ATOM     19  C   UNL     1      -0.819  -8.570   0.071  0.00  0.00    +0.128 A 
ATOM     20  C   UNL     1      -0.353  -9.336  -0.982  0.00  0.00    +0.036 A 
ATOM     21  C   UNL     1       0.205  -8.727  -2.091  0.00  0.00    +0.050 A 
ATOM     22  C   UNL     1       0.293  -7.346  -2.152  0.00  0.00    +0.141 A 
BRANCH  19  23
ATOM     23  N   UNL     1      -1.416  -9.228   1.255  0.00  0.00    +0.056 N 
ATOM     24  O   UNL     1      -1.823  -8.560   2.176  0.00  0.00    -0.126 OA
ATOM     25  O   UNL     1      -1.496 -10.433   1.300  0.00  0.00    -0.126 OA
ENDBRANCH  19  23
BRANCH  22  26
ATOM     26  O   UNL     1       0.837  -6.745  -3.244  0.00  0.00    -0.493 OA
ATOM     27  C   UNL     1       1.291  -7.599  -4.296  0.00  0.00    +0.277 C 
ENDBRANCH  22  26
ENDBRANCH   3  17
TORSDOF 5
