REMARK  Name = ZINC51644501
REMARK  7 active torsions:
REMARK  status: ('A' for Active; 'I' for Inactive)
REMARK    1  A    between atoms: C_2  and  C_3
REMARK    2  A    between atoms: C_3  and  N_4
REMARK    3  A    between atoms: C_5  and  C_7
REMARK    4  A    between atoms: C_7  and  N_8
REMARK    5  A    between atoms: N_11  and  C_12
REMARK    6  A    between atoms: C_15  and  S_18
REMARK    7  A    between atoms: S_18  and  C_19
REMARK                            x       y       z     vdW  Elec       q    Type
REMARK                         _______ _______ _______ _____ _____    ______ ____
ROOT
ATOM      1  N   UNL     1       1.855   7.173  -0.554  0.00  0.00    -0.291 N 
ATOM      2  C   UNL     1       3.015   7.858  -0.569  0.00  0.00    +0.304 C 
ATOM      3  O   UNL     1       3.068   8.952  -1.097  0.00  0.00    -0.252 OA
ATOM      4  N   UNL     1       4.116   7.331   0.003  0.00  0.00    -0.269 N 
ATOM      5  H   UNL     1       1.812   6.300  -0.133  0.00  0.00    +0.151 HD
ATOM      6  H   UNL     1       4.058   6.490   0.482  0.00  0.00    +0.156 HD
ENDROOT
BRANCH   4   7
ATOM      7  C   UNL     1       5.345   7.999  -0.096  0.00  0.00    +0.035 A 
ATOM      8  C   UNL     1       6.522   7.272  -0.213  0.00  0.00    +0.024 A 
ATOM      9  C   UNL     1       7.732   7.929  -0.310  0.00  0.00    +0.017 A 
ATOM     10  C   UNL     1       7.772   9.318  -0.291  0.00  0.00    +0.013 A 
ATOM     11  C   UNL     1       6.594  10.045  -0.174  0.00  0.00    +0.017 A 
ATOM     12  C   UNL     1       5.383   9.387  -0.083  0.00  0.00    +0.024 A 
BRANCH  10  13
ATOM     13  S   UNL     1       9.316  10.157  -0.414  0.00  0.00    -0.088 S 
BRANCH  13  14
ATOM     14  C   UNL     1       9.470  10.518  -2.131  0.00  0.00    +0.031 A 
ATOM     15  C   UNL     1       8.523  10.042  -3.030  0.00  0.00    +0.016 A 
ATOM     16  C   UNL     1       8.646  10.327  -4.376  0.00  0.00    +0.001 A 
ATOM     17  C   UNL     1       9.710  11.086  -4.830  0.00  0.00    +0.001 A 
ATOM     18  C   UNL     1      10.655  11.561  -3.939  0.00  0.00    +0.021 A 
ATOM     19  C   UNL     1      10.535  11.286  -2.590  0.00  0.00    +0.055 A 
ATOM     20 CL   UNL     1      11.716  11.889  -1.471  0.00  0.00    -0.082 Cl
ENDBRANCH  13  14
ENDBRANCH  10  13
ENDBRANCH   4   7
BRANCH   1  21
ATOM     21  C   UNL     1       0.658   7.745  -1.175  0.00  0.00    +0.201 C 
BRANCH  21  23
ATOM     22  N   UNL     1      -1.706   7.105  -1.521  0.00  0.00    -0.303 N 
ATOM     23  C   UNL     1      -0.495   6.787  -1.023  0.00  0.00    +0.231 C 
ATOM     24  O   UNL     1      -0.333   5.729  -0.452  0.00  0.00    -0.274 OA
ATOM     25  H   UNL     1      -1.836   7.950  -1.978  0.00  0.00    +0.150 HD
BRANCH  22  26
ATOM     26  C   UNL     1      -2.827   6.173  -1.373  0.00  0.00    +0.193 C 
BRANCH  26  28
ATOM     27  C   UNL     1      -4.988   7.207  -2.495  0.00  0.00    +0.005 C 
ATOM     28  C   UNL     1      -4.029   6.748  -1.997  0.00  0.00    -0.087 C 
ENDBRANCH  26  28
ENDBRANCH  22  26
ENDBRANCH  21  23
ENDBRANCH   1  21
TORSDOF 7
