REMARK  Name = ZINC02680239
REMARK  6 active torsions:
REMARK  status: ('A' for Active; 'I' for Inactive)
REMARK    1  A    between atoms: C_3  and  S_25
REMARK    2  A    between atoms: C_6  and  N_7
REMARK    3  A    between atoms: C_8  and  C_10
REMARK    4  A    between atoms: C_10  and  S_11
REMARK    5  A    between atoms: S_11  and  C_12
REMARK    6  A    between atoms: S_25  and  N_28
REMARK                            x       y       z     vdW  Elec       q    Type
REMARK                         _______ _______ _______ _____ _____    ______ ____
ROOT
ATOM      1  N   UNL     1      -7.039  -0.755  -5.704  0.00  0.00    -0.285 N 
ATOM      2  C   UNL     1      -6.001  -0.433  -4.907  0.00  0.00    +0.227 C 
ATOM      3  O   UNL     1      -4.887  -0.325  -5.376  0.00  0.00    -0.275 OA
ATOM      4  H   UNL     1      -7.917  -0.907  -5.320  0.00  0.00    +0.155 HD
ENDROOT
BRANCH   1  10
ATOM      5  C   UNL     1      -7.860  -0.490  -7.960  0.00  0.00    +0.025 A 
ATOM      6  C   UNL     1      -7.668  -0.600  -9.323  0.00  0.00    +0.030 A 
ATOM      7  C   UNL     1      -6.478  -1.102  -9.818  0.00  0.00    +0.105 A 
ATOM      8  C   UNL     1      -5.474  -1.489  -8.949  0.00  0.00    +0.030 A 
ATOM      9  C   UNL     1      -5.657  -1.375  -7.585  0.00  0.00    +0.025 A 
ATOM     10  C   UNL     1      -6.851  -0.872  -7.086  0.00  0.00    +0.034 A 
BRANCH   7  11
ATOM     11  S   UNL     1      -6.241  -1.249 -11.557  0.00  0.00    +0.056 S 
ATOM     12  O   UNL     1      -7.118  -0.312 -12.167  0.00  0.00    -0.153 OA
ATOM     13  O   UNL     1      -4.838  -1.235 -11.779  0.00  0.00    -0.153 OA
BRANCH  11  14
ATOM     14  N   UNL     1      -6.775  -2.753 -11.999  0.00  0.00    -0.204 NA
ATOM     15  H   UNL     1      -7.140  -2.897 -12.886  0.00  0.00    +0.144 HD
ATOM     16  H   UNL     1      -6.721  -3.490 -11.371  0.00  0.00    +0.144 HD
ENDBRANCH  11  14
ENDBRANCH   7  11
ENDBRANCH   1  10
BRANCH   2  17
ATOM     17  C   UNL     1      -6.224  -0.205  -3.434  0.00  0.00    +0.171 C 
BRANCH  17  18
ATOM     18  S   UNL     1      -4.650   0.209  -2.643  0.00  0.00    -0.096 S 
BRANCH  18  19
ATOM     19  C   UNL     1      -5.190   0.417  -0.978  0.00  0.00    +0.109 A 
ATOM     20  C   UNL     1      -4.290   0.762   0.072  0.00  0.00    +0.043 A 
ATOM     21  C   UNL     1      -2.858   0.988  -0.037  0.00  0.00    -0.025 A 
ATOM     22  C   UNL     1      -2.205   1.306   1.104  0.00  0.00    -0.004 A 
ATOM     23  S   UNL     1      -3.453   1.321   2.368  0.00  0.00    -0.073 S 
ATOM     24  C   UNL     1      -4.845   0.901   1.369  0.00  0.00    +0.113 A 
ATOM     25  N   UNL     1      -6.125   0.729   1.632  0.00  0.00    -0.228 NA
ATOM     26  C   UNL     1      -6.908   0.408   0.609  0.00  0.00    +0.223 A 
ATOM     27  N   UNL     1      -6.464   0.262  -0.623  0.00  0.00    -0.229 NA
ATOM     28  C   UNL     1      -0.739   1.584   1.266  0.00  0.00    +0.043 C 
ATOM     29  C   UNL     1      -0.013   1.096   0.005  0.00  0.00    +0.005 C 
ATOM     30  C   UNL     1      -0.765   1.609  -1.226  0.00  0.00    +0.005 C 
ATOM     31  C   UNL     1      -2.102   0.879  -1.359  0.00  0.00    +0.037 C 
ENDBRANCH  18  19
ENDBRANCH  17  18
ENDBRANCH   2  17
TORSDOF 6
