REMARK  Name = ZINC18045940
REMARK  6 active torsions:
REMARK  status: ('A' for Active; 'I' for Inactive)
REMARK    1  A    between atoms: C_1  and  C_2
REMARK    2  A    between atoms: C_5  and  S_8
REMARK    3  A    between atoms: S_8  and  N_11
REMARK    4  A    between atoms: C_14  and  N_23
REMARK    5  A    between atoms: N_23  and  C_24
REMARK    6  A    between atoms: C_27  and  O_30
REMARK                            x       y       z     vdW  Elec       q    Type
REMARK                         _______ _______ _______ _____ _____    ______ ____
ROOT
ATOM      1  N   UNL     1       1.816  -5.082   0.229  0.00  0.00    -0.128 NA
ATOM      2  C   UNL     1       2.079  -6.348   0.046  0.00  0.00    +0.095 C 
ATOM      3  C   UNL     1       0.999  -7.344   0.081  0.00  0.00    +0.057 C 
ATOM      4  C   UNL     1       1.212  -8.601  -0.375  0.00  0.00    +0.081 C 
ATOM      5  C   UNL     1       2.533  -8.985  -0.913  0.00  0.00    +0.208 C 
ATOM      6  O   UNL     1       2.663 -10.016  -1.545  0.00  0.00    -0.285 OA
ATOM      7  C   UNL     1       3.693  -8.103  -0.676  0.00  0.00    +0.033 A 
ATOM      8  C   UNL     1       3.470  -6.796  -0.207  0.00  0.00    +0.013 A 
ATOM      9  C   UNL     1       4.548  -5.953   0.017  0.00  0.00    +0.011 A 
ATOM     10  C   UNL     1       5.834  -6.402  -0.228  0.00  0.00    +0.001 A 
ATOM     11  C   UNL     1       6.053  -7.686  -0.694  0.00  0.00    +0.001 A 
ATOM     12  C   UNL     1       4.992  -8.541  -0.912  0.00  0.00    +0.012 A 
ENDROOT
BRANCH   1  13
ATOM     13  S   UNL     1       0.260  -4.591   0.510  0.00  0.00    +0.099 S 
ATOM     14  O   UNL     1      -0.116  -5.134   1.768  0.00  0.00    -0.146 OA
ATOM     15  O   UNL     1      -0.470  -4.853  -0.681  0.00  0.00    -0.146 OA
BRANCH  13  20
ATOM     16  C   UNL     1       0.368   1.404   1.182  0.00  0.00    +0.044 C 
ATOM     17  C   UNL     1       0.341  -0.094   1.014  0.00  0.00    -0.050 A 
ATOM     18  C   UNL     1       0.160  -0.645  -0.240  0.00  0.00    +0.005 A 
ATOM     19  C   UNL     1       0.135  -2.019  -0.394  0.00  0.00    +0.029 A 
ATOM     20  C   UNL     1       0.292  -2.841   0.706  0.00  0.00    +0.112 A 
ATOM     21  C   UNL     1       0.475  -2.289   1.960  0.00  0.00    +0.029 A 
ATOM     22  C   UNL     1       0.504  -0.915   2.114  0.00  0.00    +0.005 A 
ENDBRANCH  13  20
ENDBRANCH   1  13
BRANCH   4  23
ATOM     23  N   UNL     1       0.185  -9.532  -0.336  0.00  0.00    -0.311 N 
ATOM     24  H   UNL     1      -0.648  -9.356  -0.801  0.00  0.00    +0.152 HD
BRANCH  23  25
ATOM     25  C   UNL     1       0.349 -10.725   0.375  0.00  0.00    +0.032 A 
ATOM     26  C   UNL     1       1.473 -10.910   1.172  0.00  0.00    +0.027 A 
ATOM     27  C   UNL     1       1.635 -12.088   1.873  0.00  0.00    +0.047 A 
ATOM     28  C   UNL     1       0.676 -13.087   1.783  0.00  0.00    +0.117 A 
ATOM     29  C   UNL     1      -0.446 -12.903   0.988  0.00  0.00    +0.047 A 
ATOM     30  C   UNL     1      -0.613 -11.723   0.290  0.00  0.00    +0.027 A 
BRANCH  28  31
ATOM     31  O   UNL     1       0.837 -14.247   2.473  0.00  0.00    -0.507 OA
ATOM     32  H   UNL     1       0.453 -14.233   3.361  0.00  0.00    +0.292 HD
ENDBRANCH  28  31
ENDBRANCH  23  25
ENDBRANCH   4  23
TORSDOF 5
