REMARK  Name = ZINC14971804
REMARK  8 active torsions:
REMARK  status: ('A' for Active; 'I' for Inactive)
REMARK    1  A    between atoms: C_1  and  C_2
REMARK    2  A    between atoms: C_4  and  C_8
REMARK    3  A    between atoms: N_6  and  C_7
REMARK    4  A    between atoms: C_8  and  N_9
REMARK    5  A    between atoms: C_10  and  C_12
REMARK    6  A    between atoms: C_12  and  C_13
REMARK    7  A    between atoms: C_20  and  C_21
REMARK    8  A    between atoms: C_20  and  N_57
REMARK                            x       y       z     vdW  Elec       q    Type
REMARK                         _______ _______ _______ _____ _____    ______ ____
ROOT
ATOM      1  C   UNL     1       2.804   2.110  -1.997  0.00  0.00    +0.028 C 
ATOM      2  C   UNL     1       3.055   1.913  -3.465  0.00  0.00    +0.200 C 
ATOM      3  O   UNL     1       2.439   1.046  -4.048  0.00  0.00    -0.278 OA
ATOM      4  N   UNL     1       3.929   2.652  -4.156  0.00  0.00    -0.318 N 
ATOM      5  C   UNL     1       4.745   3.696  -3.542  0.00  0.00    +0.085 C 
ATOM      6  C   UNL     1       4.148   4.102  -2.193  0.00  0.00    -0.058 C 
ATOM      7  H   UNL     1       4.024   2.489  -5.107  0.00  0.00    +0.149 HD
ATOM      8  N   UNL     1       3.918   2.874  -1.406  0.00  0.00    +0.391 N 
ATOM      9  H   UNL     1       4.768   2.299  -1.426  0.00  0.00    -0.080 HD
ENDROOT
BRANCH   1  10
ATOM     10  C   UNL     1       2.716   0.746  -1.309  0.00  0.00    +0.089 C 
BRANCH  10  12
ATOM     11  N   UNL     1       4.231  -1.141  -0.802  0.00  0.00    -0.310 N 
ATOM     12  C   UNL     1       4.042   0.040  -1.422  0.00  0.00    +0.212 C 
ATOM     13  O   UNL     1       4.939   0.535  -2.071  0.00  0.00    -0.276 OA
ATOM     14  H   UNL     1       3.514  -1.537  -0.282  0.00  0.00    +0.149 HD
BRANCH  11  15
ATOM     15  C   UNL     1       5.521  -1.828  -0.911  0.00  0.00    +0.161 C 
BRANCH  15  19
ATOM     16  C   UNL     1       4.977  -6.756   0.253  0.00  0.00    +0.065 C 
ATOM     17  C   UNL     1       5.229  -5.274   0.360  0.00  0.00    +0.036 A 
ATOM     18  C   UNL     1       5.171  -4.380  -0.654  0.00  0.00    +0.049 A 
ATOM     19  C   UNL     1       5.471  -3.117  -0.133  0.00  0.00    +0.080 A 
ATOM     20  N   UNL     1       5.708  -3.250   1.147  0.00  0.00    -0.175 NA
ATOM     21  N   UNL     1       5.556  -4.601   1.483  0.00  0.00    -0.271 N 
ATOM     22  C   UNL     1       5.726  -5.183   2.817  0.00  0.00    +0.172 C 
ENDBRANCH  15  19
ENDBRANCH  11  15
ENDBRANCH  10  12
ENDBRANCH   1  10
BRANCH   8  23
ATOM     23  C   UNL     1       3.605   3.222  -0.001  0.00  0.00    -0.041 C 
BRANCH  23  24
ATOM     24  C   UNL     1       4.754   4.005   0.580  0.00  0.00    -0.056 A 
ATOM     25  C   UNL     1       5.757   3.362   1.238  0.00  0.00    +0.002 A 
ATOM     26  C   UNL     1       6.827   4.069   1.782  0.00  0.00    +0.001 A 
ATOM     27  C   UNL     1       6.902   5.423   1.671  0.00  0.00    +0.008 A 
ATOM     28  C   UNL     1       5.885   6.122   0.998  0.00  0.00    -0.018 A 
ATOM     29  C   UNL     1       4.796   5.403   0.445  0.00  0.00    -0.017 A 
ATOM     30  C   UNL     1       3.779   6.103  -0.227  0.00  0.00    +0.009 A 
ATOM     31  C   UNL     1       3.853   7.457  -0.338  0.00  0.00    +0.001 A 
ATOM     32  C   UNL     1       4.926   8.164   0.202  0.00  0.00    +0.001 A 
ATOM     33  C   UNL     1       5.927   7.521   0.864  0.00  0.00    +0.008 A 
ENDBRANCH  23  24
ENDBRANCH   8  23
TORSDOF 6
