REMARK  Name = ZINC49121986
REMARK  4 active torsions:
REMARK  status: ('A' for Active; 'I' for Inactive)
REMARK    1  A    between atoms: C_4  and  N_8
REMARK    2  A    between atoms: C_9  and  C_13
REMARK    3  A    between atoms: C_15  and  N_20
REMARK    4  A    between atoms: C_17  and  N_19
REMARK                            x       y       z     vdW  Elec       q    Type
REMARK                         _______ _______ _______ _____ _____    ______ ____
ROOT
ATOM      1  N   UNL     1       3.626  -0.675  -0.213  0.00  0.00    -0.192 N 
ATOM      2  C   UNL     1       3.824  -2.000   0.045  0.00  0.00    +0.187 A 
ATOM      3  N   UNL     1       5.123  -2.176   0.165  0.00  0.00    -0.108 NA
ATOM      4  N   UNL     1       5.745  -1.065   0.002  0.00  0.00    -0.022 NA
ATOM      5  N   UNL     1       4.913  -0.110  -0.236  0.00  0.00    -0.039 NA
ENDROOT
BRANCH   1   9
ATOM      6  C   UNL     1      -0.009   1.275  -0.821  0.00  0.00    +0.016 A 
ATOM      7  C   UNL     1       0.840   1.698   0.185  0.00  0.00    +0.018 A 
ATOM      8  C   UNL     1       2.046   1.053   0.389  0.00  0.00    +0.043 A 
ATOM      9  C   UNL     1       2.404  -0.020  -0.418  0.00  0.00    +0.084 A 
ATOM     10  C   UNL     1       1.549  -0.442  -1.426  0.00  0.00    +0.044 A 
ATOM     11  C   UNL     1       0.344   0.207  -1.626  0.00  0.00    +0.020 A 
ATOM     12 BR   UNL     1      -0.822  -0.367  -3.000  0.00  0.00    -0.050 Br
ATOM     13 BR   UNL     1       3.207   1.632   1.764  0.00  0.00    -0.048 Br
ENDBRANCH   1   9
BRANCH   2  14
ATOM     14  C   UNL     1       2.778  -3.040   0.167  0.00  0.00    +0.025 A 
ATOM     15  C   UNL     1       1.456  -2.675   0.415  0.00  0.00    +0.034 A 
ATOM     16  C   UNL     1       0.478  -3.652   0.529  0.00  0.00    +0.027 A 
ATOM     17  C   UNL     1       0.815  -4.993   0.396  0.00  0.00    +0.045 A 
ATOM     18  C   UNL     1       2.132  -5.359   0.150  0.00  0.00    +0.027 A 
ATOM     19  C   UNL     1       3.113  -4.386   0.029  0.00  0.00    +0.034 A 
BRANCH  18  20
ATOM     20  N   UNL     1       2.467  -6.709   0.018  0.00  0.00    -0.358 N 
ATOM     21  H   UNL     1       1.781  -7.389   0.098  0.00  0.00    +0.142 HD
ATOM     22  H   UNL     1       3.387  -6.965  -0.155  0.00  0.00    +0.142 HD
ENDBRANCH  18  20
BRANCH  16  23
ATOM     23  N   UNL     1      -0.848  -3.288   0.777  0.00  0.00    -0.358 N 
ATOM     24  H   UNL     1      -1.097  -2.351   0.797  0.00  0.00    +0.142 HD
ATOM     25  H   UNL     1      -1.518  -3.972   0.929  0.00  0.00    +0.142 HD
ENDBRANCH  16  23
ENDBRANCH   2  14
TORSDOF 4
