REMARK  Name = ZINC12581339
REMARK  10 active torsions:
REMARK  status: ('A' for Active; 'I' for Inactive)
REMARK    1  A    between atoms: C_1  and  C_2
REMARK    2  A    between atoms: C_4  and  C_35
REMARK    3  A    between atoms: C_5  and  C_34
REMARK    4  A    between atoms: C_6  and  S_9
REMARK    5  A    between atoms: C_7  and  C_8
REMARK    6  A    between atoms: S_9  and  N_12
REMARK    7  A    between atoms: N_15  and  C_18
REMARK    8  A    between atoms: C_18  and  C_19
REMARK    9  A    between atoms: C_19  and  C_21
REMARK   10  A    between atoms: C_21  and  C_32
REMARK                            x       y       z     vdW  Elec       q    Type
REMARK                         _______ _______ _______ _____ _____    ______ ____
ROOT
ATOM      1  N   UNL     1       0.319   3.710  -0.891  0.00  0.00    -0.174 NA
ATOM      2  C   UNL     1       1.147   3.637   0.323  0.00  0.00    +0.125 C 
ATOM      3  C   UNL     1       1.832   2.266   0.363  0.00  0.00    +0.102 C 
ATOM      4  N   UNL     1       0.817   1.212   0.238  0.00  0.00    -0.293 NA
ATOM      5  C   UNL     1       0.128   1.285  -1.057  0.00  0.00    +0.102 C 
ATOM      6  C   UNL     1      -0.627   2.615  -1.155  0.00  0.00    +0.125 C 
ENDROOT
BRANCH   1   7
ATOM      7  S   UNL     1       0.449   4.991  -1.932  0.00  0.00    +0.061 S 
ATOM      8  O   UNL     1      -0.826   5.152  -2.539  0.00  0.00    -0.153 OA
ATOM      9  O   UNL     1       1.086   6.037  -1.212  0.00  0.00    -0.153 OA
BRANCH   7  15
ATOM     10  C   UNL     1       1.404   3.326  -6.794  0.00  0.00    +0.044 C 
ATOM     11  C   UNL     1       1.940   3.748  -5.450  0.00  0.00    -0.045 A 
ATOM     12  C   UNL     1       3.303   3.759  -5.222  0.00  0.00    +0.007 A 
ATOM     13  C   UNL     1       3.795   4.146  -3.989  0.00  0.00    -0.045 A 
ATOM     14  C   UNL     1       2.923   4.522  -2.985  0.00  0.00    -0.021 A 
ATOM     15  C   UNL     1       1.560   4.512  -3.213  0.00  0.00    +0.112 A 
ATOM     16  C   UNL     1       1.068   4.119  -4.444  0.00  0.00    -0.021 A 
ATOM     17  C   UNL     1      -0.419   4.102  -4.690  0.00  0.00    +0.046 C 
ATOM     18  C   UNL     1       3.459   4.944  -1.641  0.00  0.00    +0.046 C 
ATOM     19  C   UNL     1       5.281   4.157  -3.741  0.00  0.00    +0.044 C 
ENDBRANCH   7  15
ENDBRANCH   1   7
BRANCH   4  20
ATOM     20  C   UNL     1       1.410  -0.117   0.444  0.00  0.00    +0.165 C 
BRANCH  20  21
ATOM     21  C   UNL     1       0.314  -1.145   0.554  0.00  0.00    +0.190 C 
ATOM     22  O   UNL     1      -0.850  -0.804   0.469  0.00  0.00    -0.290 OA
BRANCH  21  23
ATOM     23  C   UNL     1       0.637  -2.495   0.754  0.00  0.00    +0.133 C 
ATOM     24  C   UNL     1      -0.390  -3.458   0.857  0.00  0.00    +0.132 C 
ATOM     25  N   UNL     1      -1.720  -3.238   0.790  0.00  0.00    -0.221 N 
ATOM     26  N   UNL     1      -2.348  -4.475   0.956  0.00  0.00    -0.170 NA
ATOM     27  C   UNL     1      -1.422  -5.407   1.122  0.00  0.00    +0.121 C 
ATOM     28  N   UNL     1      -0.241  -4.792   1.050  0.00  0.00    -0.273 N 
ATOM     29  C   UNL     1       1.018  -5.521   1.158  0.00  0.00    +0.113 C 
ATOM     30  C   UNL     1       0.806  -7.025   1.317  0.00  0.00    +0.019 C 
ATOM     31  C   UNL     1       0.146  -7.474   0.028  0.00  0.00    +0.002 C 
ATOM     32  C   UNL     1      -1.391  -7.745   0.190  0.00  0.00    +0.008 C 
ATOM     33  C   UNL     1      -1.848  -6.827   1.346  0.00  0.00    +0.073 C 
ATOM     34  H   UNL     1      -2.324  -2.331   0.640  0.00  0.00    +0.176 HD
BRANCH  23  35
ATOM     35  C   UNL     1       2.008  -2.896   0.854  0.00  0.00    +0.106 C 
ATOM     36  N   UNL     1       3.095  -3.215   0.934  0.00  0.00    -0.191 NA
ENDBRANCH  23  35
ENDBRANCH  21  23
ENDBRANCH  20  21
ENDBRANCH   4  20
TORSDOF 6
