REMARK  Name = ZINC00209426
REMARK  4 active torsions:
REMARK  status: ('A' for Active; 'I' for Inactive)
REMARK    1  A    between atoms: C_1  and  C_2
REMARK    2  A    between atoms: C_5  and  C_7
REMARK    3  A    between atoms: C_11  and  C_22
REMARK    4  A    between atoms: C_13  and  C_15
REMARK                            x       y       z     vdW  Elec       q    Type
REMARK                         _______ _______ _______ _____ _____    ______ ____
ROOT
ATOM      1  C   UNL     1      -3.542   2.627   3.252  0.00  0.00    +0.088 C 
ATOM      2  C   UNL     1      -3.465   4.075   3.740  0.00  0.00    +0.040 C 
ATOM      3  C   UNL     1      -4.661   4.399   4.587  0.00  0.00    -0.027 C 
ATOM      4  C   UNL     1      -5.437   3.508   5.117  0.00  0.00    -0.076 C 
ATOM      5  C   UNL     1      -5.255   2.028   4.951  0.00  0.00    +0.039 C 
ATOM      6  C   UNL     1      -3.842   1.720   4.452  0.00  0.00    +0.035 C 
ATOM      7  C   UNL     1      -6.595   3.988   5.954  0.00  0.00    +0.039 C 
ENDROOT
BRANCH   6   8
ATOM      8  C   UNL     1      -3.753   0.276   4.031  0.00  0.00    -0.043 A 
ATOM      9  C   UNL     1      -4.587  -0.207   3.039  0.00  0.00    +0.005 A 
ATOM     10  C   UNL     1      -4.501  -1.530   2.648  0.00  0.00    +0.020 A 
ATOM     11  C   UNL     1      -3.589  -2.374   3.257  0.00  0.00    +0.041 A 
ATOM     12  C   UNL     1      -2.759  -1.891   4.253  0.00  0.00    +0.020 A 
ATOM     13  C   UNL     1      -2.841  -0.566   4.639  0.00  0.00    +0.005 A 
ATOM     14 CL   UNL     1      -3.486  -4.037   2.772  0.00  0.00    -0.084 Cl
ENDBRANCH   6   8
BRANCH   1  19
ATOM     15  C   UNL     1      -0.013   1.086   0.008  0.00  0.00    +0.111 C 
ATOM     16  C   UNL     1      -0.718   1.572   1.248  0.00  0.00    +0.214 A 
ATOM     17  N   UNL     1      -0.165   1.830   2.398  0.00  0.00    -0.113 NA
ATOM     18  N   UNL     1      -1.066   2.224   3.227  0.00  0.00    -0.112 NA
ATOM     19  C   UNL     1      -2.226   2.230   2.634  0.00  0.00    +0.221 A 
ATOM     20  O   UNL     1      -2.032   1.823   1.368  0.00  0.00    -0.425 OA
ENDBRANCH   1  19
TORSDOF 2
