REMARK  Name = ZINC20532210
REMARK  13 active torsions:
REMARK  status: ('A' for Active; 'I' for Inactive)
REMARK    1  A    between atoms: C_1  and  C_2
REMARK    2  A    between atoms: C_2  and  N_3
REMARK    3  A    between atoms: C_9  and  N_30
REMARK    4  A    between atoms: C_10  and  C_11
REMARK    5  A    between atoms: C_11  and  C_13
REMARK    6  A    between atoms: C_11  and  N_18
REMARK    7  A    between atoms: C_13  and  C_14
REMARK    8  A    between atoms: C_14  and  C_15
REMARK    9  A    between atoms: C_15  and  C_16
REMARK   10  A    between atoms: C_15  and  C_17
REMARK   11  A    between atoms: N_21  and  C_22
REMARK   12  A    between atoms: C_22  and  C_23
REMARK   13  A    between atoms: C_26  and  C_29
REMARK                            x       y       z     vdW  Elec       q    Type
REMARK                         _______ _______ _______ _____ _____    ______ ____
ROOT
ATOM      1  C   UNL     1       1.647  -5.566  -3.173  0.00  0.00    +0.108 C 
ENDROOT
BRANCH   1   9
ATOM      2  N   UNL     1       4.607  -8.983  -5.676  0.00  0.00    +0.383 N 
ATOM      3  C   UNL     1       3.837  -9.232  -4.449  0.00  0.00    -0.074 C 
ATOM      4  C   UNL     1       3.411  -7.906  -3.813  0.00  0.00    +0.018 C 
ATOM      5  C   UNL     1       2.717  -7.066  -4.881  0.00  0.00    -0.034 A 
ATOM      6  C   UNL     1       2.894  -7.377  -6.196  0.00  0.00    -0.021 A 
ATOM      7  S   UNL     1       1.921  -6.170  -7.052  0.00  0.00    -0.077 S 
ATOM      8  C   UNL     1       1.309  -5.293  -5.620  0.00  0.00    +0.090 A 
ATOM      9  C   UNL     1       1.894  -5.978  -4.601  0.00  0.00    +0.007 A 
ATOM     10  C   UNL     1       3.725  -8.486  -6.750  0.00  0.00    -0.035 C 
ATOM     11  H   UNL     1       5.357  -8.209  -5.456  0.00  0.00    -0.081 HD
BRANCH   8  12
ATOM     12  N   UNL     1       0.453  -4.187  -5.562  0.00  0.00    -0.317 N 
ATOM     13  C   UNL     1      -0.079  -3.651  -4.424  0.00  0.00    +0.092 A 
ATOM     14  C   UNL     1      -0.847  -2.598  -4.774  0.00  0.00    +0.019 A 
ATOM     15  C   UNL     1      -0.796  -2.485  -6.177  0.00  0.00    +0.019 A 
ATOM     16  C   UNL     1       0.006  -3.470  -6.634  0.00  0.00    +0.092 A 
ENDBRANCH   8  12
BRANCH   2  18
ATOM     17  C   UNL     1       4.328 -11.332  -6.309  0.00  0.00    -0.017 C 
ATOM     18  C   UNL     1       5.326 -10.191  -6.101  0.00  0.00    -0.082 C 
ENDBRANCH   2  18
ENDBRANCH   1   9
BRANCH   1  19
ATOM     19  N   UNL     1       1.849  -4.121  -3.040  0.00  0.00    -0.292 N 
ATOM     20  C   UNL     1       2.147  -3.590  -1.838  0.00  0.00    +0.300 C 
ATOM     21  O   UNL     1       2.249  -4.310  -0.863  0.00  0.00    -0.253 OA
ATOM     22  N   UNL     1       2.333  -2.260  -1.716  0.00  0.00    -0.295 N 
ATOM     23  H   UNL     1       1.757  -3.469  -3.922  0.00  0.00    +0.151 HD
ATOM     24  H   UNL     1       2.241  -1.609  -2.597  0.00  0.00    +0.151 HD
BRANCH  22  25
ATOM     25  C   UNL     1       2.657  -1.683  -0.409  0.00  0.00    +0.141 C 
BRANCH  25  26
ATOM     26  C   UNL     1       2.813  -0.190  -0.544  0.00  0.00    -0.030 A 
ATOM     27  C   UNL     1       1.718   0.637  -0.379  0.00  0.00    +0.005 A 
ATOM     28  C   UNL     1       1.861   2.006  -0.502  0.00  0.00    +0.003 A 
ATOM     29  C   UNL     1       3.099   2.549  -0.789  0.00  0.00    -0.050 A 
ATOM     30  C   UNL     1       4.194   1.722  -0.956  0.00  0.00    +0.003 A 
ATOM     31  C   UNL     1       4.051   0.352  -0.832  0.00  0.00    +0.005 A 
ATOM     32  C   UNL     1       3.255   4.042  -0.924  0.00  0.00    +0.044 C 
ENDBRANCH  25  26
ENDBRANCH  22  25
ENDBRANCH   1  19
BRANCH   1  33
ATOM     33  C   UNL     1       0.211  -5.918  -2.781  0.00  0.00    +0.027 C 
BRANCH  33  34
ATOM     34  C   UNL     1      -0.002  -5.614  -1.297  0.00  0.00    +0.005 C 
BRANCH  34  35
ATOM     35  C   UNL     1      -1.439  -5.967  -0.905  0.00  0.00    -0.017 C 
ATOM     36  C   UNL     1      -1.616  -5.781   0.603  0.00  0.00    +0.007 C 
ATOM     37  C   UNL     1      -2.410  -5.049  -1.650  0.00  0.00    +0.007 C 
ENDBRANCH  34  35
ENDBRANCH  33  34
ENDBRANCH   1  33
TORSDOF 9
