REMARK  Name = ZINC13978329
REMARK  11 active torsions:
REMARK  status: ('A' for Active; 'I' for Inactive)
REMARK    1  A    between atoms: C_1  and  C_2
REMARK    2  A    between atoms: C_2  and  C_3
REMARK    3  A    between atoms: C_6  and  O_10
REMARK    4  A    between atoms: O_10  and  C_11
REMARK    5  A    between atoms: C_11  and  C_12
REMARK    6  A    between atoms: N_14  and  C_15
REMARK    7  A    between atoms: C_15  and  N_17
REMARK    8  A    between atoms: N_17  and  C_18
REMARK    9  A    between atoms: C_19  and  C_27
REMARK   10  A    between atoms: C_27  and  O_29
REMARK   11  A    between atoms: O_29  and  C_30
REMARK                            x       y       z     vdW  Elec       q    Type
REMARK                         _______ _______ _______ _____ _____    ______ ____
ROOT
ATOM      1  C   UNL     1      -3.546   5.915   8.177  0.00  0.00    +0.141 C 
ATOM      2  S   UNL     1      -4.749   4.823   8.717  0.00  0.00    -0.018 S 
ENDROOT
BRANCH   1   5
ATOM      3  C   UNL     1      -3.042   4.483   6.404  0.00  0.00    +0.256 C 
ATOM      4  O   UNL     1      -3.894   3.709   6.786  0.00  0.00    -0.272 OA
ATOM      5  N   UNL     1      -2.821   5.629   7.078  0.00  0.00    -0.265 N 
ATOM      6  H   UNL     1      -2.139   6.248   6.771  0.00  0.00    +0.157 HD
BRANCH   3   7
ATOM      7  C   UNL     1      -2.231   4.163   5.175  0.00  0.00    +0.325 C 
BRANCH   7   8
ATOM      8  O   UNL     1      -2.649   2.904   4.642  0.00  0.00    -0.482 OA
BRANCH   8  12
ATOM      9  C   UNL     1      -0.718   1.572   1.248  0.00  0.00    -0.046 A 
ATOM     10  C   UNL     1      -0.359   2.779   1.818  0.00  0.00    +0.007 A 
ATOM     11  C   UNL     1      -1.008   3.230   2.951  0.00  0.00    +0.047 A 
ATOM     12  C   UNL     1      -2.013   2.465   3.524  0.00  0.00    +0.135 A 
ATOM     13  C   UNL     1      -2.368   1.251   2.954  0.00  0.00    +0.060 A 
ATOM     14  C   UNL     1      -1.719   0.807   1.817  0.00  0.00    +0.022 A 
ATOM     15 BR   UNL     1      -3.737   0.204   3.732  0.00  0.00    -0.047 Br
BRANCH   9  17
ATOM     16  C   UNL     1      -0.753   1.593  -1.232  0.00  0.00    +0.009 C 
ATOM     17  C   UNL     1      -0.013   1.086   0.008  0.00  0.00    +0.032 C 
ENDBRANCH   9  17
ENDBRANCH   8  12
ENDBRANCH   7   8
ENDBRANCH   3   7
ENDBRANCH   1   5
BRANCH   1  18
ATOM     18  N   UNL     1      -3.325   7.061   8.851  0.00  0.00    -0.290 N 
ATOM     19  H   UNL     1      -2.644   7.680   8.545  0.00  0.00    +0.154 HD
BRANCH  18  20
ATOM     20  C   UNL     1      -4.070   7.355   9.980  0.00  0.00    +0.086 A 
ATOM     21  C   UNL     1      -3.987   8.471  10.804  0.00  0.00    +0.091 A 
ATOM     22  C   UNL     1      -4.897   8.539  11.935  0.00  0.00    -0.021 A 
ATOM     23  C   UNL     1      -5.730   7.485  12.068  0.00  0.00    -0.004 A 
ATOM     24  S   UNL     1      -5.329   6.417  10.714  0.00  0.00    -0.077 S 
ATOM     25  C   UNL     1      -6.763   7.279  13.132  0.00  0.00    +0.043 C 
ATOM     26  C   UNL     1      -6.486   8.267  14.274  0.00  0.00    +0.005 C 
ATOM     27  C   UNL     1      -6.264   9.660  13.678  0.00  0.00    +0.005 C 
ATOM     28  C   UNL     1      -4.933   9.698  12.924  0.00  0.00    +0.037 C 
BRANCH  21  29
ATOM     29  C   UNL     1      -3.021   9.539  10.540  0.00  0.00    +0.342 C 
ATOM     30  O   UNL     1      -3.331  10.478   9.832  0.00  0.00    -0.245 OA
BRANCH  29  31
ATOM     31  O   UNL     1      -1.787   9.481  11.082  0.00  0.00    -0.464 OA
ATOM     32  C   UNL     1      -0.882  10.575  10.777  0.00  0.00    +0.280 C 
ENDBRANCH  29  31
ENDBRANCH  21  29
ENDBRANCH  18  20
ENDBRANCH   1  18
TORSDOF 9
