REMARK  Name = ZINC20142804
REMARK  7 active torsions:
REMARK  status: ('A' for Active; 'I' for Inactive)
REMARK    1  A    between atoms: C_4  and  C_25
REMARK    2  A    between atoms: C_6  and  N_7
REMARK    3  A    between atoms: C_8  and  C_10
REMARK    4  A    between atoms: C_12  and  N_22
REMARK    5  A    between atoms: C_15  and  N_16
REMARK    6  A    between atoms: C_28  and  C_30
REMARK    7  A    between atoms: C_30  and  O_31
REMARK                            x       y       z     vdW  Elec       q    Type
REMARK                         _______ _______ _______ _____ _____    ______ ____
ROOT
ATOM      1  N   UNL     1      -1.200  -0.720   0.010  0.00  0.00    -0.281 N 
ATOM      2  C   UNL     1      -2.373  -0.066   0.126  0.00  0.00    +0.250 C 
ATOM      3  O   UNL     1      -2.393   1.150   0.133  0.00  0.00    -0.270 OA
ATOM      4  H   UNL     1      -1.189  -1.687  -0.063  0.00  0.00    +0.155 HD
ENDROOT
BRANCH   1  10
ATOM      5  C   UNL     1       1.139  -0.542   0.584  0.00  0.00    +0.025 A 
ATOM      6  C   UNL     1       2.329   0.161   0.572  0.00  0.00    +0.022 A 
ATOM      7  C   UNL     1       2.396   1.404  -0.027  0.00  0.00    +0.052 A 
ATOM      8  C   UNL     1       1.257   1.954  -0.622  0.00  0.00    +0.037 A 
ATOM      9  C   UNL     1       0.057   1.243  -0.609  0.00  0.00    +0.036 A 
ATOM     10  C   UNL     1       0.002  -0.004  -0.006  0.00  0.00    +0.034 A 
ATOM     11 CL   UNL     1       3.893   2.283  -0.039  0.00  0.00    -0.083 Cl
BRANCH   8  12
ATOM     12  C   UNL     1       1.325   3.284  -1.263  0.00  0.00    +0.137 A 
ATOM     13  C   UNL     1       1.844   4.411  -0.709  0.00  0.00    +0.050 A 
ATOM     14  C   UNL     1       1.702   5.437  -1.665  0.00  0.00    +0.047 A 
ATOM     15  C   UNL     1       1.110   4.890  -2.745  0.00  0.00    +0.131 A 
ATOM     16  O   UNL     1       0.888   3.588  -2.501  0.00  0.00    -0.457 OA
BRANCH  15  17
ATOM     17  C   UNL     1       0.759   5.617  -4.017  0.00  0.00    +0.230 C 
BRANCH  17  18
ATOM     18  O   UNL     1       1.858   5.541  -4.928  0.00  0.00    -0.387 OA
ATOM     19  H   UNL     1       1.702   5.989  -5.771  0.00  0.00    +0.210 HD
ENDBRANCH  17  18
ENDBRANCH  15  17
ENDBRANCH   8  12
ENDBRANCH   1  10
BRANCH   2  20
ATOM     20  C   UNL     1      -3.631  -0.825   0.245  0.00  0.00    +0.060 A 
ATOM     21  C   UNL     1      -3.612  -2.222   0.243  0.00  0.00    +0.047 A 
ATOM     22  C   UNL     1      -4.792  -2.925   0.355  0.00  0.00    +0.127 A 
ATOM     23  C   UNL     1      -5.999  -2.254   0.468  0.00  0.00    +0.034 A 
ATOM     24  C   UNL     1      -6.035  -0.875   0.471  0.00  0.00    +0.026 A 
ATOM     25  C   UNL     1      -4.855  -0.148   0.366  0.00  0.00    +0.042 A 
BRANCH  25  26
ATOM     26  N   UNL     1      -4.887   1.240   0.376  0.00  0.00    -0.329 N 
ATOM     27  C   UNL     1      -5.032   1.994  -0.877  0.00  0.00    +0.105 C 
ATOM     28  C   UNL     1      -6.215   2.957  -0.738  0.00  0.00    +0.019 C 
ATOM     29  C   UNL     1      -6.013   3.832   0.501  0.00  0.00    +0.003 C 
ATOM     30  C   UNL     1      -5.963   2.947   1.749  0.00  0.00    +0.019 C 
ATOM     31  C   UNL     1      -4.783   1.983   1.639  0.00  0.00    +0.105 C 
ENDBRANCH  25  26
BRANCH  22  32
ATOM     32  N   UNL     1      -4.769  -4.405   0.353  0.00  0.00    +0.056 N 
ATOM     33  O   UNL     1      -3.718  -4.994   0.253  0.00  0.00    -0.126 OA
ATOM     34  O   UNL     1      -5.802  -5.026   0.450  0.00  0.00    -0.126 OA
ENDBRANCH  22  32
ENDBRANCH   2  20
TORSDOF 7
