REMARK  Name = ZINC38952783
REMARK  5 active torsions:
REMARK  status: ('A' for Active; 'I' for Inactive)
REMARK    1  A    between atoms: C_3  and  C_6
REMARK    2  A    between atoms: C_6  and  N_7
REMARK    3  A    between atoms: N_7  and  C_8
REMARK    4  A    between atoms: C_8  and  C_9
REMARK    5  A    between atoms: C_24  and  C_26
REMARK                            x       y       z     vdW  Elec       q    Type
REMARK                         _______ _______ _______ _____ _____    ______ ____
ROOT
ATOM      1  N   UNL     1       4.380   2.141   1.191  0.00  0.00    -0.289 N 
ATOM      2  C   UNL     1       3.716   3.099   1.867  0.00  0.00    +0.222 C 
ATOM      3  O   UNL     1       3.020   3.892   1.270  0.00  0.00    -0.275 OA
ENDROOT
BRANCH   2   4
ATOM      4  C   UNL     1       3.840   3.185   3.367  0.00  0.00    +0.048 C 
ATOM      5  C   UNL     1       3.239   1.929   4.001  0.00  0.00    +0.019 C 
ATOM      6  C   UNL     1       3.364   2.017   5.524  0.00  0.00    -0.009 C 
ATOM      7  C   UNL     1       2.613   3.251   6.027  0.00  0.00    +0.007 C 
ATOM      8  C   UNL     1       3.214   4.507   5.393  0.00  0.00    -0.009 C 
ATOM      9  C   UNL     1       3.089   4.420   3.870  0.00  0.00    +0.019 C 
ATOM     10  C   UNL     1       4.691   4.617   5.777  0.00  0.00    +0.007 C 
ATOM     11  C   UNL     1       5.442   3.382   5.274  0.00  0.00    -0.009 C 
ATOM     12  C   UNL     1       4.841   2.126   5.908  0.00  0.00    +0.007 C 
ATOM     13  C   UNL     1       5.316   3.295   3.752  0.00  0.00    +0.019 C 
ENDBRANCH   2   4
BRANCH   1  14
ATOM     14  C   UNL     1       4.156   1.971  -0.247  0.00  0.00    +0.150 C 
BRANCH  14  17
ATOM     15  C   UNL     1       0.700   0.441  -0.725  0.00  0.00    +0.008 A 
ATOM     16  C   UNL     1       1.642   1.428  -0.506  0.00  0.00    +0.013 A 
ATOM     17  C   UNL     1       2.953   1.089  -0.468  0.00  0.00    +0.007 A 
ATOM     18  S   UNL     1       2.888  -0.673  -0.746  0.00  0.00    -0.100 S 
ATOM     19  C   UNL     1       1.116  -0.838  -0.895  0.00  0.00    +0.045 A 
ENDBRANCH  14  17
ENDBRANCH   1  14
BRANCH   1  20
ATOM     20  C   UNL     1       5.324   1.269   1.893  0.00  0.00    +0.181 C 
BRANCH  20  21
ATOM     21  C   UNL     1       6.724   1.799   1.716  0.00  0.00    +0.141 C 
ATOM     22  N   UNL     1       6.890   2.893   1.012  0.00  0.00    -0.160 NA
ATOM     23  C   UNL     1       8.091   3.439   0.795  0.00  0.00    +0.271 C 
ATOM     24  O   UNL     1       8.208   4.461   0.140  0.00  0.00    -0.268 OA
ATOM     25  C   UNL     1       9.287   2.757   1.385  0.00  0.00    +0.071 C 
ATOM     26  C   UNL     1      10.583   3.091   1.243  0.00  0.00    -0.042 C 
ATOM     27  C   UNL     1      11.085   4.169   0.286  0.00  0.00    +0.033 C 
ATOM     28  C   UNL     1      12.136   3.506  -0.615  0.00  0.00    +0.004 C 
ATOM     29  C   UNL     1      13.199   2.813   0.234  0.00  0.00    +0.002 C 
ATOM     30  C   UNL     1      12.583   1.677   1.057  0.00  0.00    +0.019 C 
ATOM     31  C   UNL     1      11.588   2.278   2.052  0.00  0.00    +0.079 C 
ATOM     32  S   UNL     1      10.530   0.957   2.756  0.00  0.00    -0.097 S 
ATOM     33  C   UNL     1       8.964   1.543   2.161  0.00  0.00    +0.112 C 
ATOM     34  N   UNL     1       7.721   1.139   2.283  0.00  0.00    -0.226 NA
ENDBRANCH  20  21
ENDBRANCH   1  20
TORSDOF 5
