REMARK  Name = ZINC22288843
REMARK  5 active torsions:
REMARK  status: ('A' for Active; 'I' for Inactive)
REMARK    1  A    between atoms: C_5  and  N_7
REMARK    2  A    between atoms: C_9  and  C_14
REMARK    3  A    between atoms: C_14  and  N_16
REMARK    4  A    between atoms: C_19  and  C_22
REMARK    5  A    between atoms: C_22  and  N_23
REMARK                            x       y       z     vdW  Elec       q    Type
REMARK                         _______ _______ _______ _____ _____    ______ ____
ROOT
ATOM      1  C   UNL     1       1.597  -5.391   1.468  0.00  0.00    +0.243 C 
ATOM      2  O   UNL     1       2.409  -5.074   2.317  0.00  0.00    -0.273 OA
ENDROOT
BRANCH   1   3
ATOM      3  N   UNL     1       1.378  -6.673   1.206  0.00  0.00    -0.156 NA
ATOM      4  C   UNL     1       2.048  -7.615   1.874  0.00  0.00    +0.163 A 
ATOM      5  N   UNL     1       1.964  -8.966   1.741  0.00  0.00    -0.341 N 
ATOM      6  C   UNL     1       2.745  -9.752   2.529  0.00  0.00    +0.008 A 
ATOM      7  C   UNL     1       3.558  -9.137   3.396  0.00  0.00    +0.067 A 
ATOM      8  S   UNL     1       3.206  -7.419   3.077  0.00  0.00    -0.061 S 
ATOM      9  H   UNL     1       1.357  -9.361   1.096  0.00  0.00    +0.167 HD
BRANCH   6  10
ATOM     10  C   UNL     1       2.697 -11.255   2.430  0.00  0.00    -0.024 C 
BRANCH  10  11
ATOM     11  N   UNL     1       1.371 -11.731   2.846  0.00  0.00    +0.383 N 
ATOM     12  C   UNL     1       1.166 -11.420   4.266  0.00  0.00    -0.078 C 
ATOM     13  C   UNL     1      -0.245 -11.841   4.685  0.00  0.00    -0.019 C 
ATOM     14  C   UNL     1      -0.410 -13.347   4.461  0.00  0.00    -0.004 C 
ATOM     15  C   UNL     1      -0.120 -13.670   2.993  0.00  0.00    -0.019 C 
ATOM     16  C   UNL     1       1.286 -13.181   2.636  0.00  0.00    -0.078 C 
ATOM     17  H   UNL     1       0.662 -11.270   2.297  0.00  0.00    -0.081 HD
ENDBRANCH  10  11
ENDBRANCH   6  10
ENDBRANCH   1   3
BRANCH   1  20
ATOM     18  N   UNL     1       1.237  -2.080  -0.022  0.00  0.00    -0.269 N 
ATOM     19  C   UNL     1       1.257  -2.916   1.184  0.00  0.00    +0.127 C 
ATOM     20  C   UNL     1       0.841  -4.327   0.715  0.00  0.00    +0.103 C 
ATOM     21  C   UNL     1       1.258  -4.300  -0.774  0.00  0.00    +0.110 C 
ATOM     22  C   UNL     1       1.237  -2.832  -1.137  0.00  0.00    +0.221 C 
ATOM     23  O   UNL     1       1.224  -2.396  -2.269  0.00  0.00    -0.275 OA
BRANCH  18  28
ATOM     24  C   UNL     1      -0.017   1.377   0.010  0.00  0.00    +0.002 A 
ATOM     25  C   UNL     1       1.170   2.087   0.002  0.00  0.00    +0.002 A 
ATOM     26  C   UNL     1       2.380   1.417  -0.013  0.00  0.00    +0.022 A 
ATOM     27  C   UNL     1       2.406   0.035  -0.022  0.00  0.00    +0.062 A 
ATOM     28  C   UNL     1       1.214  -0.681  -0.014  0.00  0.00    +0.055 A 
ATOM     29  C   UNL     1       0.002  -0.004   0.002  0.00  0.00    +0.025 A 
ATOM     30 CL   UNL     1       3.924  -0.806  -0.043  0.00  0.00    -0.082 Cl
ENDBRANCH  18  28
ENDBRANCH   1  20
TORSDOF 5
