REMARK  Name = ZINC07927733
REMARK  3 active torsions:
REMARK  status: ('A' for Active; 'I' for Inactive)
REMARK    1  A    between atoms: C_9  and  N_14
REMARK    2  A    between atoms: N_14  and  S_15
REMARK    3  A    between atoms: S_15  and  C_18
REMARK                            x       y       z     vdW  Elec       q    Type
REMARK                         _______ _______ _______ _____ _____    ______ ____
ROOT
ATOM      1  N   UNL     1      -1.280   2.086  -0.013  0.00  0.00    -0.216 N 
ATOM      2  H   UNL     1      -2.018   1.812  -0.580  0.00  0.00    +0.174 HD
ENDROOT
BRANCH   1  11
ATOM      3  C   UNL     1       3.117  -2.614   3.066  0.00  0.00    +0.001 A 
ATOM      4  C   UNL     1       4.307  -2.801   2.382  0.00  0.00    +0.004 A 
ATOM      5  C   UNL     1       4.563  -2.111   1.216  0.00  0.00    +0.047 A 
ATOM      6  C   UNL     1       3.623  -1.218   0.715  0.00  0.00    +0.136 A 
ATOM      7  C   UNL     1       2.420  -1.030   1.409  0.00  0.00    +0.028 A 
ATOM      8  C   UNL     1       2.173  -1.731   2.585  0.00  0.00    +0.012 A 
ATOM      9  C   UNL     1       1.658  -0.037   0.628  0.00  0.00    +0.030 A 
ATOM     10  C   UNL     1       0.413   0.562   0.781  0.00  0.00    +0.036 A 
ATOM     11  C   UNL     1      -0.025   1.483  -0.157  0.00  0.00    +0.049 A 
ATOM     12  C   UNL     1       0.780   1.804  -1.246  0.00  0.00    +0.028 A 
ATOM     13  C   UNL     1       2.015   1.212  -1.401  0.00  0.00    +0.049 A 
ATOM     14  C   UNL     1       2.469   0.286  -0.469  0.00  0.00    +0.136 A 
ATOM     15  O   UNL     1       3.614  -0.428  -0.381  0.00  0.00    -0.455 OA
ENDBRANCH   1  11
BRANCH   1  16
ATOM     16  S   UNL     1      -1.505   3.267   1.126  0.00  0.00    +0.072 S 
ATOM     17  O   UNL     1      -2.847   3.712   0.989  0.00  0.00    -0.150 OA
ATOM     18  O   UNL     1      -0.993   2.756   2.348  0.00  0.00    -0.150 OA
BRANCH  16  19
ATOM     19  C   UNL     1      -0.476   4.625   0.677  0.00  0.00    +0.109 A 
ATOM     20  C   UNL     1       0.837   4.672   1.109  0.00  0.00    +0.030 A 
ATOM     21  C   UNL     1       1.650   5.730   0.758  0.00  0.00    +0.025 A 
ATOM     22  C   UNL     1       1.149   6.766  -0.027  0.00  0.00    +0.037 A 
ATOM     23  C   UNL     1      -0.173   6.710  -0.451  0.00  0.00    -0.016 A 
ATOM     24  C   UNL     1      -0.981   5.651  -0.103  0.00  0.00    +0.034 A 
ATOM     25  C   UNL     1      -0.411   7.958  -1.270  0.00  0.00    +0.133 C 
ATOM     26  C   UNL     1       0.920   8.679  -1.237  0.00  0.00    +0.222 C 
ATOM     27  O   UNL     1       1.180   9.736  -1.772  0.00  0.00    -0.275 OA
ATOM     28  N   UNL     1       1.758   7.928  -0.503  0.00  0.00    -0.285 N 
ATOM     29  H   UNL     1       2.682   8.165  -0.325  0.00  0.00    +0.155 HD
ENDBRANCH  16  19
ENDBRANCH   1  16
TORSDOF 3
