REMARK  Name = ZINC42380247
REMARK  4 active torsions:
REMARK  status: ('A' for Active; 'I' for Inactive)
REMARK    1  A    between atoms: C_5  and  C_7
REMARK    2  A    between atoms: C_10  and  C_12
REMARK    3  A    between atoms: C_19  and  C_21
REMARK    4  A    between atoms: C_21  and  N_22
REMARK                            x       y       z     vdW  Elec       q    Type
REMARK                         _______ _______ _______ _____ _____    ______ ____
ROOT
ATOM      1  C   UNL     1       0.401  -6.172  -0.044  0.00  0.00    +0.064 C 
ATOM      2  C   UNL     1       0.938  -6.864  -1.300  0.00  0.00    +0.013 C 
ATOM      3  C   UNL     1       0.464  -8.319  -1.325  0.00  0.00    +0.020 C 
ATOM      4  C   UNL     1       1.012  -9.052  -0.097  0.00  0.00    +0.108 C 
ATOM      5  N   UNL     1       0.621  -8.311   1.110  0.00  0.00    -0.299 N 
ATOM      6  C   UNL     1       0.948  -6.881   1.199  0.00  0.00    +0.118 C 
ATOM      7  C   UNL     1      -0.025  -8.931   2.117  0.00  0.00    +0.236 C 
ATOM      8  O   UNL     1      -0.342  -8.308   3.108  0.00  0.00    -0.274 OA
ENDROOT
BRANCH   1  12
ATOM      9  C   UNL     1       1.248  -2.161  -0.023  0.00  0.00    +0.135 A 
ATOM     10  N   UNL     1       2.282  -2.995  -0.032  0.00  0.00    -0.141 NA
ATOM     11  N   UNL     1       2.059  -4.239  -0.039  0.00  0.00    -0.146 NA
ATOM     12  C   UNL     1       0.842  -4.731  -0.037  0.00  0.00    +0.107 A 
ATOM     13  S   UNL     1      -0.101  -3.334  -0.016  0.00  0.00    -0.050 S 
BRANCH   9  18
ATOM     14  C   UNL     1      -0.017   1.375   0.010  0.00  0.00    +0.001 A 
ATOM     15  C   UNL     1       1.170   2.087   0.002  0.00  0.00    +0.003 A 
ATOM     16  C   UNL     1       2.382   1.423  -0.013  0.00  0.00    +0.039 A 
ATOM     17  C   UNL     1       2.416   0.041  -0.021  0.00  0.00    +0.133 A 
ATOM     18  C   UNL     1       1.221  -0.683  -0.014  0.00  0.00    +0.044 A 
ATOM     19  C   UNL     1       0.002  -0.004   0.002  0.00  0.00    +0.013 A 
ATOM     20  F   UNL     1       3.601  -0.608  -0.037  0.00  0.00    -0.205 F 
ENDBRANCH   9  18
ENDBRANCH   1  12
BRANCH   7  21
ATOM     21  C   UNL     1      -0.354 -10.397   2.012  0.00  0.00    +0.224 C 
BRANCH  21  22
ATOM     22  N   UNL     1      -1.052 -10.830   3.225  0.00  0.00    -0.265 N 
ATOM     23  C   UNL     1      -0.458 -11.323   4.387  0.00  0.00    +0.091 A 
ATOM     24  C   UNL     1       0.857 -11.553   4.759  0.00  0.00    +0.030 A 
ATOM     25  C   UNL     1       1.137 -12.063   6.012  0.00  0.00    +0.002 A 
ATOM     26  C   UNL     1       0.109 -12.345   6.894  0.00  0.00    +0.004 A 
ATOM     27  C   UNL     1      -1.204 -12.119   6.530  0.00  0.00    +0.048 A 
ATOM     28  C   UNL     1      -1.495 -11.607   5.275  0.00  0.00    +0.157 A 
ATOM     29  O   UNL     1      -2.656 -11.289   4.653  0.00  0.00    -0.407 OA
ATOM     30  C   UNL     1      -2.384 -10.818   3.426  0.00  0.00    +0.422 A 
ATOM     31  O   UNL     1      -3.212 -10.442   2.618  0.00  0.00    -0.223 OA
ENDBRANCH  21  22
ENDBRANCH   7  21
TORSDOF 4
