REMARK  Name = ZINC09704407
REMARK  5 active torsions:
REMARK  status: ('A' for Active; 'I' for Inactive)
REMARK    1  A    between atoms: C_1  and  O_2
REMARK    2  A    between atoms: O_2  and  C_3
REMARK    3  A    between atoms: C_6  and  C_8
REMARK    4  A    between atoms: C_12  and  N_13
REMARK    5  A    between atoms: C_14  and  C_16
REMARK                            x       y       z     vdW  Elec       q    Type
REMARK                         _______ _______ _______ _____ _____    ______ ____
ROOT
ATOM      1  C   UNL     1       6.112   3.594  -0.043  0.00  0.00    +0.069 A 
ATOM      2  C   UNL     1       7.566   3.506  -0.049  0.00  0.00    -0.023 A 
ATOM      3  C   UNL     1       8.060   2.249  -0.065  0.00  0.00    -0.004 A 
ATOM      4  S   UNL     1       6.634   1.197  -0.055  0.00  0.00    -0.077 S 
ATOM      5  C   UNL     1       5.394   2.406  -0.036  0.00  0.00    +0.085 A 
ATOM      6  C   UNL     1       9.498   1.832  -0.099  0.00  0.00    +0.043 C 
ATOM      7  C   UNL     1      10.275   2.603   0.976  0.00  0.00    +0.005 C 
ATOM      8  C   UNL     1      10.790   3.901   0.360  0.00  0.00    +0.001 C 
ATOM      9  C   UNL     1       9.802   4.414  -0.686  0.00  0.00    +0.005 C 
ATOM     10  C   UNL     1       8.461   4.739  -0.037  0.00  0.00    +0.037 C 
ENDROOT
BRANCH   1  14
ATOM     11  C   UNL     1       4.483   6.679  -1.203  0.00  0.00    +0.407 C 
ATOM     12  O   UNL     1       4.208   7.218  -0.149  0.00  0.00    -0.226 OA
ATOM     13  N   UNL     1       5.110   5.486  -1.206  0.00  0.00    -0.217 N 
ATOM     14  C   UNL     1       5.431   4.891  -0.040  0.00  0.00    +0.255 C 
ATOM     15  O   UNL     1       5.156   5.431   1.015  0.00  0.00    -0.270 OA
ATOM     16  H   UNL     1       5.329   5.055  -2.046  0.00  0.00    +0.161 HD
BRANCH  11  18
ATOM     17  C   UNL     1       3.489   8.557  -2.288  0.00  0.00    +0.282 C 
ATOM     18  O   UNL     1       4.162   7.273  -2.367  0.00  0.00    -0.453 OA
ENDBRANCH  11  18
ENDBRANCH   1  14
BRANCH   5  19
ATOM     19  N   UNL     1       4.021   2.231  -0.024  0.00  0.00    -0.273 N 
ATOM     20  C   UNL     1       3.501   0.987  -0.026  0.00  0.00    +0.287 C 
ATOM     21  O   UNL     1       4.237   0.020  -0.038  0.00  0.00    -0.266 OA
ATOM     22  H   UNL     1       3.433   3.002  -0.015  0.00  0.00    +0.156 HD
BRANCH  20  23
ATOM     23  C   UNL     1       2.038   0.800  -0.013  0.00  0.00    +0.222 A 
ATOM     24  C   UNL     1       1.361  -0.389  -0.013  0.00  0.00    +0.077 A 
ATOM     25  C   UNL     1       0.002  -0.004   0.002  0.00  0.00    +0.157 A 
ATOM     26  N   UNL     1      -0.016   1.297   0.009  0.00  0.00    -0.086 NA
ATOM     27  O   UNL     1       1.099   1.765   0.001  0.00  0.00    -0.350 OA
ENDBRANCH  20  23
ENDBRANCH   5  19
TORSDOF 4
