REMARK  Name = ZINC15830467
REMARK  6 active torsions:
REMARK  status: ('A' for Active; 'I' for Inactive)
REMARK    1  A    between atoms: C_1  and  C_2
REMARK    2  A    between atoms: C_5  and  C_8
REMARK    3  A    between atoms: CA_11  and  C_28
REMARK    4  A    between atoms: C_17  and  C_18
REMARK    5  A    between atoms: N_20  and  C_21
REMARK    6  A    between atoms: C_26  and  C_27
REMARK                            x       y       z     vdW  Elec       q    Type
REMARK                         _______ _______ _______ _____ _____    ______ ____
ROOT
ATOM      1  C   UNL     1       2.598   5.154  -0.023  0.00  0.00    +0.145 C 
ATOM      2  C   UNL     1       2.424   3.660  -0.026  0.00  0.00    +0.094 C 
ATOM      3  CA  UNL     1       1.239   3.060  -0.013  0.00  0.00    +0.134 C 
ATOM      4  N   UNL     1       0.041   3.794   0.009  0.00  0.00    -0.225 NA
ATOM      5  C   UNL     1       0.129   5.146  -0.257  0.00  0.00    +0.164 A 
ATOM      6  N   UNL     1       1.314   5.805  -0.284  0.00  0.00    -0.238 N 
ATOM      7  N   UNL     1       1.062   7.141  -0.586  0.00  0.00    -0.176 NA
ATOM      8  C   UNL     1      -0.224   7.313  -0.734  0.00  0.00    +0.149 A 
ATOM      9  C   UNL     1      -0.866   6.065  -0.532  0.00  0.00    +0.100 A 
ENDROOT
BRANCH   1  14
ATOM     10  C   UNL     1       4.581   6.821   5.142  0.00  0.00    +0.044 C 
ATOM     11  C   UNL     1       4.064   6.386   3.796  0.00  0.00    -0.050 A 
ATOM     12  C   UNL     1       4.806   6.638   2.656  0.00  0.00    +0.004 A 
ATOM     13  C   UNL     1       4.331   6.239   1.421  0.00  0.00    +0.006 A 
ATOM     14  C   UNL     1       3.116   5.588   1.324  0.00  0.00    -0.023 A 
ATOM     15  C   UNL     1       2.372   5.341   2.463  0.00  0.00    +0.006 A 
ATOM     16  C   UNL     1       2.849   5.735   3.699  0.00  0.00    +0.004 A 
ENDBRANCH   1  14
BRANCH   9  17
ATOM     17  C   UNL     1      -2.308   5.800  -0.603  0.00  0.00    +0.253 C 
ATOM     18  O   UNL     1      -2.730   4.675  -0.408  0.00  0.00    -0.270 OA
ATOM     19  N   UNL     1      -3.164   6.802  -0.884  0.00  0.00    -0.281 N 
ATOM     20  H   UNL     1      -2.794   7.834  -0.970  0.00  0.00    +0.155 HD
BRANCH  19  21
ATOM     21  C   UNL     1      -4.524   6.529  -1.065  0.00  0.00    +0.037 A 
ATOM     22  C   UNL     1      -4.932   5.264  -1.469  0.00  0.00    +0.023 A 
ATOM     23  C   UNL     1      -6.276   4.998  -1.647  0.00  0.00    +0.002 A 
ATOM     24  C   UNL     1      -7.214   5.990  -1.423  0.00  0.00    +0.000 A 
ATOM     25  C   UNL     1      -6.811   7.250  -1.021  0.00  0.00    +0.005 A 
ATOM     26  C   UNL     1      -5.469   7.521  -0.837  0.00  0.00    -0.029 A 
ATOM     27  C   UNL     1      -5.030   8.893  -0.393  0.00  0.00    +0.045 C 
ENDBRANCH  19  21
ENDBRANCH   9  17
BRANCH   3  28
ATOM     28  C   UNL     1       1.179   1.587  -0.015  0.00  0.00    +0.401 C 
ATOM     29  O   UNL     1       2.206   0.938  -0.034  0.00  0.00    -0.239 OA
ATOM     30  OXT UNL     1      -0.014   0.961   0.004  0.00  0.00    -0.239 OA
ENDBRANCH   3  28
TORSDOF 4
