REMARK  Name = ZINC09602021
REMARK  7 active torsions:
REMARK  status: ('A' for Active; 'I' for Inactive)
REMARK    1  A    between atoms: C_1  and  C_2
REMARK    2  A    between atoms: C_2  and  C_33
REMARK    3  A    between atoms: C_6  and  C_23
REMARK    4  A    between atoms: C_11  and  C_13
REMARK    5  A    between atoms: C_16  and  N_19
REMARK    6  A    between atoms: N_19  and  C_20
REMARK    7  A    between atoms: N_19  and  C_21
REMARK                            x       y       z     vdW  Elec       q    Type
REMARK                         _______ _______ _______ _____ _____    ______ ____
ROOT
ATOM      1  C   UNL     1       0.626   3.955   3.428  0.00  0.00    +0.011 C 
ATOM      2  C   UNL     1      -0.836   4.344   3.658  0.00  0.00    -0.023 C 
ATOM      3  C   UNL     1      -1.347   5.157   2.467  0.00  0.00    +0.058 C 
ATOM      4  C   UNL     1      -1.271   4.321   1.211  0.00  0.00    +0.020 C 
ATOM      5  C   UNL     1      -1.413   2.979   1.261  0.00  0.00    +0.041 C 
ATOM      6  C   UNL     1      -1.341   2.115   0.021  0.00  0.00    +0.175 C 
ATOM      7  N   UNL     1      -1.431   2.946  -1.173  0.00  0.00    -0.220 N 
ATOM      8  C   UNL     1      -1.292   4.296  -1.155  0.00  0.00    +0.219 A 
ATOM      9  N   UNL     1      -1.416   4.733  -2.377  0.00  0.00    -0.193 NA
ATOM     10  C   UNL     1      -1.641   3.698  -3.204  0.00  0.00    +0.183 A 
ATOM     11  N   UNL     1      -1.659   2.584  -2.500  0.00  0.00    -0.147 NA
ATOM     12  N   UNL     1      -1.060   4.983   0.025  0.00  0.00    -0.287 N 
ATOM     13  C   UNL     1      -1.634   2.322   2.486  0.00  0.00    +0.164 C 
ATOM     14  O   UNL     1      -1.779   1.116   2.495  0.00  0.00    -0.292 OA
ATOM     15  C   UNL     1      -1.693   3.080   3.782  0.00  0.00    +0.086 C 
ATOM     16  C   UNL     1      -0.954   5.175   4.937  0.00  0.00    +0.011 C 
ATOM     17  H   UNL     1      -0.759   5.905   0.015  0.00  0.00    +0.155 HD
ENDROOT
BRANCH   6  18
ATOM     18  C   UNL     1      -0.035   1.364   0.010  0.00  0.00    -0.018 A 
ATOM     19  C   UNL     1       1.161   2.057  -0.000  0.00  0.00    +0.007 A 
ATOM     20  C   UNL     1       2.359   1.369  -0.017  0.00  0.00    +0.020 A 
ATOM     21  C   UNL     1       2.362  -0.015  -0.022  0.00  0.00    +0.041 A 
ATOM     22  C   UNL     1       1.165  -0.708  -0.011  0.00  0.00    +0.020 A 
ATOM     23  C   UNL     1      -0.033  -0.019   0.005  0.00  0.00    +0.007 A 
ATOM     24 CL   UNL     1       3.866  -0.880  -0.042  0.00  0.00    -0.084 Cl
ENDBRANCH   6  18
BRANCH  10  25
ATOM     25  C   UNL     1      -1.838   3.794  -4.672  0.00  0.00    +0.021 A 
ATOM     26  C   UNL     1      -2.059   2.640  -5.423  0.00  0.00    +0.013 A 
ATOM     27  C   UNL     1      -2.248   2.732  -6.785  0.00  0.00    +0.024 A 
ATOM     28  C   UNL     1      -2.205   3.972  -7.412  0.00  0.00    +0.029 A 
ATOM     29  C   UNL     1      -1.979   5.123  -6.666  0.00  0.00    +0.024 A 
ATOM     30  C   UNL     1      -1.796   5.037  -5.302  0.00  0.00    +0.013 A 
BRANCH  28  31
ATOM     31  N   UNL     1      -2.390   4.062  -8.793  0.00  0.00    -0.336 N 
ATOM     32  C   UNL     1      -2.471   5.376  -9.437  0.00  0.00    +0.129 C 
ATOM     33  C   UNL     1      -2.502   2.843  -9.598  0.00  0.00    +0.129 C 
ENDBRANCH  28  31
ENDBRANCH  10  25
TORSDOF 3
