REMARK  Name = ZINC19458784
REMARK  6 active torsions:
REMARK  status: ('A' for Active; 'I' for Inactive)
REMARK    1  A    between atoms: C_1  and  C_2
REMARK    2  A    between atoms: C_2  and  C_4
REMARK    3  A    between atoms: C_2  and  N_14
REMARK    4  A    between atoms: C_15  and  C_17
REMARK    5  A    between atoms: C_17  and  C_18
REMARK    6  A    between atoms: N_22  and  C_26
REMARK                            x       y       z     vdW  Elec       q    Type
REMARK                         _______ _______ _______ _____ _____    ______ ____
ROOT
ATOM      1  N   UNL     1      -0.721   1.571  -1.179  0.00  0.00    -0.309 N 
ATOM      2  C   UNL     1      -0.620   0.902  -2.344  0.00  0.00    +0.216 C 
ATOM      3  O   UNL     1       0.057  -0.102  -2.411  0.00  0.00    -0.276 OA
ATOM      4  H   UNL     1      -1.336   2.482  -1.119  0.00  0.00    +0.149 HD
ENDROOT
BRANCH   1   6
ATOM      5  C   UNL     1       1.423   1.615  -0.003  0.00  0.00    +0.033 C 
ATOM      6  C   UNL     1      -0.013   1.086   0.008  0.00  0.00    +0.100 C 
BRANCH   6   7
ATOM      7  C   UNL     1      -0.718   1.572   1.248  0.00  0.00    -0.027 A 
ATOM      8  C   UNL     1      -1.224   2.857   1.299  0.00  0.00    +0.006 A 
ATOM      9  C   UNL     1      -1.872   3.294   2.436  0.00  0.00    +0.004 A 
ATOM     10  C   UNL     1      -2.009   2.456   3.536  0.00  0.00    -0.044 A 
ATOM     11  C   UNL     1      -1.503   1.177   3.486  0.00  0.00    -0.044 A 
ATOM     12  C   UNL     1      -0.856   0.738   2.337  0.00  0.00    +0.009 A 
ATOM     13  C   UNL     1      -1.625   0.211   4.635  0.00  0.00    +0.035 C 
ATOM     14  C   UNL     1      -1.954   0.954   5.928  0.00  0.00    +0.005 C 
ATOM     15  C   UNL     1      -3.159   1.866   5.669  0.00  0.00    +0.005 C 
ATOM     16  C   UNL     1      -2.715   3.002   4.750  0.00  0.00    +0.035 C 
ENDBRANCH   6   7
ENDBRANCH   1   6
BRANCH   2  17
ATOM     17  C   UNL     1      -1.349   1.401  -3.565  0.00  0.00    +0.127 C 
BRANCH  17  18
ATOM     18  C   UNL     1      -1.069   0.467  -4.744  0.00  0.00    +0.170 C 
ATOM     19  C   UNL     1      -1.778   0.955  -5.992  0.00  0.00    +0.244 C 
ATOM     20  O   UNL     1      -1.613   2.012  -6.562  0.00  0.00    -0.273 OA
ATOM     21  N   UNL     1      -2.632  -0.030  -6.334  0.00  0.00    -0.221 N 
ATOM     22  C   UNL     1      -2.561  -1.061  -5.485  0.00  0.00    +0.309 C 
ATOM     23  O   UNL     1      -3.235  -2.068  -5.587  0.00  0.00    -0.252 OA
ATOM     24  N   UNL     1      -1.660  -0.860  -4.506  0.00  0.00    -0.287 N 
ATOM     25  H   UNL     1      -1.330  -1.464  -3.648  0.00  0.00    +0.151 HD
BRANCH  21  26
ATOM     26  C   UNL     1      -3.527   0.022  -7.493  0.00  0.00    +0.086 C 
ATOM     27  C   UNL     1      -4.978  -0.092  -7.022  0.00  0.00    +0.023 C 
ATOM     28  C   UNL     1      -5.912  -0.038  -8.233  0.00  0.00    +0.002 C 
ATOM     29  C   UNL     1      -5.590  -1.197  -9.178  0.00  0.00    +0.000 C 
ATOM     30  C   UNL     1      -4.139  -1.083  -9.649  0.00  0.00    +0.002 C 
ATOM     31  C   UNL     1      -3.204  -1.137  -8.438  0.00  0.00    +0.023 C 
ENDBRANCH  21  26
ENDBRANCH  17  18
ENDBRANCH   2  17
TORSDOF 5
