REMARK  Name = ZINC58552913
REMARK  8 active torsions:
REMARK  status: ('A' for Active; 'I' for Inactive)
REMARK    1  A    between atoms: C_1  and  C_2
REMARK    2  A    between atoms: C_5  and  C_8
REMARK    3  A    between atoms: C_8  and  O_10
REMARK    4  A    between atoms: O_10  and  C_11
REMARK    5  A    between atoms: C_11  and  C_13
REMARK    6  A    between atoms: C_11  and  C_14
REMARK    7  A    between atoms: N_16  and  C_17
REMARK    8  A    between atoms: C_22  and  C_23
REMARK                            x       y       z     vdW  Elec       q    Type
REMARK                         _______ _______ _______ _____ _____    ______ ____
ROOT
ATOM      1  C   UNL     1      -0.602  -6.794   2.471  0.00  0.00    +0.258 C 
ATOM      2  O   UNL     1      -1.075  -6.024   3.281  0.00  0.00    -0.271 OA
ATOM      3  N   UNL     1      -0.710  -8.123   2.663  0.00  0.00    -0.282 N 
ATOM      4  H   UNL     1      -0.404  -8.739   1.979  0.00  0.00    +0.155 HD
ENDROOT
BRANCH   3   5
ATOM      5  C   UNL     1      -1.264  -8.617   3.850  0.00  0.00    +0.045 A 
ATOM      6  C   UNL     1      -1.229  -7.848   5.006  0.00  0.00    +0.025 A 
ATOM      7  C   UNL     1      -1.776  -8.337   6.176  0.00  0.00    +0.022 A 
ATOM      8  C   UNL     1      -2.358  -9.592   6.197  0.00  0.00    +0.042 A 
ATOM      9  C   UNL     1      -2.394 -10.360   5.047  0.00  0.00    +0.034 A 
ATOM     10  C   UNL     1      -1.854  -9.873   3.873  0.00  0.00    +0.077 A 
ATOM     11 CL   UNL     1      -3.044 -10.204   7.670  0.00  0.00    -0.084 Cl
BRANCH  10  12
ATOM     12  C   UNL     1      -1.899 -10.708   2.619  0.00  0.00    +0.419 C 
ATOM     13  F   UNL     1      -2.537 -11.923   2.890  0.00  0.00    -0.166 F 
ATOM     14  F   UNL     1      -2.606 -10.021   1.627  0.00  0.00    -0.166 F 
ATOM     15  F   UNL     1      -0.595 -10.955   2.176  0.00  0.00    -0.166 F 
ENDBRANCH  10  12
ENDBRANCH   3   5
BRANCH   1  16
ATOM     16  C   UNL     1       0.106  -6.263   1.251  0.00  0.00    +0.259 C 
ATOM     17  C   UNL     1       1.554  -6.756   1.248  0.00  0.00    +0.062 C 
BRANCH  16  18
ATOM     18  O   UNL     1       0.088  -4.835   1.274  0.00  0.00    -0.449 OA
BRANCH  18  19
ATOM     19  C   UNL     1       0.084  -4.204   0.083  0.00  0.00    +0.341 C 
ATOM     20  O   UNL     1       0.095  -4.849  -0.946  0.00  0.00    -0.245 OA
BRANCH  19  25
ATOM     21  C   UNL     1       0.014   1.503   0.020  0.00  0.00    +0.065 C 
ATOM     22  C   UNL     1       0.033  -0.004   0.011  0.00  0.00    +0.038 A 
ATOM     23  C   UNL     1       0.045  -0.677  -1.197  0.00  0.00    +0.024 A 
ATOM     24  C   UNL     1       0.062  -2.060  -1.202  0.00  0.00    +0.018 A 
ATOM     25  C   UNL     1       0.067  -2.728   0.029  0.00  0.00    +0.077 A 
ATOM     26  C   UNL     1       0.053  -1.975   1.204  0.00  0.00    +0.126 A 
ATOM     27  N   UNL     1       0.043  -0.659   1.156  0.00  0.00    -0.259 NA
ENDBRANCH  19  25
ENDBRANCH  18  19
ENDBRANCH  16  18
ENDBRANCH   1  16
TORSDOF 6
