REMARK  Name = ZINC08781210
REMARK  7 active torsions:
REMARK  status: ('A' for Active; 'I' for Inactive)
REMARK    1  A    between atoms: C_1  and  C_2
REMARK    2  A    between atoms: C_2  and  O_3
REMARK    3  A    between atoms: O_3  and  C_4
REMARK    4  A    between atoms: C_4  and  C_6
REMARK    5  A    between atoms: C_7  and  N_35
REMARK    6  A    between atoms: C_11  and  C_13
REMARK    7  A    between atoms: C_20  and  C_29
REMARK                            x       y       z     vdW  Elec       q    Type
REMARK                         _______ _______ _______ _____ _____    ______ ____
ROOT
ATOM      1  C   UNL     1      -2.667  -1.958  -0.873  0.00  0.00    +0.105 C 
ATOM      2  C   UNL     1      -2.385  -3.284  -0.736  0.00  0.00    +0.197 C 
ATOM      3  O   UNL     1      -3.304  -4.097  -0.195  0.00  0.00    -0.427 OA
ATOM      4  C   UNL     1      -4.618  -3.822  -0.262  0.00  0.00    +0.199 C 
ATOM      5  C   UNL     1      -5.029  -2.538  -0.370  0.00  0.00    +0.048 C 
ATOM      6  C   UNL     1      -3.999  -1.441  -0.413  0.00  0.00    +0.098 C 
ATOM      7  C   UNL     1      -6.369  -2.061  -0.447  0.00  0.00    +0.081 C 
ATOM      8  N   UNL     1      -7.508  -2.707  -0.439  0.00  0.00    -0.245 NA
ATOM      9  C   UNL     1      -7.761  -4.058  -0.354  0.00  0.00    +0.086 A 
ATOM     10  C   UNL     1      -9.107  -4.386  -0.379  0.00  0.00    +0.029 A 
ATOM     11  C   UNL     1      -9.548  -5.692  -0.304  0.00  0.00    +0.002 A 
ATOM     12  C   UNL     1      -8.614  -6.707  -0.202  0.00  0.00    +0.002 A 
ATOM     13  C   UNL     1      -7.269  -6.384  -0.176  0.00  0.00    +0.025 A 
ATOM     14  C   UNL     1      -6.819  -5.085  -0.249  0.00  0.00    +0.059 A 
ATOM     15  N   UNL     1      -5.412  -4.960  -0.208  0.00  0.00    -0.283 N 
ATOM     16  H   UNL     1      -4.927  -5.796  -0.129  0.00  0.00    +0.155 HD
ENDROOT
BRANCH   6  17
ATOM     17  C   UNL     1      -3.849  -0.845   0.963  0.00  0.00    -0.035 A 
ATOM     18  C   UNL     1      -3.660  -1.670   2.056  0.00  0.00    +0.006 A 
ATOM     19  C   UNL     1      -3.522  -1.125   3.318  0.00  0.00    +0.020 A 
ATOM     20  C   UNL     1      -3.573   0.248   3.487  0.00  0.00    +0.041 A 
ATOM     21  C   UNL     1      -3.762   1.073   2.393  0.00  0.00    +0.020 A 
ATOM     22  C   UNL     1      -3.894   0.526   1.130  0.00  0.00    +0.006 A 
ATOM     23 CL   UNL     1      -3.401   0.934   5.073  0.00  0.00    -0.084 Cl
ENDBRANCH   6  17
BRANCH   7  24
ATOM     24  C   UNL     1      -6.495  -0.590  -0.551  0.00  0.00    +0.001 A 
ATOM     25  C   UNL     1      -6.218   0.052  -1.759  0.00  0.00    +0.010 A 
ATOM     26  C   UNL     1      -6.337   1.424  -1.850  0.00  0.00    +0.001 A 
ATOM     27  C   UNL     1      -6.729   2.162  -0.748  0.00  0.00    +0.000 A 
ATOM     28  C   UNL     1      -7.005   1.531   0.452  0.00  0.00    +0.001 A 
ATOM     29  C   UNL     1      -6.896   0.160   0.555  0.00  0.00    +0.010 A 
ENDBRANCH   7  24
BRANCH   2  30
ATOM     30  N   UNL     1      -1.177  -3.781  -1.147  0.00  0.00    -0.329 N 
ATOM     31  H   UNL     1      -0.449  -3.175  -1.356  0.00  0.00    +0.145 HD
ATOM     32  H   UNL     1      -1.050  -4.739  -1.230  0.00  0.00    +0.145 HD
ENDBRANCH   2  30
BRANCH   1  33
ATOM     33  C   UNL     1      -1.720  -1.084  -1.430  0.00  0.00    +0.341 C 
ATOM     34  O   UNL     1      -0.697  -1.527  -1.921  0.00  0.00    -0.245 OA
BRANCH  33  35
ATOM     35  O   UNL     1      -1.944   0.248  -1.421  0.00  0.00    -0.462 OA
BRANCH  35  37
ATOM     36  C   UNL     1      -1.364   2.544  -1.904  0.00  0.00    +0.048 C 
ATOM     37  C   UNL     1      -0.938   1.078  -2.006  0.00  0.00    +0.229 C 
ENDBRANCH  35  37
ENDBRANCH  33  35
ENDBRANCH   1  33
TORSDOF 6
