REMARK  Name = ZINC16647525
REMARK  9 active torsions:
REMARK  status: ('A' for Active; 'I' for Inactive)
REMARK    1  A    between atoms: C_1  and  C_2
REMARK    2  A    between atoms: C_2  and  C_3
REMARK    3  A    between atoms: C_3  and  C_5
REMARK    4  A    between atoms: C_3  and  C_6
REMARK    5  A    between atoms: C_6  and  N_7
REMARK    6  A    between atoms: C_8  and  C_10
REMARK    7  A    between atoms: C_10  and  N_11
REMARK    8  A    between atoms: N_13  and  C_31
REMARK    9  A    between atoms: C_22  and  C_24
REMARK                            x       y       z     vdW  Elec       q    Type
REMARK                         _______ _______ _______ _____ _____    ______ ____
ROOT
ATOM      1  N   UNL     1       4.335   7.531   2.212  0.00  0.00    -0.275 N 
ATOM      2  C   UNL     1       4.407   6.073   2.052  0.00  0.00    +0.217 C 
ATOM      3  N   UNL     1       3.918   5.784   0.684  0.00  0.00    -0.300 N 
ATOM      4  C   UNL     1       3.017   6.922   0.403  0.00  0.00    +0.115 C 
ATOM      5  C   UNL     1       3.523   8.051   1.268  0.00  0.00    +0.241 C 
ATOM      6  O   UNL     1       3.247   9.224   1.137  0.00  0.00    -0.273 OA
ATOM      7  C   UNL     1       1.584   6.561   0.785  0.00  0.00    +0.054 C 
ATOM      8  C   UNL     1       0.670   7.765   0.534  0.00  0.00    +0.110 C 
ATOM      9  N   UNL     1       0.844   8.207  -0.856  0.00  0.00    -0.297 N 
ATOM     10  C   UNL     1       2.198   8.514  -1.337  0.00  0.00    +0.110 C 
ATOM     11  C   UNL     1       3.101   7.304  -1.072  0.00  0.00    +0.054 C 
ATOM     12  C   UNL     1      -0.219   8.330  -1.675  0.00  0.00    +0.248 C 
ATOM     13  O   UNL     1      -1.342   8.158  -1.243  0.00  0.00    -0.270 OA
ENDROOT
BRANCH  12  14
ATOM     14  C   UNL     1      -0.020   8.672  -3.099  0.00  0.00    +0.055 A 
ATOM     15  C   UNL     1       1.095   8.190  -3.787  0.00  0.00    +0.014 A 
ATOM     16  C   UNL     1       1.273   8.509  -5.116  0.00  0.00    +0.001 A 
ATOM     17  C   UNL     1       0.354   9.315  -5.767  0.00  0.00    +0.001 A 
ATOM     18  C   UNL     1      -0.750   9.801  -5.092  0.00  0.00    +0.021 A 
ATOM     19  C   UNL     1      -0.943   9.485  -3.761  0.00  0.00    +0.053 A 
ATOM     20 CL   UNL     1      -2.329  10.097  -2.913  0.00  0.00    -0.083 Cl
ENDBRANCH  12  14
BRANCH   3  21
ATOM     21  C   UNL     1       3.222   4.574   0.646  0.00  0.00    +0.032 A 
ATOM     22  C   UNL     1       2.533   4.202  -0.501  0.00  0.00    +0.023 A 
ATOM     23  C   UNL     1       1.846   3.005  -0.535  0.00  0.00    +0.002 A 
ATOM     24  C   UNL     1       1.840   2.178   0.574  0.00  0.00    +0.000 A 
ATOM     25  C   UNL     1       2.529   2.542   1.715  0.00  0.00    +0.002 A 
ATOM     26  C   UNL     1       3.218   3.739   1.756  0.00  0.00    +0.023 A 
ENDBRANCH   3  21
BRANCH   1  27
ATOM     27  C   UNL     1       5.039   8.303   3.240  0.00  0.00    +0.205 C 
BRANCH  27  29
ATOM     28  N   UNL     1       4.612   9.091   5.546  0.00  0.00    -0.314 N 
ATOM     29  C   UNL     1       4.169   8.419   4.465  0.00  0.00    +0.230 C 
ATOM     30  O   UNL     1       3.070   7.906   4.479  0.00  0.00    -0.274 OA
ATOM     31  H   UNL     1       5.491   9.501   5.535  0.00  0.00    +0.149 HD
BRANCH  28  32
ATOM     32  C   UNL     1       3.767   9.203   6.737  0.00  0.00    +0.107 C 
BRANCH  32  33
ATOM     33  C   UNL     1       4.501  10.009   7.810  0.00  0.00    +0.003 C 
ATOM     34  C   UNL     1       5.743   9.240   8.265  0.00  0.00    +0.009 C 
BRANCH  33  36
ATOM     35  C   UNL     1       4.262  11.143  10.023  0.00  0.00    +0.004 C 
ATOM     36  C   UNL     1       3.572  10.233   9.005  0.00  0.00    +0.001 C 
ENDBRANCH  33  36
ENDBRANCH  32  33
ENDBRANCH  28  32
ENDBRANCH  27  29
ENDBRANCH   1  27
TORSDOF 7
