REMARK  Name = ZINC43848893
REMARK  6 active torsions:
REMARK  status: ('A' for Active; 'I' for Inactive)
REMARK    1  A    between atoms: C_1  and  O_2
REMARK    2  A    between atoms: O_2  and  C_3
REMARK    3  A    between atoms: C_3  and  C_5
REMARK    4  A    between atoms: C_5  and  N_6
REMARK    5  A    between atoms: C_7  and  C_9
REMARK    6  A    between atoms: C_12  and  N_15
REMARK                            x       y       z     vdW  Elec       q    Type
REMARK                         _______ _______ _______ _____ _____    ______ ____
ROOT
ATOM      1  C   UNL     1       2.473  -4.176  -3.747  0.00  0.00    +0.037 A 
ATOM      2  C   UNL     1       3.339  -3.312  -4.424  0.00  0.00    +0.015 A 
ATOM      3  C   UNL     1       3.906  -3.702  -5.616  0.00  0.00    +0.024 A 
ATOM      4  C   UNL     1       3.619  -4.956  -6.147  0.00  0.00    +0.035 A 
ATOM      5  C   UNL     1       2.758  -5.818  -5.476  0.00  0.00    +0.024 A 
ATOM      6  C   UNL     1       2.191  -5.436  -4.281  0.00  0.00    +0.015 A 
ENDROOT
BRANCH   4   7
ATOM      7  N   UNL     1       4.195  -5.348  -7.354  0.00  0.00    -0.269 N 
ATOM      8  C   UNL     1       4.467  -6.649  -7.580  0.00  0.00    +0.307 C 
ATOM      9  O   UNL     1       4.055  -7.498  -6.814  0.00  0.00    -0.252 OA
ATOM     10  N   UNL     1       5.195  -7.008  -8.656  0.00  0.00    -0.281 N 
ATOM     11  C   UNL     1       5.385  -8.428  -8.987  0.00  0.00    +0.115 C 
ATOM     12  C   UNL     1       4.702  -8.705 -10.335  0.00  0.00    +0.062 C 
ATOM     13  C   UNL     1       5.019  -7.585 -11.272  0.00  0.00    -0.004 A 
ATOM     14  C   UNL     1       5.508  -6.352 -10.966  0.00  0.00    -0.020 A 
ATOM     15  C   UNL     1       5.712  -5.477 -12.032  0.00  0.00    +0.013 A 
ATOM     16  C   UNL     1       5.430  -5.873 -13.295  0.00  0.00    +0.046 A 
ATOM     17  S   UNL     1       4.849  -7.542 -13.037  0.00  0.00    -0.101 S 
ATOM     18  C   UNL     1       5.806  -5.986  -9.517  0.00  0.00    +0.145 C 
ATOM     19  H   UNL     1       4.401  -4.685  -8.032  0.00  0.00    +0.156 HD
ENDBRANCH   4   7
BRANCH   1  21
ATOM     20  N   UNL     1       2.137  -2.545  -1.955  0.00  0.00    -0.301 N 
ATOM     21  C   UNL     1       1.864  -3.761  -2.469  0.00  0.00    +0.245 C 
ATOM     22  O   UNL     1       1.115  -4.516  -1.879  0.00  0.00    -0.270 OA
ATOM     23  H   UNL     1       2.734  -1.943  -2.426  0.00  0.00    +0.150 HD
BRANCH  20  24
ATOM     24  C   UNL     1       1.531  -2.133  -0.686  0.00  0.00    +0.225 C 
BRANCH  24  25
ATOM     25  C   UNL     1       1.995  -0.743  -0.337  0.00  0.00    +0.324 C 
ATOM     26  O   UNL     1       2.753  -0.156  -1.072  0.00  0.00    -0.249 OA
BRANCH  25  28
ATOM     27  C   UNL     1       2.046   1.163   1.060  0.00  0.00    +0.280 C 
ATOM     28  O   UNL     1       1.566  -0.156   0.792  0.00  0.00    -0.467 OA
ENDBRANCH  25  28
ENDBRANCH  24  25
ENDBRANCH  20  24
ENDBRANCH   1  21
TORSDOF 5
