REMARK  Name = ZINC39842666
REMARK  3 active torsions:
REMARK  status: ('A' for Active; 'I' for Inactive)
REMARK    1  A    between atoms: C_1  and  C_2
REMARK    2  A    between atoms: C_7  and  C_8
REMARK    3  A    between atoms: C_11  and  C_12
REMARK                            x       y       z     vdW  Elec       q    Type
REMARK                         _______ _______ _______ _____ _____    ______ ____
ROOT
ATOM      1  C   UNL     1       1.220   1.475  -0.217  0.00  0.00    +0.044 C 
ATOM      2  C   UNL     1       1.039  -0.021  -0.182  0.00  0.00    -0.047 A 
ATOM      3  C   UNL     1       0.789  -0.712  -1.348  0.00  0.00    +0.019 A 
ATOM      4  C   UNL     1       0.623  -2.095  -1.309  0.00  0.00    +0.068 A 
ATOM      5  C   UNL     1       0.709  -2.786  -0.091  0.00  0.00    +0.140 A 
ATOM      6  C   UNL     1       0.962  -2.069   1.073  0.00  0.00    +0.050 A 
ATOM      7  C   UNL     1       1.130  -0.701   1.023  0.00  0.00    -0.044 A 
ATOM      8  C   UNL     1       1.409   0.064   2.291  0.00  0.00    +0.044 C 
ATOM      9  O   UNL     1       0.515  -4.106  -0.302  0.00  0.00    -0.451 OA
ATOM     10  C   UNL     1       0.296  -4.382  -1.609  0.00  0.00    +0.176 C 
ATOM     11  C   UNL     1       0.068  -5.609  -2.143  0.00  0.00    +0.059 C 
ATOM     12  C   UNL     1       0.350  -3.110  -2.345  0.00  0.00    +0.231 C 
ATOM     13  O   UNL     1       0.203  -2.933  -3.542  0.00  0.00    -0.283 OA
ENDROOT
BRANCH  11  14
ATOM     14  C   UNL     1       0.199  -6.810  -1.306  0.00  0.00    -0.007 A 
ATOM     15  C   UNL     1       0.205  -6.698   0.089  0.00  0.00    +0.009 A 
ATOM     16  C   UNL     1       0.328  -7.830   0.866  0.00  0.00    +0.001 A 
ATOM     17  C   UNL     1       0.446  -9.075   0.271  0.00  0.00    +0.001 A 
ATOM     18  C   UNL     1       0.441  -9.194  -1.108  0.00  0.00    +0.016 A 
ATOM     19  C   UNL     1       0.312  -8.073  -1.901  0.00  0.00    +0.025 A 
ATOM     20 BR   UNL     1       0.296  -8.239  -3.784  0.00  0.00    -0.050 Br
ENDBRANCH  11  14
TORSDOF 1
