REMARK  Name = ZINC49554658
REMARK  7 active torsions:
REMARK  status: ('A' for Active; 'I' for Inactive)
REMARK    1  A    between atoms: C_1  and  C_2
REMARK    2  A    between atoms: C_2  and  C_3
REMARK    3  A    between atoms: C_2  and  C_4
REMARK    4  A    between atoms: C_4  and  C_6
REMARK    5  A    between atoms: C_4  and  N_11
REMARK    6  A    between atoms: N_11  and  S_12
REMARK    7  A    between atoms: S_12  and  C_15
REMARK                            x       y       z     vdW  Elec       q    Type
REMARK                         _______ _______ _______ _____ _____    ______ ____
ROOT
ATOM      1  S   UNL     1      -2.646  -0.796   1.981  0.00  0.00    +0.064 S 
ATOM      2  O   UNL     1      -1.471  -1.365   2.541  0.00  0.00    -0.153 OA
ATOM      3  O   UNL     1      -3.512   0.051   2.724  0.00  0.00    -0.153 OA
ENDROOT
BRANCH   1   4
ATOM      4  C   UNL     1      -3.630  -2.139   1.404  0.00  0.00    +0.164 A 
ATOM      5  C   UNL     1      -3.321  -3.452   1.502  0.00  0.00    +0.135 A 
ATOM      6  N   UNL     1      -4.327  -4.157   0.943  0.00  0.00    -0.281 N 
ATOM      7  H   UNL     1      -4.375  -5.123   0.872  0.00  0.00    +0.188 HD
ATOM      8  N   UNL     1      -5.291  -3.249   0.485  0.00  0.00    -0.157 NA
ATOM      9  C   UNL     1      -4.877  -2.036   0.766  0.00  0.00    +0.164 A 
ATOM     10  N   UNL     1      -5.558  -0.848   0.477  0.00  0.00    -0.340 N 
ATOM     11  H   UNL     1      -5.136   0.008   0.654  0.00  0.00    +0.144 HD
ATOM     12  H   UNL     1      -6.451  -0.880   0.101  0.00  0.00    +0.144 HD
ENDBRANCH   1   4
BRANCH   1  13
ATOM     13  N   UNL     1      -2.167   0.067   0.651  0.00  0.00    -0.182 NA
ATOM     14  H   UNL     1      -2.452   0.987   0.541  0.00  0.00    +0.149 HD
BRANCH  13  15
ATOM     15  C   UNL     1      -1.312  -0.561  -0.360  0.00  0.00    +0.116 C 
BRANCH  15  16
ATOM     16  C   UNL     1      -2.017  -0.546  -1.692  0.00  0.00    +0.009 A 
ATOM     17  C   UNL     1      -2.065  -1.511  -2.643  0.00  0.00    +0.013 A 
ATOM     18  C   UNL     1      -2.782  -1.276  -3.801  0.00  0.00    +0.008 A 
ATOM     19  C   UNL     1      -3.416  -0.088  -3.952  0.00  0.00    +0.045 A 
ATOM     20  S   UNL     1      -3.011   0.743  -2.424  0.00  0.00    -0.100 S 
ENDBRANCH  15  16
BRANCH  15  22
ATOM     21  C   UNL     1      -0.298   1.690  -0.741  0.00  0.00    +0.009 C 
ATOM     22  C   UNL     1       0.002   0.215  -0.470  0.00  0.00    +0.006 C 
ATOM     23  C   UNL     1       0.781   0.085   0.840  0.00  0.00    +0.009 C 
ENDBRANCH  15  22
ENDBRANCH  13  15
ENDBRANCH   1  13
TORSDOF 5
