REMARK  Name = ZINC20977174
REMARK  8 active torsions:
REMARK  status: ('A' for Active; 'I' for Inactive)
REMARK    1  A    between atoms: C_1  and  C_2
REMARK    2  A    between atoms: C_6  and  C_13
REMARK    3  A    between atoms: C_13  and  O_14
REMARK    4  A    between atoms: O_14  and  C_15
REMARK    5  A    between atoms: C_15  and  C_17
REMARK    6  A    between atoms: C_17  and  C_18
REMARK    7  A    between atoms: C_18  and  C_20
REMARK    8  A    between atoms: C_18  and  N_27
REMARK                            x       y       z     vdW  Elec       q    Type
REMARK                         _______ _______ _______ _____ _____    ______ ____
ROOT
ATOM      1  C   UNL     1      -2.663   3.498  -2.349  0.00  0.00    +0.310 C 
ATOM      2  O   UNL     1      -1.742   4.279  -2.328  0.00  0.00    -0.251 OA
ENDROOT
BRANCH   1   3
ATOM      3  O   UNL     1      -3.160   3.077  -3.523  0.00  0.00    -0.460 OA
BRANCH   3   4
ATOM      4  C   UNL     1      -2.541   3.602  -4.727  0.00  0.00    +0.268 C 
BRANCH   4  10
ATOM      5  C   UNL     1      -1.587   4.405 -11.258  0.00  0.00    +0.044 C 
ATOM      6  C   UNL     1      -2.019   4.040  -9.861  0.00  0.00    -0.047 A 
ATOM      7  C   UNL     1      -1.364   4.597  -8.773  0.00  0.00    +0.004 A 
ATOM      8  C   UNL     1      -1.742   4.279  -7.498  0.00  0.00    +0.012 A 
ATOM      9  C   UNL     1      -2.801   3.389  -7.292  0.00  0.00    +0.024 A 
ATOM     10  C   UNL     1      -3.225   3.021  -5.937  0.00  0.00    +0.007 A 
ATOM     11  C   UNL     1      -4.255   2.148  -5.804  0.00  0.00    +0.099 A 
ATOM     12  C   UNL     1      -4.880   1.618  -6.954  0.00  0.00    +0.338 A 
ATOM     13  O   UNL     1      -5.803   0.835  -6.821  0.00  0.00    -0.245 OA
ATOM     14  O   UNL     1      -4.481   1.955  -8.191  0.00  0.00    -0.422 OA
ATOM     15  C   UNL     1      -3.463   2.818  -8.392  0.00  0.00    +0.140 A 
ATOM     16  C   UNL     1      -3.062   3.157  -9.678  0.00  0.00    +0.050 A 
ENDBRANCH   4  10
ENDBRANCH   3   4
ENDBRANCH   1   3
BRANCH   1  17
ATOM     17  C   UNL     1      -3.255   2.997  -1.057  0.00  0.00    +0.147 C 
BRANCH  17  18
ATOM     18  C   UNL     1      -2.512   3.627   0.123  0.00  0.00    +0.115 C 
BRANCH  18  19
ATOM     19  C   UNL     1      -3.181   3.223   1.411  0.00  0.00    -0.027 A 
ATOM     20  C   UNL     1      -3.010   1.943   1.907  0.00  0.00    +0.007 A 
ATOM     21  C   UNL     1      -3.618   1.574   3.091  0.00  0.00    +0.020 A 
ATOM     22  C   UNL     1      -4.407   2.481   3.776  0.00  0.00    +0.041 A 
ATOM     23  C   UNL     1      -4.582   3.759   3.277  0.00  0.00    +0.020 A 
ATOM     24  C   UNL     1      -3.969   4.130   2.095  0.00  0.00    +0.007 A 
ATOM     25 CL   UNL     1      -5.178   2.015   5.260  0.00  0.00    -0.084 Cl
ENDBRANCH  18  19
BRANCH  18  26
ATOM     26  N   UNL     1      -1.122   3.164   0.128  0.00  0.00    -0.292 N 
ATOM     27  C   UNL     1      -0.167   3.905   0.726  0.00  0.00    +0.298 C 
ATOM     28  O   UNL     1      -0.443   4.997   1.183  0.00  0.00    -0.253 OA
ATOM     29  N   UNL     1       1.092   3.434   0.817  0.00  0.00    -0.313 N 
ATOM     30  H   UNL     1      -0.857   2.213  -0.356  0.00  0.00    +0.151 HD
ATOM     31  H   UNL     1       1.871   4.038   1.304  0.00  0.00    +0.146 HD
ATOM     32  H   UNL     1       1.341   2.446   0.403  0.00  0.00    +0.146 HD
ENDBRANCH  18  26
ENDBRANCH  17  18
ENDBRANCH   1  17
TORSDOF 7
