REMARK  Name = ZINC64971463
REMARK  7 active torsions:
REMARK  status: ('A' for Active; 'I' for Inactive)
REMARK    1  A    between atoms: C_1  and  C_2
REMARK    2  A    between atoms: C_2  and  C_3
REMARK    3  A    between atoms: C_3  and  N_4
REMARK    4  A    between atoms: C_5  and  C_7
REMARK    5  A    between atoms: C_7  and  N_8
REMARK    6  A    between atoms: N_21  and  C_22
REMARK    7  A    between atoms: C_25  and  C_28
REMARK                            x       y       z     vdW  Elec       q    Type
REMARK                         _______ _______ _______ _____ _____    ______ ____
ROOT
ATOM      1  N   UNL     1      -3.618  -4.912  -0.626  0.00  0.00    -0.260 N 
ATOM      2  C   UNL     1      -3.764  -5.522   0.625  0.00  0.00    +0.058 A 
ATOM      3  C   UNL     1      -2.817  -5.337   1.619  0.00  0.00    +0.025 A 
ATOM      4  C   UNL     1      -2.977  -5.953   2.846  0.00  0.00    +0.002 A 
ATOM      5  C   UNL     1      -4.078  -6.754   3.087  0.00  0.00    +0.002 A 
ATOM      6  C   UNL     1      -5.030  -6.943   2.101  0.00  0.00    +0.025 A 
ATOM      7  C   UNL     1      -4.877  -6.327   0.872  0.00  0.00    +0.060 A 
ATOM      8  N   UNL     1      -5.831  -6.490  -0.145  0.00  0.00    -0.245 N 
ATOM      9  C   UNL     1      -6.006  -5.391  -1.106  0.00  0.00    +0.211 C 
ATOM     10  C   UNL     1      -4.652  -4.847  -1.485  0.00  0.00    +0.238 C 
ATOM     11  O   UNL     1      -4.492  -4.348  -2.579  0.00  0.00    -0.273 OA
ATOM     12  C   UNL     1      -6.564  -7.618  -0.237  0.00  0.00    +0.311 C 
ATOM     13  O   UNL     1      -6.335  -8.553   0.505  0.00  0.00    -0.252 OA
ATOM     14  N   UNL     1      -7.549  -7.708  -1.152  0.00  0.00    -0.269 N 
ATOM     15  H   UNL     1      -7.682  -6.993  -1.794  0.00  0.00    +0.156 HD
ENDROOT
BRANCH  14  16
ATOM     16  C   UNL     1      -8.382  -8.833  -1.175  0.00  0.00    +0.035 A 
ATOM     17  C   UNL     1      -8.707  -9.482   0.009  0.00  0.00    +0.023 A 
ATOM     18  C   UNL     1      -9.529 -10.591  -0.017  0.00  0.00    +0.005 A 
ATOM     19  C   UNL     1     -10.027 -11.057  -1.220  0.00  0.00    -0.050 A 
ATOM     20  C   UNL     1      -9.704 -10.413  -2.401  0.00  0.00    +0.005 A 
ATOM     21  C   UNL     1      -8.888  -9.299  -2.381  0.00  0.00    +0.023 A 
ATOM     22  C   UNL     1     -10.922 -12.269  -1.246  0.00  0.00    +0.044 C 
ENDBRANCH  14  16
BRANCH   1  23
ATOM     23  C   UNL     1      -2.326  -4.332  -1.002  0.00  0.00    +0.209 C 
BRANCH  23  25
ATOM     24  N   UNL     1      -1.175  -2.151  -0.807  0.00  0.00    -0.314 N 
ATOM     25  C   UNL     1      -2.276  -2.891  -0.565  0.00  0.00    +0.231 C 
ATOM     26  O   UNL     1      -3.225  -2.397   0.005  0.00  0.00    -0.274 OA
ATOM     27  H   UNL     1      -0.416  -2.546  -1.263  0.00  0.00    +0.149 HD
BRANCH  24  28
ATOM     28  C   UNL     1      -1.127  -0.750  -0.381  0.00  0.00    +0.104 C 
BRANCH  28  30
ATOM     29  C   UNL     1       0.273   1.319  -0.330  0.00  0.00    +0.005 C 
ATOM     30  C   UNL     1       0.222  -0.144  -0.774  0.00  0.00    +0.015 C 
ENDBRANCH  28  30
ENDBRANCH  24  28
ENDBRANCH  23  25
ENDBRANCH   1  23
TORSDOF 5
