REMARK  Name = ZINC15957902
REMARK  6 active torsions:
REMARK  status: ('A' for Active; 'I' for Inactive)
REMARK    1  A    between atoms: C_1  and  C_2
REMARK    2  A    between atoms: C_4  and  C_35
REMARK    3  A    between atoms: C_6  and  N_8
REMARK    4  A    between atoms: C_13  and  C_30
REMARK    5  A    between atoms: C_30  and  C_31
REMARK    6  A    between atoms: C_31  and  C_32
REMARK                            x       y       z     vdW  Elec       q    Type
REMARK                         _______ _______ _______ _____ _____    ______ ____
ROOT
ATOM      1  N   UNL     1       0.481  -2.402   2.794  0.00  0.00    -0.210 N 
ATOM      2  C   UNL     1       0.026  -3.659   2.859  0.00  0.00    +0.232 C 
ATOM      3  O   UNL     1      -0.501  -4.261   1.948  0.00  0.00    -0.274 OA
ATOM      4  C   UNL     1       0.273  -4.211   4.244  0.00  0.00    +0.107 C 
ATOM      5  C   UNL     1       1.328  -5.335   4.165  0.00  0.00    +0.068 C 
ATOM      6  N   UNL     1       2.637  -4.638   4.267  0.00  0.00    -0.295 NA
ATOM      7  C   UNL     1       2.401  -3.570   5.257  0.00  0.00    +0.136 C 
ATOM      8  C   UNL     1       0.974  -3.035   4.981  0.00  0.00    +0.123 C 
ATOM      9  C   UNL     1       1.034  -1.953   3.926  0.00  0.00    +0.233 C 
ATOM     10  O   UNL     1       1.509  -0.849   4.083  0.00  0.00    -0.274 OA
ATOM     11  C   UNL     1       3.432  -2.483   5.153  0.00  0.00    +0.003 A 
ATOM     12  C   UNL     1       3.813  -1.631   4.141  0.00  0.00    +0.008 A 
ATOM     13  C   UNL     1       4.825  -0.711   4.354  0.00  0.00    +0.000 A 
ATOM     14  C   UNL     1       5.452  -0.650   5.585  0.00  0.00    +0.002 A 
ATOM     15  C   UNL     1       5.072  -1.501   6.603  0.00  0.00    +0.023 A 
ATOM     16  C   UNL     1       4.054  -2.430   6.397  0.00  0.00    +0.039 A 
ATOM     17  N   UNL     1       3.500  -3.381   7.256  0.00  0.00    -0.283 N 
ATOM     18  C   UNL     1       2.522  -4.092   6.663  0.00  0.00    +0.243 C 
ATOM     19  O   UNL     1       1.865  -4.980   7.165  0.00  0.00    -0.273 OA
ATOM     20  H   UNL     1       3.360  -5.269   4.581  0.00  0.00    +0.123 HD
ATOM     21  H   UNL     1       3.787  -3.515   8.173  0.00  0.00    +0.155 HD
ENDROOT
BRANCH   1  27
ATOM     22  C   UNL     1       1.829  -1.563  -1.861  0.00  0.00    +0.044 C 
ATOM     23  C   UNL     1       1.032  -1.192  -0.637  0.00  0.00    -0.048 A 
ATOM     24  C   UNL     1       0.210  -0.080  -0.658  0.00  0.00    +0.006 A 
ATOM     25  C   UNL     1      -0.521   0.263   0.464  0.00  0.00    -0.048 A 
ATOM     26  C   UNL     1      -0.434  -0.504   1.609  0.00  0.00    +0.027 A 
ATOM     27  C   UNL     1       0.390  -1.621   1.633  0.00  0.00    +0.044 A 
ATOM     28  C   UNL     1       1.119  -1.967   0.503  0.00  0.00    +0.027 A 
ATOM     29  C   UNL     1      -1.415   1.476   0.437  0.00  0.00    +0.044 C 
ENDBRANCH   1  27
BRANCH   5  30
ATOM     30  C   UNL     1       1.151  -6.313   5.328  0.00  0.00    +0.031 C 
BRANCH  30  31
ATOM     31  C   UNL     1       0.244  -7.465   4.892  0.00  0.00    +0.126 C 
BRANCH  31  32
ATOM     32  C   UNL     1       0.070  -8.429   6.037  0.00  0.00    +0.356 C 
ATOM     33  O   UNL     1       0.621  -8.214   7.104  0.00  0.00    -0.246 OA
ATOM     34  O   UNL     1      -0.622  -9.423   5.898  0.00  0.00    -0.246 OA
ENDBRANCH  31  32
ENDBRANCH  30  31
ENDBRANCH   5  30
TORSDOF 4
