REMARK  Name = ZINC20178580
REMARK  10 active torsions:
REMARK  status: ('A' for Active; 'I' for Inactive)
REMARK    1  A    between atoms: C_1  and  N_2
REMARK    2  A    between atoms: C_5  and  N_21
REMARK    3  A    between atoms: C_6  and  N_15
REMARK    4  A    between atoms: N_9  and  C_14
REMARK    5  A    between atoms: C_22  and  C_24
REMARK    6  A    between atoms: C_25  and  C_26
REMARK    7  A    between atoms: C_29  and  O_34
REMARK    8  A    between atoms: C_30  and  O_32
REMARK    9  A    between atoms: O_32  and  C_33
REMARK   10  A    between atoms: O_34  and  C_35
REMARK                            x       y       z     vdW  Elec       q    Type
REMARK                         _______ _______ _______ _____ _____    ______ ____
ROOT
ATOM      1  C   UNL     1       8.170   6.513  -0.101  0.00  0.00    +0.153 C 
ATOM      2  N   UNL     1       9.472   5.851  -0.222  0.00  0.00    -0.305 N 
ATOM      3  C   UNL     1       9.545   4.460  -0.239  0.00  0.00    +0.070 A 
ATOM      4  C   UNL     1       8.378   3.710  -0.141  0.00  0.00    +0.053 A 
ATOM      5  C   UNL     1       8.439   2.327  -0.157  0.00  0.00    +0.057 A 
ATOM      6  C   UNL     1       9.675   1.683  -0.266  0.00  0.00    +0.053 A 
ATOM      7  C   UNL     1      10.837   2.426  -0.369  0.00  0.00    +0.053 A 
ATOM      8  C   UNL     1      10.779   3.816  -0.354  0.00  0.00    +0.070 A 
ATOM      9  N   UNL     1      11.956   4.554  -0.453  0.00  0.00    -0.305 N 
ATOM     10  C   UNL     1      11.913   5.902  -0.439  0.00  0.00    +0.316 A 
ATOM     11  O   UNL     1      12.937   6.549  -0.525  0.00  0.00    -0.262 OA
ATOM     12  C   UNL     1      10.596   6.589  -0.317  0.00  0.00    +0.316 A 
ATOM     13  O   UNL     1      10.536   7.803  -0.303  0.00  0.00    -0.262 OA
ATOM     14  C   UNL     1      13.243   3.865  -0.572  0.00  0.00    +0.153 C 
ENDROOT
BRANCH   6  15
ATOM     15  N   UNL     1       9.736   0.285  -0.276  0.00  0.00    -0.328 N 
ATOM     16  C   UNL     1      10.460  -0.219   0.899  0.00  0.00    +0.105 C 
ATOM     17  C   UNL     1      10.381  -1.747   0.932  0.00  0.00    +0.019 C 
ATOM     18  C   UNL     1      10.997  -2.312  -0.351  0.00  0.00    +0.003 C 
ATOM     19  C   UNL     1      10.257  -1.735  -1.561  0.00  0.00    +0.019 C 
ATOM     20  C   UNL     1      10.338  -0.207  -1.522  0.00  0.00    +0.105 C 
ENDBRANCH   6  15
BRANCH   5  21
ATOM     21  N   UNL     1       7.263   1.573  -0.057  0.00  0.00    -0.280 N 
ATOM     22  C   UNL     1       6.174   2.099   0.537  0.00  0.00    +0.241 C 
ATOM     23  O   UNL     1       6.241   3.189   1.075  0.00  0.00    -0.270 OA
ATOM     24  H   UNL     1       7.228   0.552  -0.464  0.00  0.00    +0.155 HD
BRANCH  22  25
ATOM     25  C   UNL     1       4.911   1.362   0.534  0.00  0.00    +0.068 C 
ATOM     26  C   UNL     1       3.820   1.889   1.129  0.00  0.00    +0.013 C 
BRANCH  26  27
ATOM     27  C   UNL     1       2.551   1.147   1.127  0.00  0.00    -0.021 A 
ATOM     28  C   UNL     1       2.472  -0.106   0.508  0.00  0.00    +0.012 A 
ATOM     29  C   UNL     1       1.282  -0.799   0.507  0.00  0.00    +0.050 A 
ATOM     30  C   UNL     1       0.159  -0.259   1.119  0.00  0.00    +0.162 A 
ATOM     31  C   UNL     1       0.230   0.989   1.738  0.00  0.00    +0.162 A 
ATOM     32  C   UNL     1       1.419   1.691   1.743  0.00  0.00    +0.057 A 
BRANCH  31  33
ATOM     33  O   UNL     1      -0.874   1.518   2.331  0.00  0.00    -0.491 OA
ATOM     34  C   UNL     1      -0.730   2.800   2.946  0.00  0.00    +0.277 C 
ENDBRANCH  31  33
BRANCH  30  35
ATOM     35  O   UNL     1      -1.012  -0.947   1.115  0.00  0.00    -0.491 OA
ATOM     36  C   UNL     1      -1.015  -2.219   0.464  0.00  0.00    +0.277 C 
ENDBRANCH  30  35
ENDBRANCH  26  27
ENDBRANCH  22  25
ENDBRANCH   5  21
TORSDOF 6
