REMARK  Name = ZINC33810173
REMARK  8 active torsions:
REMARK  status: ('A' for Active; 'I' for Inactive)
REMARK    1  A    between atoms: C_1  and  C_2
REMARK    2  A    between atoms: C_2  and  C_3
REMARK    3  A    between atoms: C_3  and  S_4
REMARK    4  A    between atoms: S_4  and  C_5
REMARK    5  A    between atoms: C_12  and  C_22
REMARK    6  A    between atoms: C_25  and  O_29
REMARK    7  A    between atoms: C_26  and  O_28
REMARK    8  A    between atoms: O_29  and  C_30
REMARK                            x       y       z     vdW  Elec       q    Type
REMARK                         _______ _______ _______ _____ _____    ______ ____
ROOT
ATOM      1  C   UNL     1       0.211   6.986   3.735  0.00  0.00    +0.171 A 
ATOM      2  N   UNL     1      -0.105   5.662   3.684  0.00  0.00    -0.208 NA
ATOM      3  C   UNL     1      -0.485   5.091   2.498  0.00  0.00    +0.135 A 
ATOM      4  C   UNL     1      -0.543   5.861   1.378  0.00  0.00    +0.069 A 
ATOM      5  C   UNL     1      -0.203   7.228   1.472  0.00  0.00    +0.258 A 
ATOM      6  O   UNL     1      -0.241   7.940   0.479  0.00  0.00    -0.267 OA
ATOM      7  N   UNL     1       0.162   7.740   2.657  0.00  0.00    -0.302 N 
ATOM      8  C   UNL     1      -0.960   5.276   0.061  0.00  0.00    +0.092 C 
ATOM      9  C   UNL     1      -0.868   3.771   0.076  0.00  0.00    +0.024 C 
ATOM     10  C   UNL     1      -0.806   3.091   1.241  0.00  0.00    +0.017 C 
ATOM     11  N   UNL     1      -0.803   3.755   2.437  0.00  0.00    -0.302 N 
ATOM     12  C   UNL     1      -0.737   1.583   1.261  0.00  0.00    +0.051 C 
ATOM     13  C   UNL     1      -0.013   1.086   0.008  0.00  0.00    +0.014 C 
ATOM     14  C   UNL     1      -0.762   1.597  -1.227  0.00  0.00    +0.080 C 
ATOM     15  C   UNL     1      -0.855   3.097  -1.157  0.00  0.00    +0.162 C 
ATOM     16  O   UNL     1      -0.920   3.738  -2.187  0.00  0.00    -0.292 OA
ATOM     17  H   UNL     1      -1.060   3.208   3.357  0.00  0.00    +0.153 HD
ATOM     18  H   UNL     1       0.421   8.808   2.720  0.00  0.00    +0.171 HD
ENDROOT
BRANCH   8  19
ATOM     19  C   UNL     1      -2.382   5.680  -0.229  0.00  0.00    -0.032 A 
ATOM     20  C   UNL     1      -3.398   5.287   0.621  0.00  0.00    +0.008 A 
ATOM     21  C   UNL     1      -4.705   5.655   0.359  0.00  0.00    +0.050 A 
ATOM     22  C   UNL     1      -4.998   6.421  -0.757  0.00  0.00    +0.161 A 
ATOM     23  C   UNL     1      -3.975   6.818  -1.613  0.00  0.00    +0.159 A 
ATOM     24  C   UNL     1      -2.667   6.449  -1.342  0.00  0.00    +0.053 A 
BRANCH  23  25
ATOM     25  O   UNL     1      -4.258   7.569  -2.711  0.00  0.00    -0.503 OA
ATOM     26  H   UNL     1      -3.449   7.882  -3.387  0.00  0.00    +0.292 HD
ENDBRANCH  23  25
BRANCH  22  27
ATOM     27  O   UNL     1      -6.283   6.784  -1.016  0.00  0.00    -0.491 OA
ATOM     28  C   UNL     1      -7.281   6.341  -0.095  0.00  0.00    +0.277 C 
ENDBRANCH  22  27
ENDBRANCH   8  19
BRANCH   1  29
ATOM     29  S   UNL     1       0.696   7.702   5.271  0.00  0.00    -0.088 S 
BRANCH  29  30
ATOM     30  C   UNL     1       0.981   9.410   4.745  0.00  0.00    +0.077 C 
BRANCH  30  32
ATOM     31  C   UNL     1       1.666  11.691   5.503  0.00  0.00    +0.004 C 
ATOM     32  C   UNL     1       1.424  10.247   5.947  0.00  0.00    +0.008 C 
ENDBRANCH  30  32
ENDBRANCH  29  30
ENDBRANCH   1  29
TORSDOF 6
