REMARK  Name = ZINC64019375
REMARK  9 active torsions:
REMARK  status: ('A' for Active; 'I' for Inactive)
REMARK    1  A    between atoms: C_1  and  C_2
REMARK    2  A    between atoms: C_2  and  C_3
REMARK    3  A    between atoms: C_3  and  C_4
REMARK    4  A    between atoms: C_4  and  C_5
REMARK    5  A    between atoms: C_5  and  C_6
REMARK    6  A    between atoms: C_6  and  N_7
REMARK    7  A    between atoms: C_8  and  O_32
REMARK    8  A    between atoms: C_10  and  C_16
REMARK    9  A    between atoms: N_30  and  C_31
REMARK                            x       y       z     vdW  Elec       q    Type
REMARK                         _______ _______ _______ _____ _____    ______ ____
ROOT
ATOM      1  N   UNL     1       2.151  -4.602  -3.716  0.00  0.00    -0.256 N 
ATOM      2  C   UNL     1       1.403  -4.857  -4.957  0.00  0.00    +0.240 C 
ATOM      3  C   UNL     1       2.204  -5.258  -6.178  0.00  0.00    +0.058 C 
ATOM      4  C   UNL     1       3.524  -5.355  -6.054  0.00  0.00    +0.249 C 
ATOM      5  N   UNL     1       4.151  -5.096  -4.845  0.00  0.00    -0.236 N 
ATOM      6  C   UNL     1       3.493  -4.733  -3.736  0.00  0.00    +0.311 C 
ATOM      7  O   UNL     1       4.123  -4.521  -2.718  0.00  0.00    -0.252 OA
ATOM      8  O   UNL     1       4.270  -5.713  -7.129  0.00  0.00    -0.270 OA
ATOM      9  H   UNL     1       5.117  -5.179  -4.801  0.00  0.00    +0.159 HD
ENDROOT
BRANCH   3  10
ATOM     10  C   UNL     1       1.526  -5.540  -7.494  0.00  0.00    +0.118 C 
ATOM     11  C   UNL     1       1.157  -7.023  -7.577  0.00  0.00    +0.128 C 
ATOM     12  C   UNL     1       0.097  -7.259  -6.507  0.00  0.00    -0.035 C 
ATOM     13  C   UNL     1       0.538  -8.259  -5.756  0.00  0.00    -0.001 A 
ATOM     14  C   UNL     1      -0.074  -8.987  -4.633  0.00  0.00    +0.010 A 
ATOM     15  C   UNL     1       0.680  -9.969  -4.072  0.00  0.00    +0.001 A 
ATOM     16  C   UNL     1       1.968 -10.294  -4.510  0.00  0.00    +0.002 A 
ATOM     17  C   UNL     1       2.606  -9.681  -5.538  0.00  0.00    +0.026 A 
ATOM     18  C   UNL     1       1.911  -8.635  -6.212  0.00  0.00    +0.043 A 
ATOM     19  N   UNL     1       2.278  -7.901  -7.245  0.00  0.00    -0.376 N 
ATOM     20  C   UNL     1      -1.120  -6.374  -6.389  0.00  0.00    +0.049 C 
ATOM     21  C   UNL     1      -0.604  -4.924  -6.444  0.00  0.00    +0.089 C 
ATOM     22  N   UNL     1       0.289  -4.749  -7.594  0.00  0.00    -0.296 NA
ATOM     23  C   UNL     1       0.590  -3.328  -7.817  0.00  0.00    +0.105 C 
ATOM     24  H   UNL     1       3.133  -7.928  -7.702  0.00  0.00    +0.160 HD
ENDBRANCH   3  10
BRANCH   2  25
ATOM     25  O   UNL     1       0.455  -5.894  -4.694  0.00  0.00    -0.370 OA
ATOM     26  H   UNL     1      -0.182  -5.677  -4.000  0.00  0.00    +0.212 HD
ENDBRANCH   2  25
BRANCH   1  27
ATOM     27  C   UNL     1       1.455  -4.208  -2.488  0.00  0.00    +0.112 C 
BRANCH  27  28
ATOM     28  C   UNL     1       1.343  -2.683  -2.432  0.00  0.00    +0.019 C 
BRANCH  28  29
ATOM     29  C   UNL     1       0.617  -2.272  -1.149  0.00  0.00    +0.002 C 
BRANCH  29  30
ATOM     30  C   UNL     1       0.505  -0.748  -1.093  0.00  0.00    -0.000 C 
BRANCH  30  32
ATOM     31  C   UNL     1      -0.334   1.188   0.245  0.00  0.00    +0.004 C 
ATOM     32  C   UNL     1      -0.222  -0.337   0.189  0.00  0.00    -0.003 C 
ENDBRANCH  30  32
ENDBRANCH  29  30
ENDBRANCH  28  29
ENDBRANCH  27  28
ENDBRANCH   1  27
TORSDOF 7
