REMARK  Name = ZINC22905204
REMARK  9 active torsions:
REMARK  status: ('A' for Active; 'I' for Inactive)
REMARK    1  A    between atoms: C_1  and  C_2
REMARK    2  A    between atoms: C_3  and  C_13
REMARK    3  A    between atoms: N_15  and  N_16
REMARK    4  A    between atoms: C_17  and  C_19
REMARK    5  A    between atoms: C_19  and  C_21
REMARK    6  A    between atoms: C_19  and  N_24
REMARK    7  A    between atoms: C_21  and  C_22
REMARK    8  A    between atoms: C_21  and  C_23
REMARK    9  A    between atoms: C_25  and  C_27
REMARK                            x       y       z     vdW  Elec       q    Type
REMARK                         _______ _______ _______ _____ _____    ______ ____
ROOT
ATOM      1  N   UNL     1       0.316  -0.557  -4.985  0.00  0.00    -0.233 N 
ATOM      2  C   UNL     1       0.040  -1.489  -5.919  0.00  0.00    +0.250 C 
ATOM      3  O   UNL     1      -0.073  -2.654  -5.598  0.00  0.00    -0.272 OA
ATOM      4  H   UNL     1       0.474   0.362  -5.250  0.00  0.00    +0.173 HD
ENDROOT
BRANCH   1   7
ATOM      5  C   UNL     1       0.651   0.015  -2.699  0.00  0.00    +0.269 C 
ATOM      6  O   UNL     1       0.849   1.170  -3.031  0.00  0.00    -0.268 OA
ATOM      7  N   UNL     1       0.375  -0.917  -3.632  0.00  0.00    -0.230 N 
ATOM      8  H   UNL     1       0.217  -1.837  -3.368  0.00  0.00    +0.173 HD
BRANCH   5  11
ATOM      9  C   UNL     1       1.260   1.899  -0.288  0.00  0.00    +0.067 C 
ATOM     10  C   UNL     1       0.976   0.423  -0.172  0.00  0.00    +0.060 A 
ATOM     11  C   UNL     1       0.712  -0.360  -1.287  0.00  0.00    +0.099 A 
ATOM     12  S   UNL     1       0.468  -1.953  -0.519  0.00  0.00    -0.047 S 
ATOM     13  C   UNL     1       0.716  -1.483   1.078  0.00  0.00    +0.162 A 
ATOM     14  N   UNL     1       0.971  -0.190   0.984  0.00  0.00    -0.229 NA
ATOM     15  N   UNL     1       0.669  -2.263   2.214  0.00  0.00    -0.305 N 
ATOM     16  C   UNL     1       0.907  -1.680   3.544  0.00  0.00    +0.135 C 
ATOM     17  C   UNL     1      -0.239  -2.104   4.470  0.00  0.00    +0.179 C 
ATOM     18  O   UNL     1      -0.385  -3.525   4.417  0.00  0.00    -0.377 OA
ATOM     19  C   UNL     1      -0.740  -4.029   3.127  0.00  0.00    +0.179 C 
ATOM     20  C   UNL     1       0.375  -3.703   2.133  0.00  0.00    +0.135 C 
ENDBRANCH   5  11
ENDBRANCH   1   7
BRANCH   2  21
ATOM     21  C   UNL     1      -0.127  -1.085  -7.361  0.00  0.00    +0.163 C 
BRANCH  21  22
ATOM     22  N   UNL     1       0.238  -2.208  -8.228  0.00  0.00    -0.299 N 
ATOM     23  C   UNL     1       0.655  -1.978  -9.489  0.00  0.00    +0.251 C 
ATOM     24  O   UNL     1       0.729  -0.837  -9.907  0.00  0.00    -0.270 OA
ATOM     25  H   UNL     1       0.179  -3.117  -7.895  0.00  0.00    +0.150 HD
BRANCH  23  26
ATOM     26  C   UNL     1       1.020  -3.101 -10.357  0.00  0.00    +0.074 A 
ATOM     27  C   UNL     1       1.473  -3.082 -11.667  0.00  0.00    +0.021 A 
ATOM     28  C   UNL     1       1.736  -4.310 -12.226  0.00  0.00    +0.008 A 
ATOM     29  C   UNL     1       1.543  -5.428 -11.482  0.00  0.00    +0.046 A 
ATOM     30  S   UNL     1       1.004  -4.848 -10.000  0.00  0.00    -0.092 S 
ENDBRANCH  23  26
ENDBRANCH  21  22
BRANCH  21  31
ATOM     31  C   UNL     1      -1.584  -0.696  -7.616  0.00  0.00    +0.012 C 
ATOM     32  C   UNL     1      -1.950   0.509  -6.747  0.00  0.00    +0.009 C 
ATOM     33  C   UNL     1      -1.765  -0.335  -9.092  0.00  0.00    +0.009 C 
ENDBRANCH  21  31
ENDBRANCH   2  21
TORSDOF 6
