REMARK  Name = ZINC65085727
REMARK  5 active torsions:
REMARK  status: ('A' for Active; 'I' for Inactive)
REMARK    1  A    between atoms: C_1  and  C_2
REMARK    2  A    between atoms: C_5  and  C_9
REMARK    3  A    between atoms: C_6  and  C_8
REMARK    4  A    between atoms: C_15  and  C_17
REMARK    5  A    between atoms: C_20  and  C_25
REMARK                            x       y       z     vdW  Elec       q    Type
REMARK                         _______ _______ _______ _____ _____    ______ ____
ROOT
ATOM      1  C   UNL     1       0.029  -4.252  -0.016  0.00  0.00    +0.134 A 
ATOM      2  N   UNL     1       0.056  -5.111   0.995  0.00  0.00    -0.140 NA
ATOM      3  N   UNL     1       0.078  -6.358   0.810  0.00  0.00    -0.125 NA
ATOM      4  C   UNL     1       0.076  -6.886  -0.408  0.00  0.00    +0.188 A 
ATOM      5  S   UNL     1       0.030  -5.393  -1.396  0.00  0.00    -0.030 S 
ATOM      6  N   UNL     1       0.098  -8.216  -0.803  0.00  0.00    -0.259 N 
ATOM      7  C   UNL     1       0.126  -9.194   0.123  0.00  0.00    +0.255 C 
ATOM      8  O   UNL     1       0.227  -8.912   1.302  0.00  0.00    -0.270 OA
ATOM      9  H   UNL     1       0.093  -8.442  -1.747  0.00  0.00    +0.157 HD
ENDROOT
BRANCH   7  10
ATOM     10  C   UNL     1       0.034 -10.602  -0.290  0.00  0.00    +0.101 A 
ATOM     11  C   UNL     1      -0.060 -11.617   0.661  0.00  0.00    +0.020 A 
ATOM     12  C   UNL     1      -0.146 -12.940   0.230  0.00  0.00    +0.022 A 
ATOM     13  C   UNL     1      -0.138 -13.227  -1.097  0.00  0.00    +0.016 A 
ATOM     14  N   UNL     1      -0.048 -12.247  -2.027  0.00  0.00    -0.326 N 
ATOM     15  H   UNL     1      -0.045 -12.481  -2.968  0.00  0.00    +0.169 HD
ATOM     16  C   UNL     1       0.032 -10.952  -1.666  0.00  0.00    +0.261 A 
ATOM     17  O   UNL     1       0.108 -10.084  -2.518  0.00  0.00    -0.267 OA
ATOM     18  C   UNL     1      -0.232 -14.664  -1.543  0.00  0.00    +0.063 C 
ENDBRANCH   7  10
BRANCH   1  23
ATOM     19  C   UNL     1      -0.083   1.502   0.022  0.00  0.00    +0.044 C 
ATOM     20  C   UNL     1      -0.054  -0.005   0.012  0.00  0.00    -0.050 A 
ATOM     21  C   UNL     1      -0.059  -0.686  -1.193  0.00  0.00    +0.004 A 
ATOM     22  C   UNL     1      -0.032  -2.065  -1.209  0.00  0.00    +0.011 A 
ATOM     23  C   UNL     1       0.001  -2.773  -0.006  0.00  0.00    +0.012 A 
ATOM     24  C   UNL     1       0.005  -2.080   1.205  0.00  0.00    -0.040 A 
ATOM     25  C   UNL     1      -0.017  -0.701   1.207  0.00  0.00    +0.007 A 
ATOM     26  C   UNL     1       0.040  -2.837   2.508  0.00  0.00    +0.044 C 
ENDBRANCH   1  23
TORSDOF 2
