REMARK  Name = ZINC53208159
REMARK  5 active torsions:
REMARK  status: ('A' for Active; 'I' for Inactive)
REMARK    1  A    between atoms: C_3  and  C_6
REMARK    2  A    between atoms: C_9  and  S_12
REMARK    3  A    between atoms: N_10  and  N_11
REMARK    4  A    between atoms: S_12  and  C_13
REMARK    5  A    between atoms: C_13  and  C_14
REMARK                            x       y       z     vdW  Elec       q    Type
REMARK                         _______ _______ _______ _____ _____    ______ ____
ROOT
ATOM      1  S   UNL     1       7.619   1.586   0.342  0.00  0.00    -0.075 S 
ENDROOT
BRANCH   1   5
ATOM      2  C   UNL     1       3.733   1.826  -0.003  0.00  0.00    +0.188 A 
ATOM      3  N   UNL     1       4.125   3.053  -0.266  0.00  0.00    -0.126 NA
ATOM      4  N   UNL     1       5.405   3.131  -0.190  0.00  0.00    -0.121 NA
ATOM      5  C   UNL     1       5.911   1.961   0.126  0.00  0.00    +0.209 A 
ATOM      6  N   UNL     1       4.866   1.090   0.262  0.00  0.00    -0.223 N 
BRANCH   2   9
ATOM      7  C   UNL     1      -0.018   1.362   0.045  0.00  0.00    +0.008 A 
ATOM      8  C   UNL     1       1.175   2.049   0.035  0.00  0.00    +0.019 A 
ATOM      9  C   UNL     1       2.346   1.334   0.013  0.00  0.00    +0.058 A 
ATOM     10  S   UNL     1       1.749  -0.349   0.006  0.00  0.00    -0.093 S 
ATOM     11  C   UNL     1      -0.001   0.004   0.033  0.00  0.00    +0.046 A 
ENDBRANCH   2   9
BRANCH   6  12
ATOM     12  N   UNL     1       4.933  -0.235   0.589  0.00  0.00    -0.295 N 
ATOM     13  H   UNL     1       5.020  -0.807  -0.237  0.00  0.00    +0.163 HD
ATOM     14  H   UNL     1       5.690  -0.411   1.232  0.00  0.00    +0.163 HD
ENDBRANCH   6  12
ENDBRANCH   1   5
BRANCH   1  15
ATOM     15  C   UNL     1       8.458   3.163   0.029  0.00  0.00    +0.173 C 
BRANCH  15  16
ATOM     16  C   UNL     1       9.946   2.980   0.183  0.00  0.00    +0.226 C 
ATOM     17  O   UNL     1      10.396   1.893   0.475  0.00  0.00    -0.275 OA
ATOM     18  N   UNL     1      10.777   4.025  -0.004  0.00  0.00    -0.293 N 
ATOM     19  C   UNL     1      10.274   5.332  -0.465  0.00  0.00    +0.136 C 
ATOM     20  C   UNL     1      11.124   5.800  -1.650  0.00  0.00    +0.179 C 
ATOM     21  O   UNL     1      12.513   5.727  -1.310  0.00  0.00    -0.373 OA
ATOM     22  C   UNL     1      12.956   4.407  -1.005  0.00  0.00    +0.139 C 
ATOM     23  C   UNL     1      12.218   3.911   0.249  0.00  0.00    +0.105 C 
ATOM     24  C   UNL     1      12.611   2.459   0.516  0.00  0.00    +0.025 C 
ATOM     25  C   UNL     1      14.120   2.393   0.774  0.00  0.00    +0.002 C 
ATOM     26  C   UNL     1      14.881   2.926  -0.440  0.00  0.00    +0.003 C 
ATOM     27  C   UNL     1      14.457   4.373  -0.727  0.00  0.00    +0.033 C 
ENDBRANCH  15  16
ENDBRANCH   1  15
TORSDOF 5
