REMARK  Name = ZINC03521361
REMARK  8 active torsions:
REMARK  status: ('A' for Active; 'I' for Inactive)
REMARK    1  A    between atoms: C_1  and  C_2
REMARK    2  A    between atoms: C_4  and  C_14
REMARK    3  A    between atoms: C_5  and  C_13
REMARK    4  A    between atoms: N_6  and  C_7
REMARK    5  A    between atoms: C_14  and  O_16
REMARK    6  A    between atoms: O_16  and  C_17
REMARK    7  A    between atoms: C_17  and  C_19
REMARK    8  A    between atoms: C_17  and  C_20
REMARK                            x       y       z     vdW  Elec       q    Type
REMARK                         _______ _______ _______ _____ _____    ______ ____
ROOT
ATOM      1  C   UNL     1       1.572  -1.655   0.716  0.00  0.00    +0.342 C 
ATOM      2  O   UNL     1       0.625  -2.282   1.149  0.00  0.00    -0.245 OA
ENDROOT
BRANCH   1   6
ATOM      3  C   UNL     1       6.640  -2.182   0.462  0.00  0.00    +0.064 C 
ATOM      4  C   UNL     1       5.175  -2.405   0.736  0.00  0.00    +0.022 A 
ATOM      5  C   UNL     1       4.181  -1.567   0.395  0.00  0.00    +0.038 A 
ATOM      6  C   UNL     1       2.935  -2.190   0.857  0.00  0.00    +0.080 A 
ATOM      7  C   UNL     1       3.303  -3.376   1.456  0.00  0.00    +0.035 A 
ATOM      8  N   UNL     1       4.644  -3.493   1.370  0.00  0.00    -0.317 N 
ATOM      9  C   UNL     1       2.368  -4.372   2.093  0.00  0.00    +0.065 C 
BRANCH   8  10
ATOM     10  C   UNL     1       5.387  -4.573   1.866  0.00  0.00    +0.047 A 
ATOM     11  C   UNL     1       5.223  -5.839   1.321  0.00  0.00    +0.026 A 
ATOM     12  C   UNL     1       5.962  -6.900   1.808  0.00  0.00    +0.002 A 
ATOM     13  C   UNL     1       6.855  -6.704   2.846  0.00  0.00    +0.000 A 
ATOM     14  C   UNL     1       7.016  -5.445   3.394  0.00  0.00    +0.002 A 
ATOM     15  C   UNL     1       6.285  -4.379   2.908  0.00  0.00    +0.026 A 
ENDBRANCH   8  10
ENDBRANCH   1   6
BRANCH   1  16
ATOM     16  O   UNL     1       1.373  -0.470   0.106  0.00  0.00    -0.449 OA
BRANCH  16  17
ATOM     17  C   UNL     1       0.002  -0.004   0.002  0.00  0.00    +0.259 C 
ATOM     18  C   UNL     1      -0.613  -0.515  -1.302  0.00  0.00    +0.062 C 
BRANCH  17  19
ATOM     19  C   UNL     1      -0.018   1.503   0.010  0.00  0.00    +0.261 C 
ATOM     20  O   UNL     1       1.023   2.123   0.004  0.00  0.00    -0.271 OA
ATOM     21  N   UNL     1      -1.195   2.161   0.019  0.00  0.00    -0.237 N 
ATOM     22  C   UNL     1      -1.213   3.508   0.027  0.00  0.00    +0.303 C 
ATOM     23  O   UNL     1      -0.169   4.130   0.025  0.00  0.00    -0.253 OA
ATOM     24  N   UNL     1      -2.389   4.166   0.036  0.00  0.00    -0.313 N 
ATOM     25  H   UNL     1      -2.028   1.664   0.021  0.00  0.00    +0.159 HD
ATOM     26  H   UNL     1      -3.223   3.670   0.037  0.00  0.00    +0.146 HD
ATOM     27  H   UNL     1      -2.402   5.136   0.041  0.00  0.00    +0.146 HD
ENDBRANCH  17  19
ENDBRANCH  16  17
ENDBRANCH   1  16
TORSDOF 5
