REMARK  Name = ZINC30562063
REMARK  7 active torsions:
REMARK  status: ('A' for Active; 'I' for Inactive)
REMARK    1  A    between atoms: C_1  and  C_2
REMARK    2  A    between atoms: C_3  and  C_16
REMARK    3  A    between atoms: N_14  and  C_15
REMARK    4  A    between atoms: C_16  and  C_17
REMARK    5  A    between atoms: C_17  and  C_18
REMARK    6  A    between atoms: N_20  and  C_21
REMARK    7  A    between atoms: N_20  and  C_22
REMARK                            x       y       z     vdW  Elec       q    Type
REMARK                         _______ _______ _______ _____ _____    ______ ____
ROOT
ATOM      1  C   UNL     1      -1.606  -2.002   2.490  0.00  0.00    +0.045 C 
ATOM      2  C   UNL     1      -1.495  -2.732   1.177  0.00  0.00    -0.026 A 
ATOM      3  C   UNL     1      -1.413  -2.041   0.005  0.00  0.00    +0.021 A 
ATOM      4  C   UNL     1      -1.315  -2.737  -1.210  0.00  0.00    +0.254 A 
ATOM      5  O   UNL     1      -1.246  -2.114  -2.257  0.00  0.00    -0.268 OA
ATOM      6  N   UNL     1      -1.291  -4.082  -1.236  0.00  0.00    -0.307 N 
ATOM      7  H   UNL     1      -1.206  -4.612  -2.197  0.00  0.00    +0.170 HD
ATOM      8  C   UNL     1      -1.371  -4.802  -0.086  0.00  0.00    +0.141 A 
ATOM      9  C   UNL     1      -1.474  -4.138   1.141  0.00  0.00    +0.086 A 
ATOM     10  C   UNL     1      -1.542  -5.176   2.177  0.00  0.00    +0.274 A 
ATOM     11  O   UNL     1      -1.637  -4.998   3.377  0.00  0.00    -0.266 OA
ATOM     12  N   UNL     1      -1.477  -6.365   1.542  0.00  0.00    -0.262 N 
ATOM     13  H   UNL     1      -1.510  -7.300   2.121  0.00  0.00    +0.190 HD
ATOM     14  N   UNL     1      -1.373  -6.143   0.166  0.00  0.00    -0.271 N 
ATOM     15  C   UNL     1      -1.281  -7.192  -0.852  0.00  0.00    +0.172 C 
ENDROOT
BRANCH   3  16
ATOM     16  C   UNL     1      -1.433  -0.534   0.013  0.00  0.00    +0.050 C 
BRANCH  16  17
ATOM     17  C   UNL     1       0.002  -0.004   0.002  0.00  0.00    +0.101 C 
BRANCH  17  18
ATOM     18  C   UNL     1      -0.018   1.503   0.010  0.00  0.00    +0.216 C 
ATOM     19  O   UNL     1      -1.077   2.095   0.018  0.00  0.00    -0.276 OA
ATOM     20  N   UNL     1       1.139   2.192   0.003  0.00  0.00    -0.297 N 
ATOM     21  C   UNL     1       2.418   1.477  -0.013  0.00  0.00    +0.132 C 
BRANCH  20  22
ATOM     22  C   UNL     1       1.120   3.657   0.011  0.00  0.00    +0.106 C 
ATOM     23  C   UNL     1       1.908   4.197   1.223  0.00  0.00    +0.032 C 
ATOM     24  C   UNL     1       2.542   5.486   0.659  0.00  0.00    +0.037 C 
ATOM     25  C   UNL     1       2.659   5.250  -0.832  0.00  0.00    -0.042 A 
ATOM     26  C   UNL     1       1.842   4.199  -1.204  0.00  0.00    -0.024 A 
ATOM     27  C   UNL     1       1.788   3.804  -2.530  0.00  0.00    +0.006 A 
ATOM     28  C   UNL     1       2.548   4.456  -3.481  0.00  0.00    +0.000 A 
ATOM     29  C   UNL     1       3.366   5.507  -3.109  0.00  0.00    +0.000 A 
ATOM     30  C   UNL     1       3.421   5.903  -1.786  0.00  0.00    +0.004 A 
ENDBRANCH  20  22
ENDBRANCH  17  18
ENDBRANCH  16  17
ENDBRANCH   3  16
TORSDOF 4
