REMARK  Name = ZINC59293119
REMARK  11 active torsions:
REMARK  status: ('A' for Active; 'I' for Inactive)
REMARK    1  A    between atoms: C_1  and  C_2
REMARK    2  A    between atoms: C_2  and  O_3
REMARK    3  A    between atoms: O_3  and  C_4
REMARK    4  A    between atoms: C_4  and  C_6
REMARK    5  A    between atoms: C_11  and  C_14
REMARK    6  A    between atoms: C_15  and  N_30
REMARK    7  A    between atoms: C_16  and  C_26
REMARK    8  A    between atoms: C_17  and  C_19
REMARK    9  A    between atoms: C_22  and  O_25
REMARK   10  A    between atoms: C_26  and  O_28
REMARK   11  A    between atoms: O_28  and  C_29
REMARK                            x       y       z     vdW  Elec       q    Type
REMARK                         _______ _______ _______ _____ _____    ______ ____
ROOT
ATOM      1  C   UNL     1       1.621  -2.309  -2.386  0.00  0.00    +0.077 C 
ATOM      2  C   UNL     1       1.803  -3.635  -2.558  0.00  0.00    +0.088 C 
ATOM      3  N   UNL     1       2.150  -4.252  -3.763  0.00  0.00    -0.220 N 
ATOM      4  C   UNL     1       2.599  -5.507  -3.744  0.00  0.00    +0.239 C 
ATOM      5  O   UNL     1       3.035  -6.043  -4.741  0.00  0.00    -0.274 OA
ATOM      6  C   UNL     1       2.538  -6.232  -2.408  0.00  0.00    +0.136 C 
ATOM      7  S   UNL     1       1.623  -4.977  -1.412  0.00  0.00    -0.096 S 
ATOM      8  C   UNL     1       1.751  -7.539  -2.518  0.00  0.00    +0.029 C 
ATOM      9  C   UNL     1       1.968  -3.509  -4.941  0.00  0.00    +0.106 C 
ATOM     10  C   UNL     1       1.833  -2.159  -4.852  0.00  0.00    +0.084 C 
ATOM     11  C   UNL     1       1.924  -1.402  -3.561  0.00  0.00    +0.098 C 
ENDROOT
BRANCH  11  12
ATOM     12  C   UNL     1       3.317  -0.847  -3.413  0.00  0.00    -0.035 A 
ATOM     13  C   UNL     1       4.401  -1.705  -3.365  0.00  0.00    +0.008 A 
ATOM     14  C   UNL     1       5.679  -1.198  -3.229  0.00  0.00    +0.046 A 
ATOM     15  C   UNL     1       5.875   0.172  -3.141  0.00  0.00    +0.117 A 
ATOM     16  C   UNL     1       4.786   1.031  -3.190  0.00  0.00    +0.046 A 
ATOM     17  C   UNL     1       3.510   0.520  -3.331  0.00  0.00    +0.008 A 
BRANCH  15  18
ATOM     18  O   UNL     1       7.131   0.673  -3.007  0.00  0.00    -0.507 OA
ATOM     19  H   UNL     1       7.570   0.864  -3.847  0.00  0.00    +0.292 HD
ENDBRANCH  15  18
ENDBRANCH  11  12
BRANCH   9  20
ATOM     20  N   UNL     1       1.927  -4.134  -6.160  0.00  0.00    -0.345 N 
ATOM     21  H   UNL     1       1.902  -5.103  -6.207  0.00  0.00    +0.143 HD
ATOM     22  H   UNL     1       1.924  -3.608  -6.974  0.00  0.00    +0.143 HD
ENDBRANCH   9  20
BRANCH   1  23
ATOM     23  C   UNL     1       1.162  -1.789  -1.167  0.00  0.00    +0.338 C 
ATOM     24  O   UNL     1       0.924  -2.539  -0.237  0.00  0.00    -0.245 OA
BRANCH  23  25
ATOM     25  O   UNL     1       0.983  -0.458  -1.025  0.00  0.00    -0.462 OA
BRANCH  25  27
ATOM     26  C   UNL     1       0.373   1.524   0.215  0.00  0.00    +0.048 C 
ATOM     27  C   UNL     1       0.513   0.001   0.244  0.00  0.00    +0.229 C 
ENDBRANCH  25  27
ENDBRANCH  23  25
ENDBRANCH   1  23
BRANCH  10  28
ATOM     28  C   UNL     1       1.592  -1.436  -6.030  0.00  0.00    +0.339 C 
ATOM     29  O   UNL     1       0.463  -1.065  -6.296  0.00  0.00    -0.245 OA
BRANCH  28  30
ATOM     30  O   UNL     1       2.612  -1.150  -6.868  0.00  0.00    -0.465 OA
ATOM     31  C   UNL     1       2.294  -0.410  -8.048  0.00  0.00    +0.280 C 
ENDBRANCH  28  30
ENDBRANCH  10  28
TORSDOF 8
