REMARK  Name = ZINC38581579
REMARK  5 active torsions:
REMARK  status: ('A' for Active; 'I' for Inactive)
REMARK    1  A    between atoms: C_1  and  C_2
REMARK    2  A    between atoms: C_10  and  S_12
REMARK    3  A    between atoms: S_12  and  C_13
REMARK    4  A    between atoms: C_13  and  C_14
REMARK    5  A    between atoms: C_19  and  C_22
REMARK                            x       y       z     vdW  Elec       q    Type
REMARK                         _______ _______ _______ _____ _____    ______ ____
ROOT
ATOM      1  C   UNL     1       0.530  -5.587   3.398  0.00  0.00    +0.229 C 
ATOM      2  O   UNL     1       0.314  -5.140   4.505  0.00  0.00    -0.275 OA
ATOM      3  N   UNL     1       0.703  -6.913   3.229  0.00  0.00    -0.264 N 
ATOM      4  C   UNL     1       0.633  -7.768   4.322  0.00  0.00    +0.165 A 
ATOM      5  N   UNL     1       0.777  -9.079   4.367  0.00  0.00    -0.225 NA
ATOM      6  C   UNL     1       0.678  -9.743   5.509  0.00  0.00    +0.080 A 
ATOM      7  C   UNL     1       0.423  -9.057   6.663  0.00  0.00    +0.076 A 
ATOM      8  S   UNL     1       0.333  -7.383   6.041  0.00  0.00    -0.060 S 
ATOM      9  H   UNL     1       0.875  -7.270   2.344  0.00  0.00    +0.157 HD
ENDROOT
BRANCH   6  10
ATOM     10  C   UNL     1       0.844 -11.216   5.535  0.00  0.00    +0.001 A 
ATOM     11  C   UNL     1       0.733 -11.911   6.738  0.00  0.00    +0.013 A 
ATOM     12  C   UNL     1       0.887 -13.282   6.757  0.00  0.00    +0.039 A 
ATOM     13  C   UNL     1       1.151 -13.968   5.583  0.00  0.00    +0.123 A 
ATOM     14  C   UNL     1       1.263 -13.282   4.385  0.00  0.00    +0.039 A 
ATOM     15  C   UNL     1       1.105 -11.911   4.355  0.00  0.00    +0.013 A 
ATOM     16  F   UNL     1       1.301 -15.311   5.607  0.00  0.00    -0.205 F 
ENDBRANCH   6  10
BRANCH   1  17
ATOM     17  C   UNL     1       0.606  -4.660   2.212  0.00  0.00    +0.171 C 
BRANCH  17  18
ATOM     18  S   UNL     1       0.334  -2.952   2.762  0.00  0.00    -0.099 S 
BRANCH  18  27
ATOM     19  C   UNL     1      -0.121   1.490   0.004  0.00  0.00    +0.065 C 
ATOM     20  C   UNL     1      -0.073  -0.017  -0.001  0.00  0.00    +0.039 C 
ATOM     21  N   UNL     1      -0.068  -0.630  -1.152  0.00  0.00    -0.244 NA
ATOM     22  C   UNL     1      -0.085  -2.092  -1.212  0.00  0.00    +0.310 C 
ATOM     23  N   UNL     1       0.792  -2.606  -2.269  0.00  0.00    -0.341 N 
ATOM     24  C   UNL     1       1.615  -3.449  -1.739  0.00  0.00    +0.172 C 
ATOM     25  N   UNL     1       1.426  -3.583  -0.388  0.00  0.00    -0.252 N 
ATOM     26  N   UNL     1       0.536  -2.584   0.038  0.00  0.00    -0.204 N 
ATOM     27  C   UNL     1       0.276  -2.026   1.264  0.00  0.00    +0.087 C 
ATOM     28  C   UNL     1      -0.031  -0.683   1.230  0.00  0.00    +0.054 C 
ATOM     29  H   UNL     1       1.830  -4.259   0.179  0.00  0.00    +0.171 HD
ATOM     30  H   UNL     1       0.759  -2.356  -3.205  0.00  0.00    +0.164 HD
ENDBRANCH  18  27
ENDBRANCH  17  18
ENDBRANCH   1  17
TORSDOF 4
