REMARK  Name = ZINC44562593
REMARK  8 active torsions:
REMARK  status: ('A' for Active; 'I' for Inactive)
REMARK    1  A    between atoms: C_1  and  C_2
REMARK    2  A    between atoms: C_7  and  C_33
REMARK    3  A    between atoms: N_9  and  S_10
REMARK    4  A    between atoms: S_10  and  C_13
REMARK    5  A    between atoms: C_16  and  N_19
REMARK    6  A    between atoms: N_19  and  C_20
REMARK    7  A    between atoms: C_20  and  N_22
REMARK    8  A    between atoms: N_22  and  C_23
REMARK                            x       y       z     vdW  Elec       q    Type
REMARK                         _______ _______ _______ _____ _____    ______ ____
ROOT
ATOM      1  C   UNL     1       0.213  -0.872   4.577  0.00  0.00    +0.106 A 
ATOM      2  C   UNL     1      -0.896  -0.270   4.012  0.00  0.00    +0.030 A 
ATOM      3  C   UNL     1      -1.841   0.335   4.818  0.00  0.00    +0.025 A 
ATOM      4  C   UNL     1      -1.677   0.337   6.197  0.00  0.00    +0.033 A 
ATOM      5  C   UNL     1      -0.562  -0.269   6.761  0.00  0.00    +0.025 A 
ATOM      6  C   UNL     1       0.377  -0.875   5.951  0.00  0.00    +0.030 A 
ENDROOT
BRANCH   1   7
ATOM      7  S   UNL     1       1.417  -1.642   3.546  0.00  0.00    +0.061 S 
ATOM      8  O   UNL     1       2.565  -1.857   4.354  0.00  0.00    -0.153 OA
ATOM      9  O   UNL     1       1.462  -0.888   2.343  0.00  0.00    -0.153 OA
BRANCH   7  16
ATOM     10  C   UNL     1       1.686  -3.814   5.341  0.00  0.00    +0.026 C 
ATOM     11  C   UNL     1       0.893  -4.248   4.106  0.00  0.00    +0.077 C 
ATOM     12  C   UNL     1       1.588  -5.441   3.442  0.00  0.00    +0.020 C 
ATOM     13  C   UNL     1       0.870  -5.782   2.135  0.00  0.00    +0.003 C 
ATOM     14  C   UNL     1       0.948  -4.586   1.182  0.00  0.00    +0.020 C 
ATOM     15  C   UNL     1       0.246  -3.383   1.820  0.00  0.00    +0.077 C 
ATOM     16  N   UNL     1       0.832  -3.138   3.145  0.00  0.00    -0.171 NA
ATOM     17  C   UNL     1      -1.248  -3.680   1.967  0.00  0.00    +0.026 C 
ENDBRANCH   7  16
ENDBRANCH   1   7
BRANCH   4  18
ATOM     18  N   UNL     1      -2.632   0.949   7.016  0.00  0.00    -0.297 N 
ATOM     19  H   UNL     1      -2.352   1.447   7.799  0.00  0.00    +0.154 HD
BRANCH  18  20
ATOM     20  C   UNL     1      -3.942   0.847   6.715  0.00  0.00    +0.139 C 
ATOM     21  S   UNL     1      -4.447  -0.144   5.413  0.00  0.00    -0.018 S 
BRANCH  20  22
ATOM     22  N   UNL     1      -4.854   1.524   7.440  0.00  0.00    -0.297 N 
ATOM     23  H   UNL     1      -4.565   2.150   8.122  0.00  0.00    +0.154 HD
BRANCH  22  24
ATOM     24  C   UNL     1      -6.222   1.325   7.207  0.00  0.00    +0.033 A 
ATOM     25  C   UNL     1      -6.709   0.034   6.997  0.00  0.00    +0.025 A 
ATOM     26  C   UNL     1      -8.037  -0.182   6.769  0.00  0.00    +0.029 A 
ATOM     27  C   UNL     1      -8.925   0.891   6.744  0.00  0.00    +0.066 A 
ATOM     28  C   UNL     1      -8.444   2.198   6.955  0.00  0.00    +0.021 A 
ATOM     29  C   UNL     1      -7.080   2.405   7.193  0.00  0.00    +0.034 A 
ATOM     30  C   UNL     1      -9.602   3.081   6.867  0.00  0.00    +0.142 A 
ATOM     31  N   UNL     1     -10.649   2.343   6.628  0.00  0.00    -0.181 NA
ATOM     32  N   UNL     1     -10.278   0.997   6.545  0.00  0.00    -0.277 N 
ATOM     33  H   UNL     1     -10.882   0.257   6.374  0.00  0.00    +0.189 HD
ENDBRANCH  22  24
ENDBRANCH  20  22
ENDBRANCH  18  20
ENDBRANCH   4  18
TORSDOF 6
