REMARK  Name = ZINC12055029
REMARK  4 active torsions:
REMARK  status: ('A' for Active; 'I' for Inactive)
REMARK    1  A    between atoms: C_3  and  C_6
REMARK    2  A    between atoms: C_8  and  C_17
REMARK    3  A    between atoms: C_10  and  N_12
REMARK    4  A    between atoms: N_19  and  C_20
REMARK                            x       y       z     vdW  Elec       q    Type
REMARK                         _______ _______ _______ _____ _____    ______ ____
ROOT
ATOM      1  C   UNL     1      -2.771   9.319  -1.973  0.00  0.00    -0.009 A 
ATOM      2  C   UNL     1      -2.749   7.926  -1.988  0.00  0.00    +0.022 A 
ATOM      3  C   UNL     1      -2.132   7.231  -0.950  0.00  0.00    +0.039 A 
ATOM      4  C   UNL     1      -1.527   7.932   0.095  0.00  0.00    +0.041 A 
ATOM      5  C   UNL     1      -1.545   9.318   0.103  0.00  0.00    +0.070 A 
ATOM      6  C   UNL     1      -2.163  10.013  -0.925  0.00  0.00    +0.037 A 
ENDROOT
BRANCH   1   9
ATOM      7  C   UNL     1      -4.621  10.468  -5.069  0.00  0.00    +0.008 A 
ATOM      8  C   UNL     1      -4.071   9.575  -4.176  0.00  0.00    +0.016 A 
ATOM      9  C   UNL     1      -3.430  10.061  -3.068  0.00  0.00    +0.019 A 
ATOM     10  S   UNL     1      -3.593  11.825  -3.294  0.00  0.00    -0.097 S 
ATOM     11  C   UNL     1      -4.501  11.800  -4.831  0.00  0.00    +0.046 A 
ENDBRANCH   1   9
BRANCH   5  12
ATOM     12  N   UNL     1      -0.936  10.020   1.154  0.00  0.00    -0.200 N 
ATOM     13  C   UNL     1      -0.216   9.505   2.175  0.00  0.00    +0.250 A 
ATOM     14  N   UNL     1       0.165  10.507   2.925  0.00  0.00    -0.116 NA
ATOM     15  N   UNL     1      -0.264  11.619   2.447  0.00  0.00    -0.023 NA
ATOM     16  N   UNL     1      -0.938  11.410   1.367  0.00  0.00    -0.039 NA
ENDBRANCH   5  12
BRANCH   3  17
ATOM     17  C   UNL     1      -2.112   5.752  -0.958  0.00  0.00    +0.245 C 
ATOM     18  O   UNL     1      -2.639   5.142  -1.868  0.00  0.00    -0.270 OA
ATOM     19  N   UNL     1      -1.510   5.081   0.044  0.00  0.00    -0.306 N 
ATOM     20  H   UNL     1      -1.089   5.567   0.770  0.00  0.00    +0.150 HD
BRANCH  19  21
ATOM     21  C   UNL     1      -1.490   3.616   0.036  0.00  0.00    +0.036 C 
ATOM     22  C   UNL     1      -0.773   3.123  -1.223  0.00  0.00    +0.029 C 
ATOM     23  C   UNL     1      -0.753   1.593  -1.232  0.00  0.00    -0.008 C 
ATOM     24  C   UNL     1      -0.013   1.086   0.008  0.00  0.00    +0.007 C 
ATOM     25  C   UNL     1      -0.729   1.579   1.267  0.00  0.00    -0.008 C 
ATOM     26  C   UNL     1      -0.750   3.109   1.275  0.00  0.00    +0.029 C 
ATOM     27  C   UNL     1      -2.164   1.050   1.278  0.00  0.00    +0.007 C 
ATOM     28  C   UNL     1      -2.904   1.556   0.038  0.00  0.00    -0.008 C 
ATOM     29  C   UNL     1      -2.188   1.063  -1.221  0.00  0.00    +0.007 C 
ATOM     30  C   UNL     1      -2.925   3.086   0.047  0.00  0.00    +0.029 C 
ENDBRANCH  19  21
ENDBRANCH   3  17
TORSDOF 4
