REMARK  Name = ZINC08337901
REMARK  6 active torsions:
REMARK  status: ('A' for Active; 'I' for Inactive)
REMARK    1  A    between atoms: C_4  and  C_7
REMARK    2  A    between atoms: C_7  and  O_8
REMARK    3  A    between atoms: O_8  and  C_9
REMARK    4  A    between atoms: C_12  and  C_15
REMARK    5  A    between atoms: N_16  and  N_17
REMARK    6  A    between atoms: N_17  and  C_18
REMARK                            x       y       z     vdW  Elec       q    Type
REMARK                         _______ _______ _______ _____ _____    ______ ____
ROOT
ATOM      1  C   UNL     1       4.817   5.567  -0.014  0.00  0.00    +0.121 A 
ATOM      2  C   UNL     1       3.606   6.247   0.001  0.00  0.00    +0.046 A 
ATOM      3  C   UNL     1       2.419   5.546   0.009  0.00  0.00    +0.013 A 
ATOM      4  C   UNL     1       2.436   4.149   0.001  0.00  0.00    -0.005 A 
ATOM      5  C   UNL     1       3.657   3.469  -0.009  0.00  0.00    +0.013 A 
ATOM      6  C   UNL     1       4.838   4.178  -0.022  0.00  0.00    +0.046 A 
ENDROOT
BRANCH   4   7
ATOM      7  C   UNL     1       1.169   3.394   0.009  0.00  0.00    +0.138 C 
ATOM      8  N   UNL     1       1.187   2.096   0.002  0.00  0.00    -0.190 NA
BRANCH   8   9
ATOM      9  N   UNL     1      -0.017   1.379   0.010  0.00  0.00    -0.235 N 
ATOM     10  H   UNL     1      -0.863   1.853   0.016  0.00  0.00    +0.174 HD
BRANCH   9  11
ATOM     11  C   UNL     1       0.002  -0.004   0.002  0.00  0.00    +0.087 A 
ATOM     12  C   UNL     1      -1.207  -0.733   0.010  0.00  0.00    +0.158 A 
ATOM     13  N   UNL     1      -1.191  -2.036   0.003  0.00  0.00    -0.177 NA
ATOM     14  N   UNL     1       0.016  -2.743  -0.013  0.00  0.00    -0.242 N 
ATOM     15  H   UNL     1       0.004  -3.743  -0.018  0.00  0.00    +0.192 HD
ATOM     16  C   UNL     1       1.193  -2.089  -0.021  0.00  0.00    +0.281 A 
ATOM     17  O   UNL     1       2.243  -2.713  -0.034  0.00  0.00    -0.265 OA
ATOM     18  C   UNL     1       1.206  -0.686  -0.019  0.00  0.00    +0.107 A 
ATOM     19 BR   UNL     1       2.844   0.259  -0.037  0.00  0.00    -0.043 Br
ENDBRANCH   9  11
ENDBRANCH   8   9
ENDBRANCH   4   7
BRANCH   1  20
ATOM     20  O   UNL     1       5.984   6.262  -0.021  0.00  0.00    -0.487 OA
BRANCH  20  21
ATOM     21  C   UNL     1       7.193   5.500  -0.037  0.00  0.00    +0.264 C 
BRANCH  21  25
ATOM     22  C   UNL     1      10.545   8.148  -0.053  0.00  0.00    +0.000 A 
ATOM     23  C   UNL     1      10.014   7.713   1.147  0.00  0.00    +0.000 A 
ATOM     24  C   UNL     1       8.929   6.856   1.152  0.00  0.00    +0.007 A 
ATOM     25  C   UNL     1       8.375   6.434  -0.043  0.00  0.00    -0.010 A 
ATOM     26  C   UNL     1       8.910   6.865  -1.242  0.00  0.00    +0.007 A 
ATOM     27  C   UNL     1       9.991   7.726  -1.248  0.00  0.00    +0.000 A 
ENDBRANCH  21  25
ENDBRANCH  20  21
ENDBRANCH   1  20
TORSDOF 6
