REMARK  Name = ZINC62674175
REMARK  6 active torsions:
REMARK  status: ('A' for Active; 'I' for Inactive)
REMARK    1  A    between atoms: C_4  and  N_21
REMARK    2  A    between atoms: C_5  and  N_7
REMARK    3  A    between atoms: N_7  and  C_8
REMARK    4  A    between atoms: C_8  and  C_9
REMARK    5  A    between atoms: N_11  and  S_12
REMARK    6  A    between atoms: S_12  and  C_15
REMARK                            x       y       z     vdW  Elec       q    Type
REMARK                         _______ _______ _______ _____ _____    ______ ____
ROOT
ATOM      1  C   UNL     1      -0.006  -2.766   0.686  0.00  0.00    +0.204 C 
ENDROOT
BRANCH   1   2
ATOM      2  C   UNL     1       0.298  -4.217   0.958  0.00  0.00    +0.281 C 
ATOM      3  O   UNL     1      -0.710  -5.094   1.147  0.00  0.00    -0.268 OA
ATOM      4  N   UNL     1       1.522  -4.621   1.009  0.00  0.00    -0.089 NA
BRANCH   4   5
ATOM      5  S   UNL     1       1.857  -6.215   1.308  0.00  0.00    +0.108 S 
ATOM      6  O   UNL     1       1.426  -6.479   2.635  0.00  0.00    -0.146 OA
ATOM      7  O   UNL     1       1.373  -6.947   0.190  0.00  0.00    -0.146 OA
BRANCH   5   8
ATOM      8  C   UNL     1       3.610  -6.389   1.303  0.00  0.00    +0.151 A 
ATOM      9  C   UNL     1       4.481  -6.281   2.336  0.00  0.00    +0.038 A 
ATOM     10  C   UNL     1       5.831  -6.459   2.097  0.00  0.00    +0.030 A 
ATOM     11  C   UNL     1       6.243  -6.738   0.835  0.00  0.00    +0.080 A 
ATOM     12  S   UNL     1       4.699  -6.762  -0.061  0.00  0.00    -0.056 S 
ATOM     13 CL   UNL     1       7.854  -7.008   0.246  0.00  0.00    -0.076 Cl
ENDBRANCH   5   8
ENDBRANCH   4   5
ENDBRANCH   1   2
BRANCH   1  14
ATOM     14  N   UNL     1       1.248  -2.028   0.518  0.00  0.00    -0.333 N 
ATOM     15  H   UNL     1       2.097  -2.491   0.588  0.00  0.00    +0.147 HD
BRANCH  14  20
ATOM     16  C   UNL     1      -0.010   1.389   0.014  0.00  0.00    +0.002 A 
ATOM     17  C   UNL     1       1.166   2.061  -0.265  0.00  0.00    +0.002 A 
ATOM     18  C   UNL     1       2.368   1.379  -0.285  0.00  0.00    +0.034 A 
ATOM     19  C   UNL     1       2.399   0.023  -0.026  0.00  0.00    +0.147 A 
ATOM     20  C   UNL     1       1.220  -0.656   0.255  0.00  0.00    +0.058 A 
ATOM     21  C   UNL     1       0.014   0.033   0.275  0.00  0.00    +0.025 A 
BRANCH  19  22
ATOM     22  N   UNL     1       3.687  -0.707  -0.048  0.00  0.00    +0.058 N 
ATOM     23  O   UNL     1       4.688  -0.178   0.376  0.00  0.00    -0.126 OA
ATOM     24  O   UNL     1       3.737  -1.831  -0.489  0.00  0.00    -0.126 OA
ENDBRANCH  19  22
ENDBRANCH  14  20
ENDBRANCH   1  14
TORSDOF 6
