REMARK  Name = ZINC40428586
REMARK  7 active torsions:
REMARK  status: ('A' for Active; 'I' for Inactive)
REMARK    1  A    between atoms: C_1  and  C_2
REMARK    2  A    between atoms: C_2  and  C_3
REMARK    3  A    between atoms: C_2  and  C_4
REMARK    4  A    between atoms: C_6  and  O_16
REMARK    5  A    between atoms: N_7  and  C_9
REMARK    6  A    between atoms: O_16  and  C_17
REMARK    7  A    between atoms: C_18  and  N_24
REMARK                            x       y       z     vdW  Elec       q    Type
REMARK                         _______ _______ _______ _____ _____    ______ ____
ROOT
ATOM      1  C   UNL     1       0.752  -0.618   1.176  0.00  0.00    +0.070 A 
ATOM      2  C   UNL     1       2.128  -0.516   1.403  0.00  0.00    +0.093 A 
ATOM      3  C   UNL     1       2.374  -0.933   2.674  0.00  0.00    +0.226 A 
ATOM      4  N   UNL     1       1.183  -1.286   3.226  0.00  0.00    -0.200 N 
ATOM      5  N   UNL     1       0.186  -1.072   2.265  0.00  0.00    -0.168 NA
ENDROOT
BRANCH   4   6
ATOM      6  C   UNL     1       0.986  -1.772   4.526  0.00  0.00    +0.069 A 
ATOM      7  C   UNL     1       1.879  -2.686   5.069  0.00  0.00    +0.031 A 
ATOM      8  C   UNL     1       1.683  -3.163   6.350  0.00  0.00    +0.040 A 
ATOM      9  C   UNL     1       0.598  -2.731   7.093  0.00  0.00    +0.124 A 
ATOM     10  C   UNL     1      -0.294  -1.820   6.553  0.00  0.00    +0.040 A 
ATOM     11  C   UNL     1      -0.099  -1.335   5.275  0.00  0.00    +0.031 A 
ATOM     12  F   UNL     1       0.408  -3.200   8.346  0.00  0.00    -0.205 F 
ENDBRANCH   4   6
BRANCH   1  14
ATOM     13  C   UNL     1      -0.261   1.240  -0.117  0.00  0.00    +0.014 C 
ATOM     14  C   UNL     1       0.042  -0.260  -0.104  0.00  0.00    +0.033 C 
ATOM     15  C   UNL     1       0.932  -0.611  -1.297  0.00  0.00    +0.014 C 
ENDBRANCH   1  14
BRANCH   3  16
ATOM     16  O   UNL     1       3.587  -0.987   3.280  0.00  0.00    -0.418 OA
BRANCH  16  17
ATOM     17  C   UNL     1       4.686  -0.716   2.532  0.00  0.00    +0.248 A 
ATOM     18  C   UNL     1       5.968  -0.862   3.073  0.00  0.00    +0.125 A 
ATOM     19  C   UNL     1       7.059  -0.570   2.264  0.00  0.00    +0.157 A 
ATOM     20  N   UNL     1       6.848  -0.167   1.018  0.00  0.00    -0.222 NA
ATOM     21  C   UNL     1       5.626  -0.040   0.544  0.00  0.00    +0.226 A 
ATOM     22  N   UNL     1       4.562  -0.311   1.274  0.00  0.00    -0.199 NA
ATOM     23 CL   UNL     1       8.676  -0.731   2.875  0.00  0.00    -0.060 Cl
BRANCH  18  24
ATOM     24  N   UNL     1       6.146  -1.291   4.394  0.00  0.00    -0.351 N 
ATOM     25  H   UNL     1       5.375  -1.490   4.948  0.00  0.00    +0.143 HD
ATOM     26  H   UNL     1       7.041  -1.388   4.756  0.00  0.00    +0.143 HD
ENDBRANCH  18  24
ENDBRANCH  16  17
ENDBRANCH   3  16
TORSDOF 5
