REMARK  Name = ZINC22204186
REMARK  6 active torsions:
REMARK  status: ('A' for Active; 'I' for Inactive)
REMARK    1  A    between atoms: C_4  and  C_7
REMARK    2  A    between atoms: C_7  and  N_8
REMARK    3  A    between atoms: C_9  and  C_10
REMARK    4  A    between atoms: C_19  and  C_31
REMARK    5  A    between atoms: N_21  and  C_24
REMARK    6  A    between atoms: C_24  and  C_25
REMARK                            x       y       z     vdW  Elec       q    Type
REMARK                         _______ _______ _______ _____ _____    ______ ____
ROOT
ATOM      1  N   UNL     1      -3.813  -0.463   2.778  0.00  0.00    -0.365 N 
ATOM      2  C   UNL     1      -3.176   0.425   3.491  0.00  0.00    +0.150 C 
ATOM      3  N   UNL     1      -2.046   1.048   2.977  0.00  0.00    -0.215 N 
ATOM      4  C   UNL     1      -1.323   1.827   3.794  0.00  0.00    +0.146 C 
ATOM      5  S   UNL     1      -1.818   2.019   5.421  0.00  0.00    -0.018 S 
ATOM      6  N   UNL     1      -0.215   2.463   3.362  0.00  0.00    -0.301 N 
ATOM      7  C   UNL     1       0.194   2.277   1.960  0.00  0.00    +0.229 C 
ATOM      8  N   UNL     1      -0.654   1.411   1.124  0.00  0.00    -0.283 N 
ATOM      9  C   UNL     1      -1.736   0.838   1.690  0.00  0.00    +0.149 C 
ATOM     10  S   UNL     1      -2.736  -0.178   0.743  0.00  0.00    -0.018 S 
ATOM     11  H   UNL     1       0.380   3.107   4.028  0.00  0.00    +0.150 HD
ATOM     12  H   UNL     1      -3.408  -0.782   1.807  0.00  0.00    +0.161 HD
ENDROOT
BRANCH   2  13
ATOM     13  C   UNL     1      -3.654   0.765   4.840  0.00  0.00    +0.166 A 
ATOM     14  C   UNL     1      -3.506   0.001   5.959  0.00  0.00    +0.053 A 
ATOM     15  C   UNL     1      -4.109   0.708   7.014  0.00  0.00    +0.042 A 
ATOM     16  C   UNL     1      -4.591   1.858   6.497  0.00  0.00    +0.196 A 
ATOM     17  O   UNL     1      -4.310   1.891   5.186  0.00  0.00    -0.460 OA
ENDBRANCH   2  13
BRANCH   7  18
ATOM     18  C   UNL     1       1.590   1.709   1.950  0.00  0.00    +0.143 A 
ATOM     19  C   UNL     1       2.486   1.808   2.948  0.00  0.00    +0.048 A 
ATOM     20  C   UNL     1       3.654   1.138   2.518  0.00  0.00    +0.041 A 
ATOM     21  C   UNL     1       3.401   0.669   1.282  0.00  0.00    +0.195 A 
ATOM     22  O   UNL     1       2.147   1.014   0.946  0.00  0.00    -0.464 OA
ENDBRANCH   7  18
BRANCH   1  23
ATOM     23  C   UNL     1      -5.069  -1.034   3.271  0.00  0.00    +0.149 C 
BRANCH  23  27
ATOM     24  C   UNL     1      -8.263   0.087   0.665  0.00  0.00    +0.000 A 
ATOM     25  C   UNL     1      -7.556  -1.078   0.431  0.00  0.00    +0.000 A 
ATOM     26  C   UNL     1      -6.523  -1.441   1.274  0.00  0.00    +0.005 A 
ATOM     27  C   UNL     1      -6.196  -0.639   2.352  0.00  0.00    -0.028 A 
ATOM     28  C   UNL     1      -6.906   0.523   2.589  0.00  0.00    +0.005 A 
ATOM     29  C   UNL     1      -7.936   0.889   1.742  0.00  0.00    +0.000 A 
ENDBRANCH  23  27
ENDBRANCH   1  23
BRANCH   8  30
ATOM     30  C   UNL     1      -0.327   1.173  -0.284  0.00  0.00    +0.144 C 
BRANCH  30  31
ATOM     31  C   UNL     1      -1.003   2.212  -1.140  0.00  0.00    -0.030 A 
ATOM     32  C   UNL     1      -2.271   1.978  -1.640  0.00  0.00    +0.005 A 
ATOM     33  C   UNL     1      -2.893   2.934  -2.421  0.00  0.00    +0.000 A 
ATOM     34  C   UNL     1      -2.244   4.120  -2.710  0.00  0.00    +0.000 A 
ATOM     35  C   UNL     1      -0.975   4.352  -2.215  0.00  0.00    +0.000 A 
ATOM     36  C   UNL     1      -0.354   3.398  -1.430  0.00  0.00    +0.005 A 
ENDBRANCH  30  31
ENDBRANCH   8  30
TORSDOF 6
