REMARK  Name = ZINC35769719
REMARK  7 active torsions:
REMARK  status: ('A' for Active; 'I' for Inactive)
REMARK    1  A    between atoms: C_1  and  N_2
REMARK    2  A    between atoms: N_5  and  S_8
REMARK    3  A    between atoms: S_8  and  C_11
REMARK    4  A    between atoms: C_14  and  N_17
REMARK    5  A    between atoms: C_18  and  C_20
REMARK    6  A    between atoms: C_21  and  C_22
REMARK    7  A    between atoms: C_25  and  N_28
REMARK                            x       y       z     vdW  Elec       q    Type
REMARK                         _______ _______ _______ _____ _____    ______ ____
ROOT
ATOM      1  C   UNL     1      -0.492  -5.374   0.908  0.00  0.00    +0.106 A 
ATOM      2  C   UNL     1      -1.381  -6.056   0.098  0.00  0.00    +0.030 A 
ATOM      3  C   UNL     1      -0.990  -7.223  -0.529  0.00  0.00    +0.025 A 
ATOM      4  C   UNL     1       0.298  -7.710  -0.345  0.00  0.00    +0.034 A 
ATOM      5  C   UNL     1       1.188  -7.022   0.469  0.00  0.00    +0.025 A 
ATOM      6  C   UNL     1       0.793  -5.853   1.089  0.00  0.00    +0.030 A 
ENDROOT
BRANCH   4   7
ATOM      7  N   UNL     1       0.697  -8.891  -0.978  0.00  0.00    -0.282 N 
ATOM      8  C   UNL     1       1.572  -9.718  -0.373  0.00  0.00    +0.241 C 
ATOM      9  O   UNL     1       1.942  -9.487   0.764  0.00  0.00    -0.270 OA
ATOM     10  H   UNL     1       0.344  -9.116  -1.853  0.00  0.00    +0.155 HD
BRANCH   8  11
ATOM     11  C   UNL     1       2.079 -10.895  -1.081  0.00  0.00    +0.068 C 
ATOM     12  C   UNL     1       2.954 -11.722  -0.475  0.00  0.00    +0.013 C 
BRANCH  12  13
ATOM     13  C   UNL     1       3.464 -12.905  -1.188  0.00  0.00    -0.025 A 
ATOM     14  C   UNL     1       3.046 -13.171  -2.496  0.00  0.00    +0.010 A 
ATOM     15  C   UNL     1       3.528 -14.281  -3.157  0.00  0.00    +0.033 A 
ATOM     16  C   UNL     1       4.422 -15.131  -2.530  0.00  0.00    +0.126 A 
ATOM     17  C   UNL     1       4.840 -14.874  -1.236  0.00  0.00    +0.033 A 
ATOM     18  C   UNL     1       4.372 -13.765  -0.563  0.00  0.00    +0.010 A 
BRANCH  16  19
ATOM     19  N   UNL     1       4.934 -16.320  -3.246  0.00  0.00    +0.056 N 
ATOM     20  O   UNL     1       4.570 -16.548  -4.377  0.00  0.00    -0.126 OA
ATOM     21  O   UNL     1       5.715 -17.065  -2.701  0.00  0.00    -0.126 OA
ENDBRANCH  16  19
ENDBRANCH  12  13
ENDBRANCH   8  11
ENDBRANCH   4   7
BRANCH   1  22
ATOM     22  S   UNL     1      -0.995  -3.885   1.706  0.00  0.00    +0.061 S 
ATOM     23  O   UNL     1      -0.150  -3.726   2.838  0.00  0.00    -0.153 OA
ATOM     24  O   UNL     1      -2.411  -3.941   1.814  0.00  0.00    -0.153 OA
BRANCH  22  29
ATOM     25  C   UNL     1      -0.577   1.438  -0.330  0.00  0.00    +0.105 C 
ATOM     26  N   UNL     1      -0.460  -0.026  -0.281  0.00  0.00    -0.303 NA
ATOM     27  C   UNL     1      -1.783  -0.656  -0.178  0.00  0.00    +0.101 C 
ATOM     28  C   UNL     1      -1.634  -2.175  -0.311  0.00  0.00    +0.125 C 
ATOM     29  N   UNL     1      -0.647  -2.636   0.677  0.00  0.00    -0.174 NA
ATOM     30  C   UNL     1       0.657  -1.958   0.727  0.00  0.00    +0.125 C 
ATOM     31  C   UNL     1       0.417  -0.447   0.819  0.00  0.00    +0.101 C 
ENDBRANCH  22  29
ENDBRANCH   1  22
TORSDOF 6
