REMARK  Name = ZINC66930640
REMARK  8 active torsions:
REMARK  status: ('A' for Active; 'I' for Inactive)
REMARK    1  A    between atoms: C_1  and  C_2
REMARK    2  A    between atoms: C_2  and  C_4
REMARK    3  A    between atoms: C_2  and  N_20
REMARK    4  A    between atoms: C_4  and  C_5
REMARK    5  A    between atoms: N_7  and  C_8
REMARK    6  A    between atoms: C_8  and  C_9
REMARK    7  A    between atoms: C_9  and  O_19
REMARK    8  A    between atoms: C_21  and  C_23
REMARK                            x       y       z     vdW  Elec       q    Type
REMARK                         _______ _______ _______ _____ _____    ______ ____
ROOT
ATOM      1  C   UNL     1       0.687  -2.033   1.295  0.00  0.00    +0.215 C 
ATOM      2  O   UNL     1       0.343  -2.603   0.282  0.00  0.00    -0.276 OA
ATOM      3  N   UNL     1       1.331  -2.712   2.265  0.00  0.00    -0.312 N 
ATOM      4  H   UNL     1       1.606  -2.256   3.076  0.00  0.00    +0.149 HD
ENDROOT
BRANCH   1   5
ATOM      5  C   UNL     1       0.394  -0.565   1.470  0.00  0.00    +0.117 C 
BRANCH   5   7
ATOM      6  C   UNL     1      -0.525   1.473   0.356  0.00  0.00    +0.028 C 
ATOM      7  C   UNL     1      -0.339  -0.040   0.234  0.00  0.00    +0.079 C 
BRANCH   7   8
ATOM      8  N   UNL     1      -1.649  -0.687   0.132  0.00  0.00    -0.312 N 
ATOM      9  C   UNL     1      -2.256  -0.796  -1.067  0.00  0.00    +0.216 C 
ATOM     10  O   UNL     1      -1.717  -0.357  -2.061  0.00  0.00    -0.276 OA
ATOM     11  H   UNL     1      -2.080  -1.038   0.927  0.00  0.00    +0.149 HD
BRANCH   9  12
ATOM     12  C   UNL     1      -3.604  -1.461  -1.172  0.00  0.00    +0.075 C 
ATOM     13  C   UNL     1      -3.499  -2.906  -0.679  0.00  0.00    +0.013 C 
ATOM     14  C   UNL     1      -4.867  -3.581  -0.785  0.00  0.00    +0.001 C 
ATOM     15  C   UNL     1      -5.328  -3.573  -2.244  0.00  0.00    +0.000 C 
ATOM     16  C   UNL     1      -5.433  -2.128  -2.737  0.00  0.00    +0.001 C 
ATOM     17  C   UNL     1      -4.064  -1.452  -2.631  0.00  0.00    +0.013 C 
ENDBRANCH   9  12
ENDBRANCH   7   8
ENDBRANCH   5   7
ENDBRANCH   1   5
BRANCH   3  18
ATOM     18  C   UNL     1       1.615  -4.139   2.095  0.00  0.00    +0.143 C 
BRANCH  18  19
ATOM     19  C   UNL     1       2.462  -4.634   3.269  0.00  0.00    +0.107 C 
ATOM     20  C   UNL     1       3.739  -3.800   3.356  0.00  0.00    +0.041 C 
ATOM     21  C   UNL     1       4.668  -4.444   4.391  0.00  0.00    +0.008 C 
ATOM     22  C   UNL     1       5.185  -5.763   3.819  0.00  0.00    +0.035 C 
ATOM     23  C   UNL     1       4.043  -6.608   3.321  0.00  0.00    -0.041 A 
ATOM     24  C   UNL     1       2.793  -6.089   3.065  0.00  0.00    -0.011 A 
ATOM     25  C   UNL     1       1.784  -6.923   2.600  0.00  0.00    +0.007 A 
ATOM     26  C   UNL     1       2.023  -8.266   2.397  0.00  0.00    +0.000 A 
ATOM     27  C   UNL     1       3.276  -8.788   2.658  0.00  0.00    +0.000 A 
ATOM     28  C   UNL     1       4.280  -7.961   3.118  0.00  0.00    +0.004 A 
BRANCH  19  29
ATOM     29  O   UNL     1       1.720  -4.485   4.481  0.00  0.00    -0.382 OA
ATOM     30  H   UNL     1       0.889  -4.981   4.497  0.00  0.00    +0.211 HD
ENDBRANCH  19  29
ENDBRANCH  18  19
ENDBRANCH   3  18
TORSDOF 7
