REMARK  Name = ZINC16845693
REMARK  5 active torsions:
REMARK  status: ('A' for Active; 'I' for Inactive)
REMARK    1  A    between atoms: C_1  and  C_2
REMARK    2  A    between atoms: C_12  and  S_19
REMARK    3  A    between atoms: S_19  and  C_20
REMARK    4  A    between atoms: C_20  and  C_21
REMARK    5  A    between atoms: C_21  and  C_23
REMARK                            x       y       z     vdW  Elec       q    Type
REMARK                         _______ _______ _______ _____ _____    ______ ____
ROOT
ATOM      1  C   UNL     1      12.806   5.504  -0.372  0.00  0.00    +0.008 C 
ATOM      2  C   UNL     1      13.121   4.018  -0.554  0.00  0.00    -0.009 C 
ATOM      3  C   UNL     1      14.360   3.655   0.270  0.00  0.00    +0.009 C 
ATOM      4  C   UNL     1      14.815   2.241  -0.120  0.00  0.00    +0.043 C 
ATOM      5  C   UNL     1      13.617   1.342  -0.116  0.00  0.00    -0.004 A 
ATOM      6  C   UNL     1      12.317   1.711  -0.102  0.00  0.00    -0.024 A 
ATOM      7  C   UNL     1      11.324   0.639  -0.101  0.00  0.00    +0.056 A 
ATOM      8  C   UNL     1       9.849   0.743  -0.088  0.00  0.00    +0.174 A 
ATOM      9  N   UNL     1       9.007   1.747  -0.075  0.00  0.00    -0.128 NA
ATOM     10  N   UNL     1       7.799   1.299  -0.071  0.00  0.00    -0.122 NA
ATOM     11  C   UNL     1       7.800  -0.014  -0.073  0.00  0.00    +0.199 A 
ATOM     12  N   UNL     1       9.107  -0.418  -0.087  0.00  0.00    -0.241 N 
ATOM     13  C   UNL     1       9.727  -1.638  -0.101  0.00  0.00    +0.202 A 
ATOM     14  N   UNL     1      11.036  -1.737  -0.113  0.00  0.00    -0.208 NA
ATOM     15  C   UNL     1      11.829  -0.668  -0.113  0.00  0.00    +0.116 A 
ATOM     16  S   UNL     1      13.588  -0.430  -0.128  0.00  0.00    -0.073 S 
ATOM     17  N   UNL     1       8.964  -2.783  -0.100  0.00  0.00    -0.328 N 
ATOM     18  C   UNL     1      11.925   3.186  -0.089  0.00  0.00    +0.040 C 
ATOM     19  H   UNL     1       7.996  -2.720  -0.091  0.00  0.00    +0.145 HD
ATOM     20  H   UNL     1       9.394  -3.652  -0.110  0.00  0.00    +0.145 HD
ENDROOT
BRANCH  11  21
ATOM     21  S   UNL     1       6.382  -1.060  -0.065  0.00  0.00    -0.078 S 
BRANCH  21  22
ATOM     22  C   UNL     1       4.984   0.096  -0.045  0.00  0.00    +0.157 C 
BRANCH  22  23
ATOM     23  C   UNL     1       3.691  -0.680  -0.037  0.00  0.00    +0.173 C 
ATOM     24  O   UNL     1       3.711  -1.892  -0.044  0.00  0.00    -0.291 OA
BRANCH  23  25
ATOM     25  C   UNL     1       2.405   0.035  -0.021  0.00  0.00    +0.018 A 
ATOM     26  C   UNL     1       1.203  -0.681  -0.013  0.00  0.00    +0.011 A 
ATOM     27  C   UNL     1       0.002  -0.004   0.002  0.00  0.00    +0.001 A 
ATOM     28  C   UNL     1      -0.017   1.380   0.010  0.00  0.00    +0.000 A 
ATOM     29  C   UNL     1       1.168   2.095   0.002  0.00  0.00    +0.001 A 
ATOM     30  C   UNL     1       2.377   1.433  -0.013  0.00  0.00    +0.011 A 
ENDBRANCH  23  25
ENDBRANCH  22  23
ENDBRANCH  21  22
ENDBRANCH  11  21
TORSDOF 4
