REMARK  Name = ZINC15354126
REMARK  9 active torsions:
REMARK  status: ('A' for Active; 'I' for Inactive)
REMARK    1  A    between atoms: C_1  and  C_2
REMARK    2  A    between atoms: C_5  and  N_9
REMARK    3  A    between atoms: C_6  and  C_8
REMARK    4  A    between atoms: C_10  and  C_12
REMARK    5  A    between atoms: C_15  and  N_18
REMARK    6  A    between atoms: N_18  and  S_19
REMARK    7  A    between atoms: S_19  and  C_22
REMARK    8  A    between atoms: C_25  and  C_31
REMARK    9  A    between atoms: C_26  and  N_28
REMARK                            x       y       z     vdW  Elec       q    Type
REMARK                         _______ _______ _______ _____ _____    ______ ____
ROOT
ATOM      1  C   UNL     1       1.034  -6.742   0.242  0.00  0.00    +0.037 A 
ATOM      2  C   UNL     1       1.068  -7.671   1.286  0.00  0.00    +0.015 A 
ATOM      3  C   UNL     1       0.795  -8.996   1.034  0.00  0.00    +0.027 A 
ATOM      4  C   UNL     1       0.485  -9.411  -0.258  0.00  0.00    +0.074 A 
ATOM      5  C   UNL     1       0.451  -8.488  -1.300  0.00  0.00    +0.027 A 
ATOM      6  C   UNL     1       0.717  -7.161  -1.053  0.00  0.00    +0.015 A 
ENDROOT
BRANCH   1   8
ATOM      7  N   UNL     1       1.631  -4.918   1.758  0.00  0.00    -0.281 N 
ATOM      8  C   UNL     1       1.326  -5.321   0.508  0.00  0.00    +0.248 C 
ATOM      9  O   UNL     1       1.291  -4.512  -0.400  0.00  0.00    -0.270 OA
ATOM     10  H   UNL     1       1.722  -5.571   2.469  0.00  0.00    +0.155 HD
BRANCH   7  15
ATOM     11  C   UNL     1       2.382   0.596   2.856  0.00  0.00    +0.044 C 
ATOM     12  C   UNL     1       2.183  -0.869   2.564  0.00  0.00    -0.050 A 
ATOM     13  C   UNL     1       2.444  -1.362   1.299  0.00  0.00    +0.005 A 
ATOM     14  C   UNL     1       2.262  -2.704   1.028  0.00  0.00    +0.024 A 
ATOM     15  C   UNL     1       1.817  -3.558   2.029  0.00  0.00    +0.037 A 
ATOM     16  C   UNL     1       1.556  -3.060   3.298  0.00  0.00    -0.029 A 
ATOM     17  C   UNL     1       1.745  -1.718   3.564  0.00  0.00    +0.008 A 
ATOM     18  C   UNL     1       1.073  -3.983   4.387  0.00  0.00    +0.045 C 
ENDBRANCH   7  15
ENDBRANCH   1   8
BRANCH   4  19
ATOM     19  N   UNL     1       0.210 -10.751  -0.509  0.00  0.00    -0.098 NA
BRANCH  19  20
ATOM     20  S   UNL     1      -0.158 -11.247  -2.045  0.00  0.00    +0.092 S 
ATOM     21  O   UNL     1      -1.401 -10.645  -2.379  0.00  0.00    -0.148 OA
ATOM     22  O   UNL     1       1.014 -11.057  -2.825  0.00  0.00    -0.148 OA
BRANCH  20  23
ATOM     23  C   UNL     1      -0.443 -12.985  -1.978  0.00  0.00    +0.113 A 
ATOM     24  C   UNL     1       0.608 -13.865  -2.160  0.00  0.00    +0.029 A 
ATOM     25  C   UNL     1       0.385 -15.228  -2.107  0.00  0.00    +0.007 A 
ATOM     26  C   UNL     1      -0.889 -15.711  -1.871  0.00  0.00    -0.020 A 
ATOM     27  C   UNL     1      -1.939 -14.831  -1.688  0.00  0.00    +0.131 A 
ATOM     28  C   UNL     1      -1.715 -13.468  -1.737  0.00  0.00    +0.061 A 
ATOM     29  C   UNL     1      -1.132 -17.197  -1.815  0.00  0.00    +0.046 C 
BRANCH  27  30
ATOM     30  N   UNL     1      -3.302 -15.349  -1.436  0.00  0.00    +0.057 N 
ATOM     31  O   UNL     1      -4.260 -14.785  -1.912  0.00  0.00    -0.126 OA
ATOM     32  O   UNL     1      -3.458 -16.335  -0.755  0.00  0.00    -0.126 OA
ENDBRANCH  27  30
ENDBRANCH  20  23
ENDBRANCH  19  20
ENDBRANCH   4  19
TORSDOF 6
