REMARK  Name = ZINC03592873
REMARK  7 active torsions:
REMARK  status: ('A' for Active; 'I' for Inactive)
REMARK    1  A    between atoms: C_1  and  C_2
REMARK    2  A    between atoms: C_2  and  C_3
REMARK    3  A    between atoms: C_7  and  C_26
REMARK    4  A    between atoms: C_8  and  N_9
REMARK    5  A    between atoms: C_10  and  C_12
REMARK    6  A    between atoms: C_12  and  N_13
REMARK    7  A    between atoms: C_26  and  C_27
REMARK                            x       y       z     vdW  Elec       q    Type
REMARK                         _______ _______ _______ _____ _____    ______ ____
ROOT
ATOM      1  C   UNL     1      -1.541  -1.473  -1.658  0.00  0.00    +0.214 C 
ENDROOT
BRANCH   1   2
ATOM      2  N   UNL     1      -2.159  -2.420  -0.726  0.00  0.00    -0.215 N 
ATOM      3  C   UNL     1      -3.278  -2.166  -0.022  0.00  0.00    +0.247 C 
ATOM      4  O   UNL     1      -3.936  -1.148  -0.037  0.00  0.00    -0.273 OA
ATOM      5  C   UNL     1      -3.546  -3.417   0.796  0.00  0.00    +0.113 C 
ATOM      6  C   UNL     1      -4.857  -4.051   0.278  0.00  0.00    +0.035 C 
ATOM      7  C   UNL     1      -4.851  -5.517   0.613  0.00  0.00    +0.003 C 
ATOM      8  C   UNL     1      -5.565  -5.825   1.944  0.00  0.00    +0.000 C 
ATOM      9  C   UNL     1      -5.232  -4.806   3.050  0.00  0.00    +0.000 C 
ATOM     10  C   UNL     1      -3.774  -4.434   3.064  0.00  0.00    +0.003 C 
ATOM     11  C   UNL     1      -3.591  -3.152   2.228  0.00  0.00    +0.035 C 
ATOM     12  N   UNL     1      -2.433  -4.312   0.419  0.00  0.00    -0.285 N 
ATOM     13  C   UNL     1      -1.685  -3.645  -0.476  0.00  0.00    +0.310 C 
ATOM     14  O   UNL     1      -0.686  -4.102  -0.996  0.00  0.00    -0.252 OA
ATOM     15  H   UNL     1      -2.275  -5.210   0.751  0.00  0.00    +0.151 HD
ENDBRANCH   1   2
BRANCH   1  17
ATOM     16  N   UNL     1       0.154   0.328  -1.576  0.00  0.00    -0.284 N 
ATOM     17  C   UNL     1      -0.542  -0.620  -0.918  0.00  0.00    +0.235 C 
ATOM     18  O   UNL     1      -0.365  -0.787   0.270  0.00  0.00    -0.274 OA
ATOM     19  H   UNL     1      -0.037   0.508  -2.510  0.00  0.00    +0.155 HD
BRANCH  16  25
ATOM     20  C   UNL     1       0.934   2.389  -0.588  0.00  0.00    -0.026 A 
ATOM     21  C   UNL     1       1.915   3.103   0.072  0.00  0.00    +0.005 A 
ATOM     22  C   UNL     1       3.112   2.494   0.402  0.00  0.00    +0.001 A 
ATOM     23  C   UNL     1       3.329   1.168   0.077  0.00  0.00    +0.005 A 
ATOM     24  C   UNL     1       2.350   0.447  -0.579  0.00  0.00    -0.026 A 
ATOM     25  C   UNL     1       1.147   1.055  -0.912  0.00  0.00    +0.040 A 
BRANCH  20  27
ATOM     26  C   UNL     1      -1.053   3.564   0.317  0.00  0.00    +0.009 C 
ATOM     27  C   UNL     1      -0.368   3.055  -0.953  0.00  0.00    +0.033 C 
ENDBRANCH  20  27
BRANCH  24  28
ATOM     28  C   UNL     1       2.588  -0.999  -0.933  0.00  0.00    +0.033 C 
ATOM     29  C   UNL     1       3.106  -1.093  -2.369  0.00  0.00    +0.009 C 
ENDBRANCH  24  28
ENDBRANCH  16  25
ENDBRANCH   1  17
TORSDOF 5
