REMARK  Name = ZINC09636760
REMARK  6 active torsions:
REMARK  status: ('A' for Active; 'I' for Inactive)
REMARK    1  A    between atoms: C_4  and  C_7
REMARK    2  A    between atoms: C_20  and  C_22
REMARK    3  A    between atoms: C_25  and  O_28
REMARK    4  A    between atoms: O_28  and  C_29
REMARK    5  A    between atoms: C_29  and  C_31
REMARK    6  A    between atoms: C_31  and  C_32
REMARK                            x       y       z     vdW  Elec       q    Type
REMARK                         _______ _______ _______ _____ _____    ______ ____
ROOT
ATOM      1  C   UNL     1      -8.752  -4.275   0.849  0.00  0.00    +0.068 C 
ATOM      2  N   UNL     1      -8.722  -3.284   1.679  0.00  0.00    -0.185 NA
ATOM      3  N   UNL     1      -8.256  -2.109   1.119  0.00  0.00    -0.205 N 
ATOM      4  C   UNL     1      -7.701  -2.404  -0.222  0.00  0.00    +0.136 C 
ATOM      5  C   UNL     1      -8.216  -3.824  -0.495  0.00  0.00    +0.086 C 
ATOM      6  C   UNL     1      -8.305  -1.395  -1.163  0.00  0.00    +0.017 A 
ATOM      7  C   UNL     1      -8.251  -1.624  -2.525  0.00  0.00    +0.009 A 
ATOM      8  C   UNL     1      -8.783  -0.705  -3.409  0.00  0.00    +0.001 A 
ATOM      9  C   UNL     1      -9.371   0.450  -2.925  0.00  0.00    +0.004 A 
ATOM     10  C   UNL     1      -9.432   0.679  -1.568  0.00  0.00    +0.046 A 
ATOM     11  C   UNL     1      -8.906  -0.247  -0.667  0.00  0.00    +0.129 A 
ATOM     12  O   UNL     1      -9.044   0.025   0.658  0.00  0.00    -0.465 OA
ATOM     13  C   UNL     1      -8.306  -0.731   1.624  0.00  0.00    +0.310 C 
ENDROOT
BRANCH   1  17
ATOM     14  C   UNL     1     -10.140  -8.184   1.746  0.00  0.00    +0.000 A 
ATOM     15  C   UNL     1     -10.158  -7.205   2.725  0.00  0.00    +0.001 A 
ATOM     16  C   UNL     1      -9.708  -5.933   2.440  0.00  0.00    +0.010 A 
ATOM     17  C   UNL     1      -9.234  -5.633   1.161  0.00  0.00    -0.002 A 
ATOM     18  C   UNL     1      -9.225  -6.625   0.176  0.00  0.00    +0.010 A 
ATOM     19  C   UNL     1      -9.672  -7.894   0.477  0.00  0.00    +0.001 A 
ENDBRANCH   1  17
BRANCH  13  20
ATOM     20  C   UNL     1      -6.910  -0.178   1.758  0.00  0.00    +0.013 A 
ATOM     21  C   UNL     1      -5.881  -0.996   2.186  0.00  0.00    +0.012 A 
ATOM     22  C   UNL     1      -4.601  -0.492   2.308  0.00  0.00    +0.047 A 
ATOM     23  C   UNL     1      -4.349   0.838   2.002  0.00  0.00    +0.132 A 
ATOM     24  C   UNL     1      -5.384   1.658   1.579  0.00  0.00    +0.047 A 
ATOM     25  C   UNL     1      -6.661   1.147   1.453  0.00  0.00    +0.012 A 
BRANCH  23  26
ATOM     26  O   UNL     1      -3.090   1.337   2.123  0.00  0.00    -0.426 OA
BRANCH  26  27
ATOM     27  C   UNL     1      -2.215   1.024   1.153  0.00  0.00    +0.314 C 
ATOM     28  O   UNL     1      -2.534   0.258   0.276  0.00  0.00    -0.250 OA
BRANCH  27  29
ATOM     29  C   UNL     1      -0.835   1.630   1.160  0.00  0.00    +0.145 C 
BRANCH  29  30
ATOM     30  C   UNL     1      -0.046   1.113  -0.045  0.00  0.00    +0.152 C 
ATOM     31  C   UNL     1       1.366   1.682  -0.066  0.00  0.00    +0.234 C 
ATOM     32  O   UNL     1       2.167   1.462   0.817  0.00  0.00    -0.274 OA
ATOM     33  N   UNL     1       1.659   2.432  -1.115  0.00  0.00    -0.246 N 
ATOM     34  C   UNL     1       0.787   2.689  -2.108  0.00  0.00    +0.279 C 
ATOM     35  O   UNL     1       0.963   3.361  -3.105  0.00  0.00    -0.263 OA
ATOM     36  S   UNL     1      -0.690   1.811  -1.617  0.00  0.00    -0.054 S 
ATOM     37  H   UNL     1       2.548   2.816  -1.173  0.00  0.00    +0.158 HD
ENDBRANCH  29  30
ENDBRANCH  27  29
ENDBRANCH  26  27
ENDBRANCH  23  26
ENDBRANCH  13  20
TORSDOF 6
