REMARK  Name = ZINC36625123
REMARK  6 active torsions:
REMARK  status: ('A' for Active; 'I' for Inactive)
REMARK    1  A    between atoms: C_8  and  C_11
REMARK    2  A    between atoms: N_13  and  C_14
REMARK    3  A    between atoms: C_14  and  C_15
REMARK    4  A    between atoms: C_15  and  O_17
REMARK    5  A    between atoms: O_17  and  N_18
REMARK    6  A    between atoms: C_19  and  C_21
REMARK                            x       y       z     vdW  Elec       q    Type
REMARK                         _______ _______ _______ _____ _____    ______ ____
ROOT
ATOM      1  C   UNL     1       6.242  -0.060  -3.947  0.00  0.00    +0.347 C 
ATOM      2  O   UNL     1       6.638   0.637  -3.038  0.00  0.00    -0.247 OA
ENDROOT
BRANCH   1   3
ATOM      3  C   UNL     1       4.828  -0.582  -3.937  0.00  0.00    +0.227 C 
BRANCH   3   6
ATOM      4  C   UNL     1       2.859  -0.454  -2.507  0.00  0.00    +0.220 C 
ATOM      5  O   UNL     1       2.272  -1.155  -3.304  0.00  0.00    -0.275 OA
ATOM      6  N   UNL     1       4.143  -0.110  -2.731  0.00  0.00    -0.304 N 
ATOM      7  H   UNL     1       4.613   0.451  -2.094  0.00  0.00    +0.149 HD
BRANCH   4  15
ATOM      8  C   UNL     1      -0.019   1.526   0.010  0.00  0.00    +0.007 C 
ATOM      9  C   UNL     1       1.417   2.055  -0.000  0.00  0.00    -0.009 C 
ATOM     10  C   UNL     1       2.157   1.548   1.239  0.00  0.00    +0.007 C 
ATOM     11  C   UNL     1       2.178   0.019   1.231  0.00  0.00    -0.009 C 
ATOM     12  C   UNL     1       0.742  -0.511   1.242  0.00  0.00    +0.007 C 
ATOM     13  C   UNL     1       0.002  -0.004   0.002  0.00  0.00    -0.009 C 
ATOM     14  C   UNL     1       0.718  -0.497  -1.257  0.00  0.00    +0.019 C 
ATOM     15  C   UNL     1       2.154   0.032  -1.268  0.00  0.00    +0.048 C 
ATOM     16  C   UNL     1       2.133   1.562  -1.259  0.00  0.00    +0.019 C 
ATOM     17  C   UNL     1       2.894  -0.475  -0.028  0.00  0.00    +0.019 C 
ENDBRANCH   4  15
ENDBRANCH   3   6
ENDBRANCH   1   3
BRANCH   1  18
ATOM     18  O   UNL     1       7.061  -0.367  -4.961  0.00  0.00    -0.346 OA
BRANCH  18  19
ATOM     19  N   UNL     1       8.358   0.189  -4.842  0.00  0.00    -0.144 N 
ATOM     20  C   UNL     1       9.279  -0.043  -5.794  0.00  0.00    +0.251 C 
ATOM     21  O   UNL     1       8.998  -0.728  -6.755  0.00  0.00    -0.272 OA
ATOM     22  H   UNL     1       8.582   0.737  -4.074  0.00  0.00    +0.196 HD
BRANCH  20  23
ATOM     23  C   UNL     1      10.659   0.549  -5.668  0.00  0.00    +0.050 C 
ATOM     24  C   UNL     1      10.556   2.075  -5.616  0.00  0.00    +0.019 C 
ATOM     25  C   UNL     1      11.958   2.676  -5.487  0.00  0.00    -0.009 C 
ATOM     26  C   UNL     1      12.803   2.262  -6.694  0.00  0.00    +0.007 C 
ATOM     27  C   UNL     1      12.905   0.736  -6.746  0.00  0.00    -0.009 C 
ATOM     28  C   UNL     1      11.504   0.136  -6.874  0.00  0.00    +0.019 C 
ATOM     29  C   UNL     1      13.563   0.225  -5.463  0.00  0.00    +0.007 C 
ATOM     30  C   UNL     1      12.718   0.639  -4.256  0.00  0.00    -0.009 C 
ATOM     31  C   UNL     1      12.616   2.165  -4.204  0.00  0.00    +0.007 C 
ATOM     32  C   UNL     1      11.317   0.038  -4.385  0.00  0.00    +0.019 C 
ENDBRANCH  20  23
ENDBRANCH  18  19
ENDBRANCH   1  18
TORSDOF 6
