REMARK  Name = ZINC11000753
REMARK  6 active torsions:
REMARK  status: ('A' for Active; 'I' for Inactive)
REMARK    1  A    between atoms: C_1  and  C_2
REMARK    2  A    between atoms: C_5  and  N_8
REMARK    3  A    between atoms: C_9  and  C_28
REMARK    4  A    between atoms: C_11  and  C_16
REMARK    5  A    between atoms: C_21  and  C_24
REMARK    6  A    between atoms: C_24  and  C_25
REMARK                            x       y       z     vdW  Elec       q    Type
REMARK                         _______ _______ _______ _____ _____    ______ ____
ROOT
ATOM      1  N   UNL     1       3.420   2.126   0.816  0.00  0.00    -0.263 N 
ATOM      2  C   UNL     1       2.488   1.479  -0.115  0.00  0.00    +0.130 C 
ATOM      3  C   UNL     1       3.181   1.528  -1.495  0.00  0.00    +0.110 C 
ATOM      4  C   UNL     1       4.674   1.603  -1.094  0.00  0.00    +0.111 C 
ATOM      5  C   UNL     1       4.656   2.204   0.294  0.00  0.00    +0.221 C 
ATOM      6  O   UNL     1       5.618   2.686   0.855  0.00  0.00    -0.275 OA
ENDROOT
BRANCH   3   7
ATOM      7  C   UNL     1       2.896   0.277  -2.286  0.00  0.00    +0.224 C 
ATOM      8  O   UNL     1       2.201  -0.596  -1.811  0.00  0.00    -0.275 OA
ATOM      9  N   UNL     1       3.414   0.128  -3.521  0.00  0.00    -0.264 N 
ATOM     10  C   UNL     1       3.151  -1.025  -4.251  0.00  0.00    +0.165 A 
ATOM     11  N   UNL     1       3.557  -1.350  -5.463  0.00  0.00    -0.229 NA
ATOM     12  C   UNL     1       3.217  -2.499  -6.013  0.00  0.00    +0.059 A 
ATOM     13  C   UNL     1       2.425  -3.343  -5.307  0.00  0.00    +0.072 A 
ATOM     14  S   UNL     1       2.197  -2.406  -3.803  0.00  0.00    -0.060 S 
ATOM     15  H   UNL     1       3.970   0.826  -3.901  0.00  0.00    +0.157 HD
BRANCH  12  16
ATOM     16  C   UNL     1       3.692  -2.863  -7.396  0.00  0.00    +0.151 C 
BRANCH  16  17
ATOM     17  C   UNL     1       3.308  -1.772  -8.362  0.00  0.00    +0.216 C 
ATOM     18  O   UNL     1       2.707  -0.796  -7.966  0.00  0.00    -0.276 OA
ATOM     19  N   UNL     1       3.631  -1.882  -9.665  0.00  0.00    -0.329 N 
ATOM     20  H   UNL     1       4.112  -2.663  -9.982  0.00  0.00    +0.145 HD
ATOM     21  H   UNL     1       3.384  -1.180 -10.287  0.00  0.00    +0.145 HD
ENDBRANCH  16  17
ENDBRANCH  12  16
ENDBRANCH   3   7
BRANCH   1  26
ATOM     22  C   UNL     1       1.988   4.048   5.958  0.00  0.00    +0.044 C 
ATOM     23  C   UNL     1       2.368   3.538   4.592  0.00  0.00    -0.050 A 
ATOM     24  C   UNL     1       1.452   2.823   3.843  0.00  0.00    +0.005 A 
ATOM     25  C   UNL     1       1.797   2.354   2.591  0.00  0.00    +0.024 A 
ATOM     26  C   UNL     1       3.067   2.600   2.084  0.00  0.00    +0.037 A 
ATOM     27  C   UNL     1       3.987   3.313   2.842  0.00  0.00    +0.024 A 
ATOM     28  C   UNL     1       3.633   3.784   4.091  0.00  0.00    +0.005 A 
ENDBRANCH   1  26
BRANCH   2  29
ATOM     29  C   UNL     1       1.185   2.235  -0.159  0.00  0.00    +0.011 A 
ATOM     30  C   UNL     1      -0.078   1.754  -0.264  0.00  0.00    +0.013 A 
ATOM     31  C   UNL     1      -1.134   2.645  -0.291  0.00  0.00    +0.008 A 
ATOM     32  C   UNL     1      -0.877   3.973  -0.201  0.00  0.00    +0.045 A 
ATOM     33  S   UNL     1       0.905   3.997  -0.086  0.00  0.00    -0.100 S 
ENDBRANCH   2  29
TORSDOF 5
