REMARK  Name = ZINC09611446
REMARK  7 active torsions:
REMARK  status: ('A' for Active; 'I' for Inactive)
REMARK    1  A    between atoms: C_4  and  C_7
REMARK    2  A    between atoms: C_7  and  C_8
REMARK    3  A    between atoms: C_8  and  C_10
REMARK    4  A    between atoms: C_8  and  N_21
REMARK    5  A    between atoms: N_12  and  C_13
REMARK    6  A    between atoms: N_21  and  S_22
REMARK    7  A    between atoms: S_22  and  C_25
REMARK                            x       y       z     vdW  Elec       q    Type
REMARK                         _______ _______ _______ _____ _____    ______ ____
ROOT
ATOM      1  C   UNL     1       3.041   7.989   2.040  0.00  0.00    +0.167 C 
ENDROOT
BRANCH   1   2
ATOM      2  C   UNL     1       3.055   7.675   3.514  0.00  0.00    +0.236 C 
ATOM      3  O   UNL     1       2.022   7.703   4.150  0.00  0.00    -0.274 OA
ATOM      4  N   UNL     1       4.214   7.363   4.127  0.00  0.00    -0.282 N 
ATOM      5  H   UNL     1       5.026   7.262   3.605  0.00  0.00    +0.155 HD
BRANCH   4   6
ATOM      6  C   UNL     1       4.247   7.185   5.516  0.00  0.00    +0.069 A 
ATOM      7  C   UNL     1       3.295   7.798   6.318  0.00  0.00    +0.027 A 
ATOM      8  C   UNL     1       3.329   7.621   7.688  0.00  0.00    +0.022 A 
ATOM      9  C   UNL     1       4.311   6.833   8.261  0.00  0.00    +0.044 A 
ATOM     10  C   UNL     1       5.262   6.220   7.465  0.00  0.00    +0.060 A 
ATOM     11  C   UNL     1       5.230   6.389   6.093  0.00  0.00    +0.146 A 
ATOM     12  F   UNL     1       6.155   5.786   5.315  0.00  0.00    -0.203 F 
ATOM     13 CL   UNL     1       4.350   6.613   9.983  0.00  0.00    -0.083 Cl
ENDBRANCH   4   6
ENDBRANCH   1   2
BRANCH   1  14
ATOM     14  N   UNL     1       1.672   8.294   1.618  0.00  0.00    -0.178 NA
ATOM     15  H   UNL     1       1.071   8.759   2.221  0.00  0.00    +0.149 HD
BRANCH  14  16
ATOM     16  S   UNL     1       1.150   7.844   0.112  0.00  0.00    +0.059 S 
ATOM     17  O   UNL     1       2.143   8.277  -0.807  0.00  0.00    -0.153 OA
ATOM     18  O   UNL     1      -0.208   8.251   0.015  0.00  0.00    -0.153 OA
BRANCH  16  19
ATOM     19  C   UNL     1       1.153   6.083   0.065  0.00  0.00    +0.106 A 
ATOM     20  C   UNL     1       2.286   5.406  -0.350  0.00  0.00    +0.030 A 
ATOM     21  C   UNL     1       2.292   4.025  -0.389  0.00  0.00    +0.025 A 
ATOM     22  C   UNL     1       1.159   3.317  -0.011  0.00  0.00    +0.037 A 
ATOM     23  C   UNL     1       0.024   4.000   0.405  0.00  0.00    -0.024 A 
ATOM     24  C   UNL     1       0.024   5.380   0.442  0.00  0.00    +0.034 A 
ATOM     25  C   UNL     1      -1.205   3.231   0.816  0.00  0.00    +0.046 C 
ATOM     26  C   UNL     1      -1.320   1.962  -0.034  0.00  0.00    +0.101 C 
ATOM     27  C   UNL     1      -0.001   1.238  -0.048  0.00  0.00    +0.218 C 
ATOM     28  O   UNL     1       0.016   0.025  -0.064  0.00  0.00    -0.275 OA
ATOM     29  N   UNL     1       1.159   1.920  -0.048  0.00  0.00    -0.285 N 
ATOM     30  H   UNL     1       2.001   1.438  -0.073  0.00  0.00    +0.155 HD
ENDBRANCH  16  19
ENDBRANCH  14  16
ENDBRANCH   1  14
BRANCH   1  31
ATOM     31  C   UNL     1       3.940   9.198   1.768  0.00  0.00    +0.065 C 
BRANCH  31  35
ATOM     32  C   UNL     1       4.180   9.875  -2.442  0.00  0.00    +0.000 A 
ATOM     33  C   UNL     1       3.188  10.487  -1.699  0.00  0.00    +0.000 A 
ATOM     34  C   UNL     1       3.110  10.268  -0.337  0.00  0.00    +0.004 A 
ATOM     35  C   UNL     1       4.024   9.436   0.283  0.00  0.00    -0.045 A 
ATOM     36  C   UNL     1       5.019   8.828  -0.460  0.00  0.00    +0.004 A 
ATOM     37  C   UNL     1       5.094   9.043  -1.823  0.00  0.00    +0.000 A 
ENDBRANCH  31  35
ENDBRANCH   1  31
TORSDOF 7
