REMARK  Name = ZINC42160770
REMARK  4 active torsions:
REMARK  status: ('A' for Active; 'I' for Inactive)
REMARK    1  A    between atoms: C_1  and  N_2
REMARK    2  A    between atoms: N_2  and  O_16
REMARK    3  A    between atoms: C_3  and  C_5
REMARK    4  A    between atoms: O_16  and  C_17
REMARK                            x       y       z     vdW  Elec       q    Type
REMARK                         _______ _______ _______ _____ _____    ______ ____
ROOT
ATOM      1  C   UNL     1       0.042  -2.152   1.157  0.00  0.00    +0.095 A 
ATOM      2  C   UNL     1       0.058  -3.006   2.217  0.00  0.00    +0.068 A 
ATOM      3  C   UNL     1       0.076  -4.396   1.997  0.00  0.00    +0.008 A 
ATOM      4  C   UNL     1       0.095  -5.437   2.961  0.00  0.00    +0.012 A 
ATOM      5  C   UNL     1       0.112  -6.739   2.578  0.00  0.00    +0.021 A 
ATOM      6  C   UNL     1       0.111  -7.104   1.235  0.00  0.00    +0.042 A 
ATOM      7  C   UNL     1       0.093  -6.121   0.264  0.00  0.00    +0.035 A 
ATOM      8  C   UNL     1       0.076  -4.795   0.640  0.00  0.00    +0.023 A 
ATOM      9  S   UNL     1       0.043  -3.256  -0.244  0.00  0.00    -0.082 S 
ATOM     10 CL   UNL     1       0.133  -8.780   0.784  0.00  0.00    -0.084 Cl
ATOM     11 CL   UNL     1       0.057  -2.381   3.837  0.00  0.00    -0.082 Cl
ENDROOT
BRANCH   1  14
ATOM     12  C   UNL     1      -0.018   1.461   0.010  0.00  0.00    +0.167 C 
ATOM     13  N   UNL     1       0.002  -0.004   0.002  0.00  0.00    -0.180 N 
ATOM     14  C   UNL     1       0.022  -0.684   1.165  0.00  0.00    +0.277 C 
ATOM     15  O   UNL     1       0.024  -0.082   2.223  0.00  0.00    -0.267 OA
BRANCH  13  16
ATOM     16  O   UNL     1       0.000  -0.705  -1.228  0.00  0.00    -0.280 OA
ATOM     17  C   UNL     1       1.304  -0.976  -1.745  0.00  0.00    +0.227 C 
ENDBRANCH  13  16
ENDBRANCH   1  14
TORSDOF 2
