REMARK  Name = ZINC17268847
REMARK  7 active torsions:
REMARK  status: ('A' for Active; 'I' for Inactive)
REMARK    1  A    between atoms: C_1  and  C_2
REMARK    2  A    between atoms: C_2  and  C_3
REMARK    3  A    between atoms: C_3  and  C_5
REMARK    4  A    between atoms: C_3  and  S_6
REMARK    5  A    between atoms: S_6  and  C_7
REMARK    6  A    between atoms: C_17  and  C_19
REMARK    7  A    between atoms: C_22  and  N_25
REMARK                            x       y       z     vdW  Elec       q    Type
REMARK                         _______ _______ _______ _____ _____    ______ ____
ROOT
ATOM      1  C   UNL     1       0.774  -0.523  -4.074  0.00  0.00    +0.172 A 
ATOM      2  N   UNL     1       1.933  -1.102  -3.835  0.00  0.00    -0.185 NA
ATOM      3  C   UNL     1       2.730  -1.494  -4.840  0.00  0.00    +0.280 A 
ATOM      4  O   UNL     1       3.801  -2.033  -4.601  0.00  0.00    -0.265 OA
ATOM      5  C   UNL     1       2.324  -1.282  -6.176  0.00  0.00    +0.069 A 
ATOM      6  C   UNL     1       1.124  -0.686  -6.410  0.00  0.00    +0.111 A 
ATOM      7  N   UNL     1       0.344  -0.308  -5.349  0.00  0.00    -0.322 N 
ATOM      8  N   UNL     1       0.697  -0.474  -7.700  0.00  0.00    -0.304 N 
ATOM      9  C   UNL     1       1.247  -1.170  -8.742  0.00  0.00    +0.017 C 
ATOM     10  C   UNL     1       2.442  -1.782  -8.605  0.00  0.00    +0.024 C 
ATOM     11  C   UNL     1       3.210  -1.705  -7.310  0.00  0.00    +0.092 C 
ATOM     12  C   UNL     1       3.008  -2.512  -9.665  0.00  0.00    +0.162 C 
ATOM     13  O   UNL     1       4.089  -3.046  -9.512  0.00  0.00    -0.292 OA
ATOM     14  C   UNL     1       2.301  -2.644 -10.986  0.00  0.00    +0.080 C 
ATOM     15  C   UNL     1       0.789  -2.552 -10.755  0.00  0.00    +0.014 C 
ATOM     16  C   UNL     1       0.487  -1.231 -10.044  0.00  0.00    +0.051 C 
ATOM     17  H   UNL     1      -0.002   0.176  -7.873  0.00  0.00    +0.153 HD
ATOM     18  H   UNL     1      -0.515   0.115  -5.506  0.00  0.00    +0.169 HD
ENDROOT
BRANCH  11  19
ATOM     19  C   UNL     1       4.330  -0.709  -7.460  0.00  0.00    -0.035 A 
ATOM     20  C   UNL     1       4.045   0.618  -7.723  0.00  0.00    +0.007 A 
ATOM     21  C   UNL     1       5.073   1.532  -7.860  0.00  0.00    +0.033 A 
ATOM     22  C   UNL     1       6.386   1.120  -7.734  0.00  0.00    +0.126 A 
ATOM     23  C   UNL     1       6.671  -0.207  -7.469  0.00  0.00    +0.033 A 
ATOM     24  C   UNL     1       5.644  -1.120  -7.328  0.00  0.00    +0.007 A 
BRANCH  22  25
ATOM     25  N   UNL     1       7.487   2.099  -7.881  0.00  0.00    +0.056 N 
ATOM     26  O   UNL     1       7.237   3.259  -8.113  0.00  0.00    -0.126 OA
ATOM     27  O   UNL     1       8.635   1.738  -7.771  0.00  0.00    -0.126 OA
ENDBRANCH  22  25
ENDBRANCH  11  19
BRANCH   1  28
ATOM     28  S   UNL     1      -0.239  -0.022  -2.723  0.00  0.00    -0.085 S 
BRANCH  28  29
ATOM     29  C   UNL     1       0.718  -0.497  -1.257  0.00  0.00    +0.051 C 
ATOM     30  C   UNL     1       0.849  -2.021  -1.205  0.00  0.00    +0.019 C 
BRANCH  29  32
ATOM     31  C   UNL     1      -0.019   1.526   0.010  0.00  0.00    +0.005 C 
ATOM     32  C   UNL     1       0.002  -0.004   0.002  0.00  0.00    +0.011 C 
ENDBRANCH  29  32
ENDBRANCH  28  29
ENDBRANCH   1  28
TORSDOF 5
