REMARK  Name = ZINC04809817
REMARK  4 active torsions:
REMARK  status: ('A' for Active; 'I' for Inactive)
REMARK    1  A    between atoms: C_1  and  O_2
REMARK    2  A    between atoms: O_2  and  C_3
REMARK    3  A    between atoms: C_3  and  C_4
REMARK    4  A    between atoms: C_10  and  C_18
REMARK                            x       y       z     vdW  Elec       q    Type
REMARK                         _______ _______ _______ _____ _____    ______ ____
ROOT
ATOM      1  C   UNL     1      -1.156  -2.103   0.002  0.00  0.00    +0.134 A 
ATOM      2  N   UNL     1       0.018  -2.788  -0.008  0.00  0.00    -0.337 N 
ATOM      3  H   UNL     1       0.909  -2.405  -0.010  0.00  0.00    +0.167 HD
ATOM      4  C   UNL     1      -0.298  -4.130  -0.013  0.00  0.00    +0.108 A 
ATOM      5  C   UNL     1      -1.659  -4.203  -0.007  0.00  0.00    +0.084 A 
ATOM      6  N   UNL     1      -2.144  -2.958   0.007  0.00  0.00    -0.233 NA
ATOM      7  C   UNL     1      -2.024  -5.668  -0.013  0.00  0.00    +0.122 C 
ATOM      8  C   UNL     1      -0.710  -6.410  -0.023  0.00  0.00    +0.104 A 
ATOM      9  C   UNL     1       0.279  -5.481  -0.024  0.00  0.00    +0.179 A 
ATOM     10  O   UNL     1       1.453  -6.162  -0.033  0.00  0.00    -0.423 OA
ATOM     11  C   UNL     1       1.165  -7.474  -0.039  0.00  0.00    +0.286 A 
ATOM     12  N   UNL     1      -0.139  -7.623  -0.032  0.00  0.00    -0.199 NA
ATOM     13  N   UNL     1       2.090  -8.498  -0.050  0.00  0.00    -0.313 N 
ATOM     14  H   UNL     1       3.039  -8.295  -0.053  0.00  0.00    +0.147 HD
ATOM     15  H   UNL     1       1.792  -9.421  -0.053  0.00  0.00    +0.147 HD
ENDROOT
BRANCH   7  16
ATOM     16  C   UNL     1      -2.811  -6.014   1.225  0.00  0.00    -0.032 A 
ATOM     17  C   UNL     1      -2.253  -5.821   2.475  0.00  0.00    +0.006 A 
ATOM     18  C   UNL     1      -2.974  -6.138   3.611  0.00  0.00    +0.020 A 
ATOM     19  C   UNL     1      -4.255  -6.649   3.496  0.00  0.00    +0.041 A 
ATOM     20  C   UNL     1      -4.813  -6.842   2.245  0.00  0.00    +0.020 A 
ATOM     21  C   UNL     1      -4.093  -6.519   1.110  0.00  0.00    +0.006 A 
ATOM     22 CL   UNL     1      -5.162  -7.048   4.922  0.00  0.00    -0.084 Cl
ENDBRANCH   7  16
BRANCH   1  23
ATOM     23  C   UNL     1      -1.295  -0.603   0.011  0.00  0.00    +0.233 C 
BRANCH  23  25
ATOM     24  C   UNL     1      -0.017   1.425   0.010  0.00  0.00    +0.194 C 
ATOM     25  O   UNL     1       0.002  -0.004   0.002  0.00  0.00    -0.375 OA
ENDBRANCH  23  25
ENDBRANCH   1  23
TORSDOF 3
