REMARK  Name = ZINC66719487
REMARK  12 active torsions:
REMARK  status: ('A' for Active; 'I' for Inactive)
REMARK    1  A    between atoms: C_1  and  C_2
REMARK    2  A    between atoms: C_4  and  N_14
REMARK    3  A    between atoms: C_7  and  C_8
REMARK    4  A    between atoms: N_10  and  C_11
REMARK    5  A    between atoms: C_11  and  C_12
REMARK    6  A    between atoms: C_11  and  C_13
REMARK    7  A    between atoms: C_15  and  C_17
REMARK    8  A    between atoms: N_19  and  C_20
REMARK    9  A    between atoms: C_20  and  C_21
REMARK   10  A    between atoms: C_21  and  C_22
REMARK   11  A    between atoms: C_21  and  C_23
REMARK   12  A    between atoms: C_21  and  C_24
REMARK                            x       y       z     vdW  Elec       q    Type
REMARK                         _______ _______ _______ _____ _____    ______ ____
ROOT
ATOM      1  N   UNL     1      -0.183  -2.769  -2.404  0.00  0.00    -0.278 N 
ATOM      2  C   UNL     1       0.307  -2.361  -3.591  0.00  0.00    +0.303 C 
ATOM      3  O   UNL     1       0.830  -1.270  -3.690  0.00  0.00    -0.265 OA
ATOM      4  H   UNL     1      -0.665  -3.608  -2.340  0.00  0.00    +0.155 HD
ENDROOT
BRANCH   1   8
ATOM      5  C   UNL     1       0.141   1.683  -0.362  0.00  0.00    +0.044 C 
ATOM      6  C   UNL     1       0.164   0.181  -0.249  0.00  0.00    -0.037 A 
ATOM      7  C   UNL     1      -0.019  -0.597  -1.371  0.00  0.00    +0.027 A 
ATOM      8  C   UNL     1       0.002  -1.985  -1.268  0.00  0.00    +0.034 A 
ATOM      9  C   UNL     1       0.208  -2.591  -0.032  0.00  0.00    +0.024 A 
ATOM     10  C   UNL     1       0.391  -1.819   1.093  0.00  0.00    +0.015 A 
ATOM     11  C   UNL     1       0.377  -0.424   0.992  0.00  0.00    +0.040 A 
BRANCH  11  12
ATOM     12  C   UNL     1       0.579   0.406   2.195  0.00  0.00    +0.245 C 
ATOM     13  O   UNL     1       0.499   1.617   2.118  0.00  0.00    -0.270 OA
ATOM     14  N   UNL     1       0.852  -0.177   3.379  0.00  0.00    -0.309 N 
ATOM     15  H   UNL     1       0.916  -1.143   3.440  0.00  0.00    +0.149 HD
BRANCH  14  16
ATOM     16  C   UNL     1       1.053   0.648   4.573  0.00  0.00    +0.067 C 
ATOM     17  C   UNL     1      -0.303   0.964   5.208  0.00  0.00    +0.027 C 
ATOM     18  C   UNL     1       1.922  -0.112   5.577  0.00  0.00    +0.027 C 
ENDBRANCH  14  16
ENDBRANCH  11  12
ENDBRANCH   1   8
BRANCH   2  19
ATOM     19  C   UNL     1       0.206  -3.252  -4.786  0.00  0.00    +0.299 C 
ATOM     20  O   UNL     1      -0.317  -4.342  -4.688  0.00  0.00    -0.265 OA
ATOM     21  N   UNL     1       0.696  -2.844  -5.974  0.00  0.00    -0.307 N 
ATOM     22  H   UNL     1       1.114  -1.972  -6.052  0.00  0.00    +0.149 HD
BRANCH  21  23
ATOM     23  C   UNL     1       0.597  -3.717  -7.146  0.00  0.00    +0.120 C 
BRANCH  23  24
ATOM     24  C   UNL     1       1.224  -3.021  -8.355  0.00  0.00    +0.057 C 
ATOM     25  C   UNL     1       0.483  -1.712  -8.631  0.00  0.00    +0.022 C 
ATOM     26  C   UNL     1       2.697  -2.722  -8.064  0.00  0.00    +0.022 C 
BRANCH  24  27
ATOM     27  C   UNL     1       1.123  -3.920  -9.560  0.00  0.00    +0.218 C 
ATOM     28  O   UNL     1       0.600  -5.010  -9.462  0.00  0.00    -0.275 OA
ATOM     29  N   UNL     1       1.613  -3.512 -10.748  0.00  0.00    -0.329 N 
ATOM     30  H   UNL     1       2.031  -2.640 -10.827  0.00  0.00    +0.145 HD
ATOM     31  H   UNL     1       1.548  -4.090 -11.524  0.00  0.00    +0.145 HD
ENDBRANCH  24  27
ENDBRANCH  23  24
ENDBRANCH  21  23
ENDBRANCH   2  19
TORSDOF 7
