REMARK  Name = ZINC28787444
REMARK  12 active torsions:
REMARK  status: ('A' for Active; 'I' for Inactive)
REMARK    1  A    between atoms: C_1  and  C_2
REMARK    2  A    between atoms: C_7  and  C_8
REMARK    3  A    between atoms: N_10  and  C_11
REMARK    4  A    between atoms: C_11  and  C_13
REMARK    5  A    between atoms: C_11  and  C_16
REMARK    6  A    between atoms: C_13  and  C_14
REMARK    7  A    between atoms: C_13  and  C_15
REMARK    8  A    between atoms: N_18  and  N_19
REMARK    9  A    between atoms: C_20  and  C_22
REMARK   10  A    between atoms: C_22  and  O_23
REMARK   11  A    between atoms: O_23  and  C_24
REMARK   12  A    between atoms: C_29  and  C_30
REMARK                            x       y       z     vdW  Elec       q    Type
REMARK                         _______ _______ _______ _____ _____    ______ ____
ROOT
ATOM      1  C   UNL     1      -1.216   2.739  -1.065  0.00  0.00    +0.250 C 
ATOM      2  O   UNL     1      -2.232   2.287  -1.551  0.00  0.00    -0.272 OA
ATOM      3  N   UNL     1      -0.126   1.957  -0.937  0.00  0.00    -0.233 N 
ATOM      4  H   UNL     1       0.820   2.388  -0.574  0.00  0.00    +0.173 HD
ENDROOT
BRANCH   3   5
ATOM      5  N   UNL     1      -0.195   0.597  -1.266  0.00  0.00    -0.232 N 
ATOM      6  C   UNL     1       0.897  -0.183  -1.143  0.00  0.00    +0.267 C 
ATOM      7  O   UNL     1       1.940   0.292  -0.748  0.00  0.00    -0.271 OA
ATOM      8  H   UNL     1      -1.142   0.166  -1.625  0.00  0.00    +0.173 HD
BRANCH   6   9
ATOM      9  C   UNL     1       0.822  -1.646  -1.497  0.00  0.00    +0.326 C 
BRANCH   9  10
ATOM     10  O   UNL     1       2.097  -2.253  -1.284  0.00  0.00    -0.481 OA
BRANCH  10  11
ATOM     11  C   UNL     1       2.201  -3.579  -1.557  0.00  0.00    +0.138 A 
ATOM     12  C   UNL     1       1.099  -4.284  -2.015  0.00  0.00    +0.047 A 
ATOM     13  C   UNL     1       1.208  -5.632  -2.298  0.00  0.00    +0.004 A 
ATOM     14  C   UNL     1       2.413  -6.290  -2.117  0.00  0.00    +0.001 A 
ATOM     15  C   UNL     1       3.517  -5.606  -1.657  0.00  0.00    +0.022 A 
ATOM     16  C   UNL     1       3.422  -4.242  -1.372  0.00  0.00    +0.093 A 
BRANCH  16  17
ATOM     17  C   UNL     1       4.566  -3.525  -0.893  0.00  0.00    +0.103 C 
ATOM     18  N   UNL     1       5.473  -2.956  -0.513  0.00  0.00    -0.191 NA
ENDBRANCH  16  17
ENDBRANCH  10  11
ENDBRANCH   9  10
ENDBRANCH   6   9
ENDBRANCH   3   5
BRANCH   1  19
ATOM     19  C   UNL     1      -1.174   4.173  -0.606  0.00  0.00    +0.163 C 
BRANCH  19  22
ATOM     20  C   UNL     1      -2.695   5.617   0.635  0.00  0.00    +0.245 C 
ATOM     21  O   UNL     1      -1.728   6.162   1.129  0.00  0.00    -0.270 OA
ATOM     22  N   UNL     1      -2.525   4.611  -0.245  0.00  0.00    -0.300 N 
ATOM     23  H   UNL     1      -3.400   4.117  -0.693  0.00  0.00    +0.150 HD
BRANCH  20  30
ATOM     24  C   UNL     1      -3.050   7.607   2.705  0.00  0.00    +0.044 C 
ATOM     25  C   UNL     1      -4.242   7.018   1.995  0.00  0.00    -0.038 A 
ATOM     26  C   UNL     1      -5.517   7.426   2.330  0.00  0.00    +0.004 A 
ATOM     27  C   UNL     1      -6.612   6.886   1.679  0.00  0.00    +0.000 A 
ATOM     28  C   UNL     1      -6.437   5.935   0.689  0.00  0.00    +0.001 A 
ATOM     29  C   UNL     1      -5.167   5.522   0.342  0.00  0.00    +0.013 A 
ATOM     30  C   UNL     1      -4.058   6.059   0.999  0.00  0.00    +0.040 A 
ENDBRANCH  20  30
ENDBRANCH  19  22
BRANCH  19  31
ATOM     31  C   UNL     1      -0.636   5.055  -1.734  0.00  0.00    +0.012 C 
ATOM     32  C   UNL     1       0.793   4.631  -2.076  0.00  0.00    +0.009 C 
ATOM     33  C   UNL     1      -1.524   4.899  -2.971  0.00  0.00    +0.009 C 
ENDBRANCH  19  31
ENDBRANCH   1  19
TORSDOF 9
