REMARK  Name = ZINC16037772
REMARK  4 active torsions:
REMARK  status: ('A' for Active; 'I' for Inactive)
REMARK    1  A    between atoms: C_4  and  N_11
REMARK    2  A    between atoms: C_5  and  C_7
REMARK    3  A    between atoms: C_22  and  C_23
REMARK    4  A    between atoms: C_26  and  N_29
REMARK                            x       y       z     vdW  Elec       q    Type
REMARK                         _______ _______ _______ _____ _____    ______ ____
ROOT
ATOM      1  N   UNL     1       3.623  -0.652  -0.037  0.00  0.00    -0.203 N 
ATOM      2  C   UNL     1       4.265  -1.004  -1.165  0.00  0.00    +0.258 C 
ATOM      3  O   UNL     1       3.941  -0.656  -2.287  0.00  0.00    -0.269 OA
ATOM      4  C   UNL     1       5.356  -1.823  -0.869  0.00  0.00    +0.081 C 
ATOM      5  H   UNL     1       7.667  -3.759   0.066  0.00  0.00    +0.194 HD
ATOM      6  C   UNL     1       5.617  -1.539   0.617  0.00  0.00    +0.272 C 
ATOM      7  C   UNL     1       4.289  -1.023   1.080  0.00  0.00    +0.263 C 
ATOM      8  O   UNL     1       3.891  -0.954   2.223  0.00  0.00    -0.271 OA
ATOM      9  O   UNL     1       5.971  -2.855   1.067  0.00  0.00    -0.256 OA
ATOM     10  N   UNL     1       6.840  -3.257  -0.012  0.00  0.00    -0.264 N 
ATOM     11  C   UNL     1       6.263  -2.785  -1.182  0.00  0.00    +0.080 C 
ENDROOT
BRANCH   1  15
ATOM     12  C   UNL     1      -0.017   1.378   0.010  0.00  0.00    +0.001 A 
ATOM     13  C   UNL     1       1.170   2.089   0.002  0.00  0.00    +0.002 A 
ATOM     14  C   UNL     1       2.377   1.419  -0.013  0.00  0.00    +0.024 A 
ATOM     15  C   UNL     1       2.400   0.031  -0.021  0.00  0.00    +0.056 A 
ATOM     16  C   UNL     1       1.207  -0.680  -0.013  0.00  0.00    +0.077 A 
ATOM     17  C   UNL     1       0.002  -0.004   0.002  0.00  0.00    +0.014 A 
BRANCH  16  18
ATOM     18  C   UNL     1       1.226  -2.187  -0.022  0.00  0.00    +0.419 C 
ATOM     19  F   UNL     1      -0.086  -2.670  -0.011  0.00  0.00    -0.166 F 
ATOM     20  F   UNL     1       1.880  -2.638  -1.173  0.00  0.00    -0.166 F 
ATOM     21  F   UNL     1       1.903  -2.651   1.111  0.00  0.00    -0.166 F 
ENDBRANCH  16  18
ENDBRANCH   1  15
BRANCH  11  22
ATOM     22  C   UNL     1       6.583  -3.252  -2.546  0.00  0.00    +0.001 A 
ATOM     23  C   UNL     1       5.935  -2.693  -3.650  0.00  0.00    +0.012 A 
ATOM     24  C   UNL     1       6.239  -3.134  -4.921  0.00  0.00    +0.033 A 
ATOM     25  C   UNL     1       7.183  -4.129  -5.104  0.00  0.00    +0.126 A 
ATOM     26  C   UNL     1       7.829  -4.688  -4.015  0.00  0.00    +0.033 A 
ATOM     27  C   UNL     1       7.539  -4.252  -2.739  0.00  0.00    +0.012 A 
BRANCH  25  28
ATOM     28  N   UNL     1       7.503  -4.598  -6.471  0.00  0.00    +0.056 N 
ATOM     29  O   UNL     1       6.940  -4.112  -7.424  0.00  0.00    -0.126 OA
ATOM     30  O   UNL     1       8.327  -5.467  -6.635  0.00  0.00    -0.126 OA
ENDBRANCH  25  28
ENDBRANCH  11  22
TORSDOF 4
