REMARK  Name = ZINC08147949
REMARK  12 active torsions:
REMARK  status: ('A' for Active; 'I' for Inactive)
REMARK    1  A    between atoms: C_1  and  C_2
REMARK    2  A    between atoms: C_2  and  C_3
REMARK    3  A    between atoms: C_3  and  C_20
REMARK    4  A    between atoms: N_6  and  C_10
REMARK    5  A    between atoms: C_10  and  N_54
REMARK    6  A    between atoms: C_11  and  N_54
REMARK    7  A    between atoms: C_12  and  C_13
REMARK    8  A    between atoms: C_12  and  N_54
REMARK    9  A    between atoms: N_15  and  C_16
REMARK   10  A    between atoms: C_16  and  C_17
REMARK   11  A    between atoms: C_16  and  C_18
REMARK   12  A    between atoms: C_16  and  C_19
REMARK                            x       y       z     vdW  Elec       q    Type
REMARK                         _______ _______ _______ _____ _____    ______ ____
ROOT
ATOM      1  C   UNL     1       6.958   2.474  -4.784  0.00  0.00    +0.138 C 
ATOM      2  C   UNL     1       5.596   1.808  -4.793  0.00  0.00    +0.249 C 
ATOM      3  O   UNL     1       4.566   2.255  -5.250  0.00  0.00    -0.272 OA
ATOM      4  N   UNL     1       5.769   0.618  -4.185  0.00  0.00    -0.241 N 
ATOM      5  C   UNL     1       7.038   0.437  -3.804  0.00  0.00    +0.308 C 
ATOM      6  O   UNL     1       7.439  -0.561  -3.239  0.00  0.00    -0.252 OA
ATOM      7  N   UNL     1       7.822   1.485  -4.116  0.00  0.00    -0.281 N 
ATOM      8  H   UNL     1       8.771   1.573  -3.935  0.00  0.00    +0.152 HD
ENDROOT
BRANCH   1   9
ATOM      9  C   UNL     1       7.431   2.725  -6.192  0.00  0.00    -0.015 A 
ATOM     10  C   UNL     1       7.210   3.953  -6.787  0.00  0.00    +0.006 A 
ATOM     11  C   UNL     1       7.648   4.185  -8.078  0.00  0.00    +0.000 A 
ATOM     12  C   UNL     1       8.296   3.185  -8.777  0.00  0.00    +0.000 A 
ATOM     13  C   UNL     1       8.512   1.955  -8.185  0.00  0.00    +0.000 A 
ATOM     14  C   UNL     1       8.079   1.725  -6.893  0.00  0.00    +0.006 A 
ENDBRANCH   1   9
BRANCH   1  16
ATOM     15  C   UNL     1       6.508   3.489  -2.545  0.00  0.00    +0.007 C 
ATOM     16  C   UNL     1       6.921   3.781  -3.989  0.00  0.00    +0.037 C 
ENDBRANCH   1  16
BRANCH   4  17
ATOM     17  C   UNL     1       4.699  -0.361  -3.974  0.00  0.00    +0.043 C 
BRANCH  17  19
ATOM     18  C   UNL     1       4.839  -0.691  -1.579  0.00  0.00    -0.093 C 
ATOM     19  N   UNL     1       4.054  -0.081  -2.673  0.00  0.00    +0.394 N 
ATOM     20  H   UNL     1       4.016   0.935  -2.531  0.00  0.00    -0.079 HD
BRANCH  19  21
ATOM     21  C   UNL     1       2.677  -0.618  -2.667  0.00  0.00    +0.020 C 
BRANCH  21  22
ATOM     22  C   UNL     1       1.972  -0.132  -1.427  0.00  0.00    +0.197 C 
ATOM     23  O   UNL     1       2.559   0.569  -0.630  0.00  0.00    -0.278 OA
ATOM     24  N   UNL     1       0.688  -0.476  -1.203  0.00  0.00    -0.312 N 
ATOM     25  H   UNL     1       0.218  -1.037  -1.840  0.00  0.00    +0.149 HD
BRANCH  24  26
ATOM     26  C   UNL     1       0.002  -0.004   0.002  0.00  0.00    +0.026 C 
ATOM     27  C   UNL     1      -0.019   1.526   0.010  0.00  0.00    +0.031 C 
ATOM     28  C   UNL     1       0.742  -0.511   1.242  0.00  0.00    +0.031 C 
ATOM     29  C   UNL     1      -1.433  -0.534   0.013  0.00  0.00    +0.031 C 
ENDBRANCH  24  26
ENDBRANCH  21  22
ENDBRANCH  19  21
ENDBRANCH  17  19
ENDBRANCH   4  17
TORSDOF 7
