REMARK  Name = ZINC16045938
REMARK  10 active torsions:
REMARK  status: ('A' for Active; 'I' for Inactive)
REMARK    1  A    between atoms: C_1  and  C_2
REMARK    2  A    between atoms: C_2  and  C_3
REMARK    3  A    between atoms: C_3  and  N_4
REMARK    4  A    between atoms: C_5  and  N_25
REMARK    5  A    between atoms: C_6  and  C_13
REMARK    6  A    between atoms: N_9  and  C_12
REMARK    7  A    between atoms: C_13  and  C_15
REMARK    8  A    between atoms: C_15  and  S_16
REMARK    9  A    between atoms: S_16  and  C_17
REMARK   10  A    between atoms: C_19  and  N_24
REMARK                            x       y       z     vdW  Elec       q    Type
REMARK                         _______ _______ _______ _____ _____    ______ ____
ROOT
ATOM      1  N   UNL     1       0.646  -1.969  -1.331  0.00  0.00    -0.281 N 
ATOM      2  C   UNL     1       1.737  -2.525  -0.726  0.00  0.00    +0.116 A 
ATOM      3  C   UNL     1       1.842  -3.925  -0.670  0.00  0.00    +0.120 A 
ATOM      4  C   UNL     1       0.763  -4.720  -1.270  0.00  0.00    +0.269 A 
ATOM      5  O   UNL     1       0.802  -5.936  -1.250  0.00  0.00    -0.267 OA
ATOM      6  N   UNL     1      -0.273  -4.074  -1.844  0.00  0.00    -0.263 N 
ATOM      7  C   UNL     1      -0.322  -2.732  -1.864  0.00  0.00    +0.333 A 
ATOM      8  O   UNL     1      -1.274  -2.188  -2.387  0.00  0.00    -0.246 OA
ATOM      9  C   UNL     1      -1.361  -4.845  -2.450  0.00  0.00    +0.157 C 
ENDROOT
BRANCH   2  10
ATOM     10  N   UNL     1       2.706  -1.736  -0.188  0.00  0.00    -0.344 N 
ATOM     11  H   UNL     1       2.666  -0.773  -0.300  0.00  0.00    +0.144 HD
ATOM     12  H   UNL     1       3.437  -2.136   0.309  0.00  0.00    +0.144 HD
ENDBRANCH   2  10
BRANCH   3  13
ATOM     13  C   UNL     1       2.950  -4.548  -0.056  0.00  0.00    +0.182 C 
ATOM     14  O   UNL     1       3.778  -3.877   0.527  0.00  0.00    -0.291 OA
BRANCH  13  15
ATOM     15  C   UNL     1       3.106  -6.045  -0.123  0.00  0.00    +0.157 C 
BRANCH  15  16
ATOM     16  S   UNL     1       4.616  -6.536   0.753  0.00  0.00    -0.080 S 
BRANCH  16  17
ATOM     17  C   UNL     1       4.655  -8.290   0.586  0.00  0.00    +0.171 A 
ATOM     18  N   UNL     1       3.693  -8.896  -0.079  0.00  0.00    -0.209 NA
ATOM     19  C   UNL     1       3.686 -10.226  -0.228  0.00  0.00    +0.124 A 
ATOM     20  C   UNL     1       4.708 -10.986   0.324  0.00  0.00    +0.113 A 
ATOM     21  C   UNL     1       5.726 -10.335   1.028  0.00  0.00    +0.254 A 
ATOM     22  N   UNL     1       5.683  -8.991   1.142  0.00  0.00    -0.302 N 
ATOM     23  O   UNL     1       6.640 -10.971   1.528  0.00  0.00    -0.268 OA
ATOM     24  H   UNL     1       6.383  -8.523   1.623  0.00  0.00    +0.171 HD
BRANCH  19  25
ATOM     25  N   UNL     1       2.667 -10.839  -0.928  0.00  0.00    -0.343 N 
ATOM     26  H   UNL     1       1.954 -10.306  -1.313  0.00  0.00    +0.144 HD
ATOM     27  H   UNL     1       2.664 -11.803  -1.036  0.00  0.00    +0.144 HD
ENDBRANCH  19  25
ENDBRANCH  16  17
ENDBRANCH  15  16
ENDBRANCH  13  15
ENDBRANCH   3  13
BRANCH   1  28
ATOM     28  C   UNL     1       0.526  -0.510  -1.395  0.00  0.00    +0.128 C 
BRANCH  28  30
ATOM     29  C   UNL     1      -0.335   1.520  -0.220  0.00  0.00    +0.005 C 
ATOM     30  C   UNL     1      -0.210  -0.004  -0.153  0.00  0.00    +0.018 C 
ENDBRANCH  28  30
ENDBRANCH   1  28
TORSDOF 8
