REMARK  Name = ZINC64070174
REMARK  5 active torsions:
REMARK  status: ('A' for Active; 'I' for Inactive)
REMARK    1  A    between atoms: C_1  and  C_2
REMARK    2  A    between atoms: C_5  and  C_20
REMARK    3  A    between atoms: N_9  and  C_11
REMARK    4  A    between atoms: C_11  and  C_12
REMARK    5  A    between atoms: N_22  and  C_23
REMARK                            x       y       z     vdW  Elec       q    Type
REMARK                         _______ _______ _______ _____ _____    ______ ____
ROOT
ATOM      1  C   UNL     1       0.369   1.649   0.325  0.00  0.00    +0.062 C 
ATOM      2  C   UNL     1       0.257   0.149   0.241  0.00  0.00    +0.021 C 
ATOM      3  C   UNL     1      -0.909  -0.532   0.258  0.00  0.00    +0.000 C 
ATOM      4  C   UNL     1      -2.295  -0.451   0.089  0.00  0.00    +0.027 C 
ATOM      5  C   UNL     1      -2.975  -1.501  -0.470  0.00  0.00    +0.076 C 
ATOM      6  S   UNL     1      -1.716  -2.754  -0.706  0.00  0.00    -0.094 S 
ATOM      7  C   UNL     1      -0.461  -2.000   0.400  0.00  0.00    +0.170 C 
ATOM      8  N   UNL     1       0.876  -1.966  -0.202  0.00  0.00    -0.207 NA
ATOM      9  N   UNL     1       1.327  -0.706   0.129  0.00  0.00    -0.280 N 
ATOM     10  H   UNL     1       2.256  -0.461   0.265  0.00  0.00    +0.166 HD
ENDROOT
BRANCH   5  11
ATOM     11  C   UNL     1      -4.353  -1.578  -0.788  0.00  0.00    +0.287 C 
ATOM     12  O   UNL     1      -5.165  -0.525  -0.538  0.00  0.00    -0.265 OA
ATOM     13  N   UNL     1      -4.845  -2.678  -1.329  0.00  0.00    -0.171 NA
BRANCH  13  14
ATOM     14  C   UNL     1      -6.159  -2.752  -1.632  0.00  0.00    +0.249 A 
ATOM     15  N   UNL     1      -6.800  -3.820  -2.184  0.00  0.00    -0.243 N 
ATOM     16  N   UNL     1      -8.146  -3.442  -2.316  0.00  0.00    -0.159 NA
ATOM     17  C   UNL     1      -8.252  -2.223  -1.860  0.00  0.00    +0.247 A 
ATOM     18  N   UNL     1      -7.061  -1.802  -1.441  0.00  0.00    -0.198 NA
ATOM     19  H   UNL     1      -6.405  -4.669  -2.436  0.00  0.00    +0.192 HD
ENDBRANCH  13  14
ENDBRANCH   5  11
BRANCH   8  20
ATOM     20  C   UNL     1       1.739  -3.006   0.373  0.00  0.00    +0.143 C 
BRANCH  20  21
ATOM     21  C   UNL     1       3.053  -3.033  -0.364  0.00  0.00    -0.013 A 
ATOM     22  C   UNL     1       4.180  -2.478   0.212  0.00  0.00    +0.008 A 
ATOM     23  C   UNL     1       5.386  -2.503  -0.463  0.00  0.00    +0.020 A 
ATOM     24  C   UNL     1       5.465  -3.083  -1.717  0.00  0.00    +0.042 A 
ATOM     25  C   UNL     1       4.337  -3.639  -2.294  0.00  0.00    +0.040 A 
ATOM     26  C   UNL     1       3.132  -3.618  -1.615  0.00  0.00    +0.047 A 
ATOM     27 CL   UNL     1       1.718  -4.321  -2.336  0.00  0.00    -0.083 Cl
ATOM     28 CL   UNL     1       6.979  -3.113  -2.565  0.00  0.00    -0.083 Cl
ENDBRANCH  20  21
ENDBRANCH   8  20
TORSDOF 4
