REMARK  Name = ZINC35703239
REMARK  16 active torsions:
REMARK  status: ('A' for Active; 'I' for Inactive)
REMARK    1  A    between atoms: C_1  and  C_2
REMARK    2  A    between atoms: C_9  and  C_20
REMARK    3  A    between atoms: C_10  and  N_11
REMARK    4  A    between atoms: N_11  and  C_12
REMARK    5  A    between atoms: C_12  and  C_13
REMARK    6  A    between atoms: C_12  and  C_14
REMARK    7  A    between atoms: C_12  and  C_15
REMARK    8  A    between atoms: C_15  and  C_16
REMARK    9  A    between atoms: C_16  and  C_17
REMARK   10  A    between atoms: C_16  and  C_18
REMARK   11  A    between atoms: C_16  and  C_19
REMARK   12  A    between atoms: C_23  and  O_28
REMARK   13  A    between atoms: C_24  and  O_26
REMARK   14  A    between atoms: O_26  and  C_27
REMARK   15  A    between atoms: O_28  and  C_29
REMARK   16  A    between atoms: C_29  and  C_31
REMARK                            x       y       z     vdW  Elec       q    Type
REMARK                         _______ _______ _______ _____ _____    ______ ____
ROOT
ATOM      1  C   UNL     1      -0.937   1.309  -4.484  0.00  0.00    +0.044 C 
ATOM      2  C   UNL     1      -0.641   0.015  -3.771  0.00  0.00    -0.046 A 
ATOM      3  C   UNL     1      -1.161  -1.196  -4.262  0.00  0.00    +0.021 A 
ATOM      4  C   UNL     1      -0.900  -2.357  -3.628  0.00  0.00    +0.094 A 
ATOM      5  N   UNL     1      -0.126  -2.375  -2.498  0.00  0.00    -0.289 N 
ATOM      6  C   UNL     1       0.397  -1.206  -1.995  0.00  0.00    +0.117 A 
ATOM      7  C   UNL     1       0.134   0.014  -2.654  0.00  0.00    +0.048 A 
ATOM      8  N   UNL     1       1.099  -1.491  -0.911  0.00  0.00    -0.338 N 
ATOM      9  C   UNL     1       1.052  -2.817  -0.688  0.00  0.00    +0.087 A 
ATOM     10  C   UNL     1       0.284  -3.390  -1.679  0.00  0.00    +0.129 A 
ATOM     11  H   UNL     1       1.574  -0.847  -0.363  0.00  0.00    +0.167 HD
ENDROOT
BRANCH   9  12
ATOM     12  C   UNL     1       1.712  -3.537   0.427  0.00  0.00    +0.005 A 
ATOM     13  C   UNL     1       2.382  -4.736   0.186  0.00  0.00    +0.014 A 
ATOM     14  C   UNL     1       2.995  -5.405   1.225  0.00  0.00    +0.051 A 
ATOM     15  C   UNL     1       2.947  -4.888   2.511  0.00  0.00    +0.173 A 
ATOM     16  C   UNL     1       2.280  -3.691   2.758  0.00  0.00    +0.163 A 
ATOM     17  C   UNL     1       1.668  -3.013   1.719  0.00  0.00    +0.059 A 
BRANCH  16  18
ATOM     18  O   UNL     1       2.235  -3.186   4.020  0.00  0.00    -0.491 OA
ATOM     19  C   UNL     1       1.533  -1.954   4.200  0.00  0.00    +0.277 C 
ENDBRANCH  16  18
BRANCH  15  20
ATOM     20  O   UNL     1       3.553  -5.552   3.532  0.00  0.00    -0.419 OA
BRANCH  20  21
ATOM     21  C   UNL     1       2.825  -6.452   4.221  0.00  0.00    +0.347 C 
ATOM     22  O   UNL     1       1.694  -6.718   3.866  0.00  0.00    -0.244 OA
BRANCH  21  23
ATOM     23  C   UNL     1       3.402  -7.116   5.405  0.00  0.00    +0.094 A 
ATOM     24  C   UNL     1       4.700  -6.809   5.820  0.00  0.00    +0.018 A 
ATOM     25  C   UNL     1       5.233  -7.432   6.928  0.00  0.00    +0.001 A 
ATOM     26  C   UNL     1       4.486  -8.362   7.631  0.00  0.00    +0.003 A 
ATOM     27  C   UNL     1       3.200  -8.673   7.229  0.00  0.00    +0.039 A 
ATOM     28  C   UNL     1       2.650  -8.052   6.123  0.00  0.00    +0.137 A 
ATOM     29  F   UNL     1       1.391  -8.352   5.734  0.00  0.00    -0.205 F 
ENDBRANCH  21  23
ENDBRANCH  20  21
ENDBRANCH  15  20
ENDBRANCH   9  12
BRANCH  10  30
ATOM     30  N   UNL     1      -0.018  -4.745  -1.820  0.00  0.00    -0.323 N 
ATOM     31  H   UNL     1       0.208  -5.369  -1.112  0.00  0.00    +0.148 HD
BRANCH  30  32
ATOM     32  C   UNL     1      -0.675  -5.227  -3.037  0.00  0.00    +0.028 C 
ATOM     33  C   UNL     1      -2.090  -4.651  -3.115  0.00  0.00    +0.031 C 
ATOM     34  C   UNL     1       0.126  -4.778  -4.261  0.00  0.00    +0.031 C 
BRANCH  32  35
ATOM     35  C   UNL     1      -0.747  -6.755  -3.008  0.00  0.00    +0.031 C 
BRANCH  35  36
ATOM     36  C   UNL     1       0.546  -7.315  -2.412  0.00  0.00    -0.036 C 
ATOM     37  C   UNL     1       0.367  -7.524  -0.907  0.00  0.00    +0.010 C 
ATOM     38  C   UNL     1       0.876  -8.653  -3.077  0.00  0.00    +0.010 C 
ATOM     39  C   UNL     1       1.690  -6.329  -2.658  0.00  0.00    +0.010 C 
ENDBRANCH  35  36
ENDBRANCH  32  35
ENDBRANCH  30  32
ENDBRANCH  10  30
TORSDOF 9
