REMARK  Name = ZINC05673346
REMARK  9 active torsions:
REMARK  status: ('A' for Active; 'I' for Inactive)
REMARK    1  A    between atoms: C_1  and  C_2
REMARK    2  A    between atoms: C_2  and  O_3
REMARK    3  A    between atoms: O_3  and  C_4
REMARK    4  A    between atoms: C_9  and  C_10
REMARK    5  A    between atoms: C_13  and  O_31
REMARK    6  A    between atoms: N_15  and  C_22
REMARK    7  A    between atoms: C_18  and  O_21
REMARK    8  A    between atoms: C_27  and  C_29
REMARK    9  A    between atoms: C_27  and  C_30
REMARK                            x       y       z     vdW  Elec       q    Type
REMARK                         _______ _______ _______ _____ _____    ______ ____
ROOT
ATOM      1  C   UNL     1       2.055  -1.434   3.442  0.00  0.00    +0.119 C 
ATOM      2  C   UNL     1       3.439  -1.051   3.011  0.00  0.00    +0.076 A 
ATOM      3  C   UNL     1       4.220  -1.863   2.162  0.00  0.00    +0.238 A 
ATOM      4  N   UNL     1       5.373  -1.281   1.966  0.00  0.00    -0.131 NA
ATOM      5  N   UNL     1       5.388  -0.079   2.673  0.00  0.00    -0.240 N 
ATOM      6  C   UNL     1       4.176   0.061   3.316  0.00  0.00    +0.163 A 
ATOM      7  N   UNL     1       3.900   1.144   4.062  0.00  0.00    -0.197 NA
ATOM      8  C   UNL     1       2.933   1.557   4.742  0.00  0.00    +0.199 C 
ATOM      9  C   UNL     1       1.637   0.910   5.040  0.00  0.00    +0.165 C 
ATOM     10  S   UNL     1       0.975  -0.014   3.646  0.00  0.00    -0.138 S 
ENDROOT
BRANCH   5  11
ATOM     11  C   UNL     1       6.502   0.872   2.724  0.00  0.00    +0.114 C 
ATOM     12  C   UNL     1       6.819   1.366   1.309  0.00  0.00    +0.055 C 
ATOM     13  C   UNL     1       8.032   2.297   1.362  0.00  0.00    +0.162 C 
ATOM     14  O   UNL     1       9.140   1.602   1.937  0.00  0.00    -0.374 OA
ATOM     15  C   UNL     1       8.918   1.158   3.277  0.00  0.00    +0.066 C 
ATOM     16  C   UNL     1       7.740   0.181   3.303  0.00  0.00    +0.061 C 
ATOM     17  C   UNL     1      10.175   0.455   3.796  0.00  0.00    +0.041 C 
ATOM     18  C   UNL     1       8.601   2.361   4.167  0.00  0.00    +0.041 C 
ENDBRANCH   5  11
BRANCH   1  24
ATOM     19  C   UNL     1       0.802  -1.824   1.306  0.00  0.00    +0.125 A 
ATOM     20  C   UNL     1       0.260  -2.673   0.351  0.00  0.00    +0.046 A 
ATOM     21  C   UNL     1       0.372  -4.041   0.501  0.00  0.00    +0.004 A 
ATOM     22  C   UNL     1       1.024  -4.566   1.602  0.00  0.00    +0.001 A 
ATOM     23  C   UNL     1       1.565  -3.723   2.555  0.00  0.00    +0.008 A 
ATOM     24  C   UNL     1       1.460  -2.353   2.406  0.00  0.00    +0.012 A 
BRANCH  19  25
ATOM     25  O   UNL     1       0.693  -0.477   1.160  0.00  0.00    -0.492 OA
BRANCH  25  27
ATOM     26  C   UNL     1      -0.019   1.526   0.010  0.00  0.00    +0.048 C 
ATOM     27  C   UNL     1       0.002  -0.004   0.002  0.00  0.00    +0.225 C 
ENDBRANCH  25  27
ENDBRANCH  19  25
ENDBRANCH   1  24
BRANCH   8  28
ATOM     28  O   UNL     1       3.098   2.780   5.287  0.00  0.00    -0.495 OA
ATOM     29  H   UNL     1       3.950   3.189   5.083  0.00  0.00    +0.293 HD
ENDBRANCH   8  28
BRANCH   3  30
ATOM     30  O   UNL     1       3.836  -3.057   1.635  0.00  0.00    -0.491 OA
ATOM     31  H   UNL     1       3.394  -2.984   0.778  0.00  0.00    +0.294 HD
ENDBRANCH   3  30
TORSDOF 6
