REMARK  Name = ZINC27086312
REMARK  8 active torsions:
REMARK  status: ('A' for Active; 'I' for Inactive)
REMARK    1  A    between atoms: C_1  and  C_2
REMARK    2  A    between atoms: C_3  and  C_13
REMARK    3  A    between atoms: C_5  and  C_7
REMARK    4  A    between atoms: N_15  and  N_16
REMARK    5  A    between atoms: C_17  and  C_19
REMARK    6  A    between atoms: C_19  and  C_21
REMARK    7  A    between atoms: C_19  and  O_22
REMARK    8  A    between atoms: O_22  and  C_23
REMARK                            x       y       z     vdW  Elec       q    Type
REMARK                         _______ _______ _______ _____ _____    ______ ____
ROOT
ATOM      1  C   UNL     1       4.404  -6.633  -2.210  0.00  0.00    +0.282 C 
ATOM      2  O   UNL     1       5.493  -6.303  -1.782  0.00  0.00    -0.267 OA
ATOM      3  N   UNL     1       3.322  -5.870  -1.960  0.00  0.00    -0.229 N 
ATOM      4  H   UNL     1       2.337  -6.168  -2.347  0.00  0.00    +0.173 HD
ENDROOT
BRANCH   1   7
ATOM      5  C   UNL     1       6.723  -8.599  -2.964  0.00  0.00    +0.089 C 
ATOM      6  C   UNL     1       5.268  -8.731  -3.336  0.00  0.00    +0.135 A 
ATOM      7  C   UNL     1       4.267  -7.870  -3.002  0.00  0.00    +0.168 A 
ATOM      8  N   UNL     1       3.119  -8.358  -3.540  0.00  0.00    -0.204 NA
ATOM      9  C   UNL     1       3.399  -9.470  -4.170  0.00  0.00    +0.228 A 
ATOM     10  O   UNL     1       4.715  -9.721  -4.054  0.00  0.00    -0.440 OA
BRANCH   9  11
ATOM     11  C   UNL     1       2.425 -10.315  -4.894  0.00  0.00    +0.037 A 
ATOM     12  C   UNL     1       2.848 -11.480  -5.535  0.00  0.00    +0.013 A 
ATOM     13  C   UNL     1       1.933 -12.267  -6.205  0.00  0.00    +0.001 A 
ATOM     14  C   UNL     1       0.601 -11.896  -6.250  0.00  0.00    +0.000 A 
ATOM     15  C   UNL     1       0.176 -10.740  -5.622  0.00  0.00    +0.001 A 
ATOM     16  C   UNL     1       1.080  -9.947  -4.944  0.00  0.00    +0.013 A 
ENDBRANCH   9  11
ENDBRANCH   1   7
BRANCH   3  17
ATOM     17  N   UNL     1       3.452  -4.695  -1.207  0.00  0.00    -0.231 N 
ATOM     18  C   UNL     1       2.370  -3.932  -0.957  0.00  0.00    +0.270 C 
ATOM     19  O   UNL     1       1.284  -4.261  -1.383  0.00  0.00    -0.270 OA
ATOM     20  H   UNL     1       4.438  -4.397  -0.820  0.00  0.00    +0.173 HD
BRANCH  18  21
ATOM     21  C   UNL     1       2.511  -2.668  -0.147  0.00  0.00    +0.257 C 
ATOM     22  C   UNL     1       3.051  -3.011   1.243  0.00  0.00    +0.062 C 
BRANCH  21  23
ATOM     23  O   UNL     1       1.234  -2.039  -0.020  0.00  0.00    -0.480 OA
BRANCH  23  24
ATOM     24  C   UNL     1       1.226  -0.699   0.200  0.00  0.00    +0.123 A 
ATOM     25  C   UNL     1       2.419  -0.021   0.404  0.00  0.00    +0.046 A 
ATOM     26  C   UNL     1       2.409   1.342   0.627  0.00  0.00    +0.005 A 
ATOM     27  C   UNL     1       1.211   2.032   0.648  0.00  0.00    +0.015 A 
ATOM     28  C   UNL     1       0.019   1.359   0.446  0.00  0.00    +0.021 A 
ATOM     29  C   UNL     1       0.025  -0.005   0.222  0.00  0.00    +0.061 A 
ATOM     30 BR   UNL     1      -1.618   2.305   0.475  0.00  0.00    -0.050 Br
ENDBRANCH  23  24
ENDBRANCH  21  23
ENDBRANCH  18  21
ENDBRANCH   3  17
TORSDOF 6
