REMARK  Name = ZINC19727431
REMARK  8 active torsions:
REMARK  status: ('A' for Active; 'I' for Inactive)
REMARK    1  A    between atoms: C_1  and  O_2
REMARK    2  A    between atoms: O_2  and  C_3
REMARK    3  A    between atoms: C_5  and  C_13
REMARK    4  A    between atoms: C_7  and  O_11
REMARK    5  A    between atoms: C_8  and  O_9
REMARK    6  A    between atoms: O_9  and  C_10
REMARK    7  A    between atoms: O_11  and  C_12
REMARK    8  A    between atoms: C_16  and  C_21
REMARK                            x       y       z     vdW  Elec       q    Type
REMARK                         _______ _______ _______ _____ _____    ______ ____
ROOT
ATOM      1  C   UNL     1       2.402   0.386  -4.230  0.00  0.00    +0.117 C 
ATOM      2  C   UNL     1       1.446   0.452  -5.423  0.00  0.00    +0.078 C 
ATOM      3  C   UNL     1       1.442  -0.872  -6.141  0.00  0.00    +0.004 C 
ATOM      4  N   UNL     1       2.506  -1.600  -6.196  0.00  0.00    -0.342 N 
ATOM      5  C   UNL     1       3.660  -1.220  -5.593  0.00  0.00    +0.152 C 
ATOM      6  S   UNL     1       5.082  -1.976  -5.994  0.00  0.00    -0.013 SA
ATOM      7  N   UNL     1       3.667  -0.219  -4.659  0.00  0.00    -0.358 N 
ATOM      8  H   UNL     1       2.480  -2.440  -6.680  0.00  0.00    +0.167 HD
ATOM      9  H   UNL     1       4.506   0.090  -4.281  0.00  0.00    +0.162 HD
ENDROOT
BRANCH   3  10
ATOM     10  C   UNL     1       0.177  -1.355  -6.803  0.00  0.00    +0.008 C 
ATOM     11  C   UNL     1      -0.928  -1.492  -5.754  0.00  0.00    +0.016 C 
ATOM     12  C   UNL     1      -2.212  -1.982  -6.427  0.00  0.00    -0.010 C 
ATOM     13  C   UNL     1      -1.958  -3.341  -7.082  0.00  0.00    +0.007 C 
ATOM     14  C   UNL     1      -0.853  -3.203  -8.131  0.00  0.00    -0.010 C 
ATOM     15  C   UNL     1       0.431  -2.714  -7.458  0.00  0.00    +0.016 C 
ATOM     16  C   UNL     1      -1.286  -2.196  -9.198  0.00  0.00    +0.007 C 
ATOM     17  C   UNL     1      -1.539  -0.837  -8.543  0.00  0.00    -0.010 C 
ATOM     18  C   UNL     1      -2.644  -0.974  -7.494  0.00  0.00    +0.007 C 
ATOM     19  C   UNL     1      -0.255  -0.347  -7.871  0.00  0.00    +0.016 C 
ENDBRANCH   3  10
BRANCH   1  22
ATOM     20  C   UNL     1       0.606  -0.608  -1.056  0.00  0.00    +0.165 A 
ATOM     21  C   UNL     1       1.173   0.160  -2.063  0.00  0.00    +0.055 A 
ATOM     22  C   UNL     1       1.787  -0.452  -3.139  0.00  0.00    -0.018 A 
ATOM     23  C   UNL     1       1.839  -1.831  -3.217  0.00  0.00    +0.055 A 
ATOM     24  C   UNL     1       1.275  -2.606  -2.215  0.00  0.00    +0.165 A 
ATOM     25  C   UNL     1       0.661  -1.994  -1.128  0.00  0.00    +0.204 A 
BRANCH  20  27
ATOM     26  C   UNL     1      -0.017   1.425   0.010  0.00  0.00    +0.277 C 
ATOM     27  O   UNL     1       0.002  -0.004   0.002  0.00  0.00    -0.491 OA
ENDBRANCH  20  27
BRANCH  25  28
ATOM     28  O   UNL     1       0.111  -2.751  -0.140  0.00  0.00    -0.488 OA
ATOM     29  C   UNL     1      -1.260  -3.124  -0.295  0.00  0.00    +0.277 C 
ENDBRANCH  25  28
BRANCH  24  30
ATOM     30  O   UNL     1       1.326  -3.963  -2.293  0.00  0.00    -0.491 OA
ATOM     31  C   UNL     1       1.977  -4.523  -3.435  0.00  0.00    +0.277 C 
ENDBRANCH  24  30
ENDBRANCH   1  22
TORSDOF 5
