REMARK  Name = ZINC06103607
REMARK  8 active torsions:
REMARK  status: ('A' for Active; 'I' for Inactive)
REMARK    1  A    between atoms: C_1  and  C_2
REMARK    2  A    between atoms: C_5  and  N_9
REMARK    3  A    between atoms: C_13  and  S_14
REMARK    4  A    between atoms: S_14  and  C_15
REMARK    5  A    between atoms: C_15  and  C_16
REMARK    6  A    between atoms: N_21  and  C_22
REMARK    7  A    between atoms: C_22  and  C_23
REMARK    8  A    between atoms: C_22  and  C_24
REMARK                            x       y       z     vdW  Elec       q    Type
REMARK                         _______ _______ _______ _____ _____    ______ ____
ROOT
ATOM      1  N   UNL     1      -2.468   4.481   0.050  0.00  0.00    -0.277 N 
ATOM      2  C   UNL     1      -2.838   5.494   0.895  0.00  0.00    +0.230 A 
ATOM      3  N   UNL     1      -4.049   5.848   0.569  0.00  0.00    -0.137 NA
ATOM      4  N   UNL     1      -4.468   5.136  -0.415  0.00  0.00    -0.122 NA
ATOM      5  C   UNL     1      -3.538   4.284  -0.779  0.00  0.00    +0.196 A 
ENDROOT
BRANCH   1  10
ATOM      6  C   UNL     1       2.482   1.702  -0.013  0.00  0.00    +0.045 C 
ATOM      7  C   UNL     1       1.168   2.439   0.004  0.00  0.00    -0.032 A 
ATOM      8  C   UNL     1       1.152   3.822   0.012  0.00  0.00    +0.007 A 
ATOM      9  C   UNL     1      -0.051   4.501   0.027  0.00  0.00    +0.026 A 
ATOM     10  C   UNL     1      -1.246   3.794   0.034  0.00  0.00    +0.051 A 
ATOM     11  C   UNL     1      -1.228   2.406   0.021  0.00  0.00    +0.046 A 
ATOM     12  C   UNL     1      -0.021   1.732   0.012  0.00  0.00    +0.046 A 
ATOM     13 CL   UNL     1       0.002  -0.004   0.002  0.00  0.00    -0.083 Cl
ENDBRANCH   1  10
BRANCH   5  14
ATOM     14  S   UNL     1      -3.649   3.107  -2.085  0.00  0.00    -0.076 S 
BRANCH  14  15
ATOM     15  C   UNL     1      -5.320   3.458  -2.685  0.00  0.00    +0.173 C 
BRANCH  15  16
ATOM     16  C   UNL     1      -5.643   2.543  -3.838  0.00  0.00    +0.231 C 
ATOM     17  O   UNL     1      -4.824   1.733  -4.217  0.00  0.00    -0.274 OA
ATOM     18  N   UNL     1      -6.842   2.625  -4.447  0.00  0.00    -0.239 N 
ATOM     19  C   UNL     1      -7.131   1.806  -5.479  0.00  0.00    +0.306 C 
ATOM     20  O   UNL     1      -6.310   0.995  -5.859  0.00  0.00    -0.252 OA
ATOM     21  N   UNL     1      -8.330   1.888  -6.088  0.00  0.00    -0.297 N 
ATOM     22  H   UNL     1      -7.585   3.360  -4.104  0.00  0.00    +0.159 HD
ATOM     23  H   UNL     1      -9.073   2.623  -5.745  0.00  0.00    +0.151 HD
BRANCH  21  24
ATOM     24  C   UNL     1      -8.644   0.999  -7.209  0.00  0.00    +0.068 C 
ATOM     25  C   UNL     1     -10.161   0.828  -7.316  0.00  0.00    +0.027 C 
ATOM     26  C   UNL     1      -8.107   1.605  -8.507  0.00  0.00    +0.027 C 
ENDBRANCH  21  24
ENDBRANCH  15  16
ENDBRANCH  14  15
ENDBRANCH   5  14
TORSDOF 5
