REMARK  Name = ZINC33257443
REMARK  7 active torsions:
REMARK  status: ('A' for Active; 'I' for Inactive)
REMARK    1  A    between atoms: C_1  and  C_2
REMARK    2  A    between atoms: C_6  and  C_7
REMARK    3  A    between atoms: C_9  and  C_12
REMARK    4  A    between atoms: C_16  and  N_18
REMARK    5  A    between atoms: N_21  and  C_22
REMARK    6  A    between atoms: C_22  and  C_23
REMARK    7  A    between atoms: C_22  and  C_24
REMARK                            x       y       z     vdW  Elec       q    Type
REMARK                         _______ _______ _______ _____ _____    ______ ____
ROOT
ATOM      1  C   UNL     1      -4.817   1.245   0.209  0.00  0.00    +0.024 A 
ATOM      2  C   UNL     1      -4.835  -0.145   0.301  0.00  0.00    +0.012 A 
ATOM      3  C   UNL     1      -3.650  -0.853   0.299  0.00  0.00    +0.002 A 
ATOM      4  C   UNL     1      -2.443  -0.188   0.199  0.00  0.00    +0.023 A 
ATOM      5  C   UNL     1      -2.415   1.199   0.113  0.00  0.00    +0.035 A 
ATOM      6  C   UNL     1      -3.602   1.917   0.114  0.00  0.00    +0.035 A 
ENDROOT
BRANCH   5   7
ATOM      7  N   UNL     1      -1.191   1.870   0.018  0.00  0.00    -0.269 N 
ATOM      8  C   UNL     1      -1.098   3.004  -0.704  0.00  0.00    +0.304 C 
ATOM      9  O   UNL     1      -2.051   3.393  -1.351  0.00  0.00    -0.253 OA
ATOM     10  N   UNL     1       0.050   3.711  -0.704  0.00  0.00    -0.297 N 
ATOM     11  H   UNL     1      -0.304   1.471   0.532  0.00  0.00    +0.156 HD
ATOM     12  H   UNL     1       0.912   3.359  -0.119  0.00  0.00    +0.151 HD
BRANCH  10  13
ATOM     13  C   UNL     1       0.148   4.947  -1.483  0.00  0.00    +0.068 C 
ATOM     14  C   UNL     1       1.221   5.851  -0.872  0.00  0.00    +0.027 C 
ATOM     15  C   UNL     1       0.527   4.611  -2.927  0.00  0.00    +0.027 C 
ENDBRANCH  10  13
ENDBRANCH   5   7
BRANCH   1  18
ATOM     16  C   UNL     1      -8.153   2.527   0.262  0.00  0.00    +0.266 A 
ATOM     17  N   UNL     1      -7.332   1.489   0.296  0.00  0.00    -0.187 NA
ATOM     18  C   UNL     1      -6.091   2.008   0.211  0.00  0.00    +0.202 A 
ATOM     19  N   UNL     1      -6.214   3.309   0.136  0.00  0.00    -0.056 NA
ATOM     20  O   UNL     1      -7.385   3.625   0.157  0.00  0.00    -0.332 OA
BRANCH  16  26
ATOM     21  C   UNL     1     -10.064   4.966   0.192  0.00  0.00    +0.045 C 
ATOM     22  C   UNL     1     -10.523   3.534   0.298  0.00  0.00    -0.031 A 
ATOM     23  C   UNL     1     -11.857   3.212   0.370  0.00  0.00    +0.012 A 
ATOM     24  C   UNL     1     -12.219   1.908   0.471  0.00  0.00    +0.046 A 
ATOM     25  S   UNL     1     -10.700   1.074   0.463  0.00  0.00    -0.092 S 
ATOM     26  C   UNL     1      -9.619   2.486   0.325  0.00  0.00    +0.079 A 
ENDBRANCH  16  26
ENDBRANCH   1  18
TORSDOF 4
