REMARK  Name = ZINC06377042
REMARK  5 active torsions:
REMARK  status: ('A' for Active; 'I' for Inactive)
REMARK    1  A    between atoms: C_1  and  C_2
REMARK    2  A    between atoms: C_8  and  C_10
REMARK    3  A    between atoms: C_13  and  S_19
REMARK    4  A    between atoms: C_14  and  N_16
REMARK    5  A    between atoms: S_19  and  C_20
REMARK                            x       y       z     vdW  Elec       q    Type
REMARK                         _______ _______ _______ _____ _____    ______ ____
ROOT
ATOM      1  C   UNL     1       0.088  -5.151   3.117  0.00  0.00    +0.039 A 
ATOM      2  C   UNL     1       0.081  -4.654   4.424  0.00  0.00    +0.014 A 
ATOM      3  C   UNL     1       0.098  -5.515   5.484  0.00  0.00    +0.018 A 
ATOM      4  C   UNL     1       0.122  -6.891   5.268  0.00  0.00    +0.038 A 
ATOM      5  C   UNL     1       0.129  -7.395   3.969  0.00  0.00    +0.140 A 
ATOM      6  C   UNL     1       0.106  -6.532   2.897  0.00  0.00    +0.047 A 
ENDROOT
BRANCH   1  14
ATOM      7  C   UNL     1      -0.018   1.503   0.010  0.00  0.00    +0.066 C 
ATOM      8  C   UNL     1       0.002  -0.004   0.002  0.00  0.00    +0.047 A 
ATOM      9  C   UNL     1       0.006  -0.706  -1.158  0.00  0.00    +0.071 A 
ATOM     10  S   UNL     1       0.032  -2.379  -0.535  0.00  0.00    -0.060 S 
ATOM     11  C   UNL     1       0.035  -2.015   1.108  0.00  0.00    +0.165 A 
ATOM     12  N   UNL     1       0.023  -0.700   1.124  0.00  0.00    -0.230 NA
ATOM     13  N   UNL     1       0.052  -2.891   2.186  0.00  0.00    -0.261 N 
ATOM     14  C   UNL     1       0.070  -4.222   1.973  0.00  0.00    +0.250 C 
ATOM     15  O   UNL     1       0.070  -4.655   0.837  0.00  0.00    -0.270 OA
ATOM     16  H   UNL     1       0.051  -2.545   3.092  0.00  0.00    +0.157 HD
ENDBRANCH   1  14
BRANCH   5  17
ATOM     17  N   UNL     1       0.156  -8.858   3.742  0.00  0.00    +0.058 N 
ATOM     18  O   UNL     1       0.162  -9.295   2.615  0.00  0.00    -0.126 OA
ATOM     19  O   UNL     1       0.171  -9.616   4.684  0.00  0.00    -0.126 OA
ENDBRANCH   5  17
BRANCH   4  20
ATOM     20  S   UNL     1       0.144  -7.997   6.640  0.00  0.00    -0.126 S 
ATOM     21  C   UNL     1       0.127  -6.901   8.086  0.00  0.00    +0.090 C 
ENDBRANCH   4  20
TORSDOF 3
