REMARK  Name = ZINC25452030
REMARK  8 active torsions:
REMARK  status: ('A' for Active; 'I' for Inactive)
REMARK    1  A    between atoms: C_1  and  O_2
REMARK    2  A    between atoms: O_2  and  C_3
REMARK    3  A    between atoms: C_6  and  S_10
REMARK    4  A    between atoms: S_10  and  N_13
REMARK    5  A    between atoms: N_13  and  C_14
REMARK    6  A    between atoms: C_17  and  C_20
REMARK    7  A    between atoms: C_20  and  S_21
REMARK    8  A    between atoms: S_21  and  N_24
REMARK                            x       y       z     vdW  Elec       q    Type
REMARK                         _______ _______ _______ _____ _____    ______ ____
ROOT
ATOM      1  N   UNL     1      -0.032   0.032  -0.286  0.00  0.00    -0.216 N 
ATOM      2  H   UNL     1      -0.505  -0.358  -1.200  0.00  0.00    +0.174 HD
ENDROOT
BRANCH   1   3
ATOM      3  C   UNL     1       0.647  -0.835   0.573  0.00  0.00    +0.048 A 
ATOM      4  C   UNL     1       1.901  -1.321   0.224  0.00  0.00    +0.025 A 
ATOM      5  C   UNL     1       2.572  -2.174   1.077  0.00  0.00    +0.007 A 
ATOM      6  C   UNL     1       1.992  -2.553   2.275  0.00  0.00    -0.025 A 
ATOM      7  C   UNL     1       0.742  -2.076   2.623  0.00  0.00    +0.007 A 
ATOM      8  C   UNL     1       0.068  -1.218   1.776  0.00  0.00    +0.025 A 
BRANCH   6   9
ATOM      9  C   UNL     1       2.725  -3.488   3.201  0.00  0.00    +0.219 C 
BRANCH   9  10
ATOM     10  S   UNL     1       2.292  -5.202   2.798  0.00  0.00    +0.031 S 
ATOM     11  O   UNL     1       0.929  -5.451   3.115  0.00  0.00    -0.158 OA
ATOM     12  O   UNL     1       2.814  -5.552   1.523  0.00  0.00    -0.158 OA
BRANCH  10  13
ATOM     13  N   UNL     1       3.151  -6.123   3.873  0.00  0.00    -0.208 NA
ATOM     14  H   UNL     1       2.942  -7.188   3.693  0.00  0.00    +0.144 HD
ATOM     15  H   UNL     1       2.856  -5.860   4.899  0.00  0.00    +0.144 HD
ENDBRANCH  10  13
ENDBRANCH   9  10
ENDBRANCH   6   9
ENDBRANCH   1   3
BRANCH   1  16
ATOM     16  S   UNL     1      -0.125   1.646   0.070  0.00  0.00    +0.072 S 
ATOM     17  O   UNL     1      -0.821   2.260  -1.006  0.00  0.00    -0.150 OA
ATOM     18  O   UNL     1      -0.570   1.740   1.416  0.00  0.00    -0.150 OA
BRANCH  16  22
ATOM     19  C   UNL     1       4.096   3.284  -0.015  0.00  0.00    +0.134 A 
ATOM     20  C   UNL     1       3.529   2.887   1.187  0.00  0.00    +0.048 A 
ATOM     21  C   UNL     1       2.239   2.393   1.210  0.00  0.00    +0.032 A 
ATOM     22  C   UNL     1       1.517   2.283   0.036  0.00  0.00    +0.110 A 
ATOM     23  C   UNL     1       2.080   2.677  -1.163  0.00  0.00    +0.047 A 
ATOM     24  C   UNL     1       3.368   3.177  -1.192  0.00  0.00    +0.061 A 
ATOM     25 BR   UNL     1       4.138   3.716  -2.833  0.00  0.00    -0.046 Br
BRANCH  19  27
ATOM     26  C   UNL     1       6.053   3.856   1.208  0.00  0.00    +0.277 C 
ATOM     27  O   UNL     1       5.363   3.775  -0.041  0.00  0.00    -0.494 OA
ENDBRANCH  19  27
ENDBRANCH  16  22
ENDBRANCH   1  16
TORSDOF 7
