REMARK  Name = ZINC23129887
REMARK  6 active torsions:
REMARK  status: ('A' for Active; 'I' for Inactive)
REMARK    1  A    between atoms: C_1  and  C_2
REMARK    2  A    between atoms: C_9  and  N_14
REMARK    3  A    between atoms: C_15  and  C_17
REMARK    4  A    between atoms: C_17  and  C_19
REMARK    5  A    between atoms: C_17  and  O_20
REMARK    6  A    between atoms: O_20  and  C_21
REMARK                            x       y       z     vdW  Elec       q    Type
REMARK                         _______ _______ _______ _____ _____    ______ ____
ROOT
ATOM      1  N   UNL     1      -4.884   1.254   6.080  0.00  0.00    -0.282 N 
ATOM      2  C   UNL     1      -6.188   1.594   6.082  0.00  0.00    +0.258 C 
ATOM      3  O   UNL     1      -6.834   1.524   5.058  0.00  0.00    -0.271 OA
ATOM      4  H   UNL     1      -4.318   1.237   7.023  0.00  0.00    +0.155 HD
ENDROOT
BRANCH   1  12
ATOM      5  C   UNL     1      -2.279  -0.054  -1.089  0.00  0.00    +0.062 C 
ATOM      6  C   UNL     1      -3.180  -0.003   0.147  0.00  0.00    +0.256 C 
ATOM      7  C   UNL     1      -3.972   1.280   0.138  0.00  0.00    +0.258 C 
ATOM      8  O   UNL     1      -4.253   1.814  -0.914  0.00  0.00    -0.271 OA
ATOM      9  N   UNL     1      -4.366   1.832   1.306  0.00  0.00    -0.279 N 
ATOM     10  C   UNL     1      -3.998   1.214   2.509  0.00  0.00    +0.077 A 
ATOM     11  C   UNL     1      -4.629   1.545   3.696  0.00  0.00    +0.050 A 
ATOM     12  C   UNL     1      -4.248   0.922   4.876  0.00  0.00    +0.035 A 
ATOM     13  C   UNL     1      -3.238  -0.031   4.865  0.00  0.00    +0.027 A 
ATOM     14  C   UNL     1      -2.607  -0.362   3.680  0.00  0.00    +0.049 A 
ATOM     15  C   UNL     1      -2.984   0.256   2.501  0.00  0.00    +0.143 A 
ATOM     16  O   UNL     1      -2.374  -0.061   1.327  0.00  0.00    -0.478 OA
ATOM     17  H   UNL     1      -4.968   2.753   1.303  0.00  0.00    +0.155 HD
ENDBRANCH   1  12
BRANCH   2  18
ATOM     18  C   UNL     1      -6.843   2.061   7.356  0.00  0.00    +0.256 C 
ATOM     19  C   UNL     1      -6.747   0.958   8.412  0.00  0.00    +0.062 C 
BRANCH  18  20
ATOM     20  O   UNL     1      -8.217   2.360   7.103  0.00  0.00    -0.477 OA
BRANCH  20  21
ATOM     21  C   UNL     1      -8.818   3.253   7.935  0.00  0.00    +0.157 A 
ATOM     22  C   UNL     1      -8.136   3.739   9.040  0.00  0.00    +0.048 A 
ATOM     23  C   UNL     1      -8.748   4.647   9.883  0.00  0.00    +0.004 A 
ATOM     24  C   UNL     1     -10.039   5.071   9.626  0.00  0.00    +0.003 A 
ATOM     25  C   UNL     1     -10.722   4.589   8.525  0.00  0.00    +0.042 A 
ATOM     26  C   UNL     1     -10.113   3.683   7.675  0.00  0.00    +0.165 A 
ATOM     27  F   UNL     1     -10.777   3.216   6.596  0.00  0.00    -0.202 F 
ENDBRANCH  20  21
ENDBRANCH  18  20
ENDBRANCH   2  18
TORSDOF 4
