REMARK  Name = ZINC66569535
REMARK  5 active torsions:
REMARK  status: ('A' for Active; 'I' for Inactive)
REMARK    1  A    between atoms: C_1  and  C_2
REMARK    2  A    between atoms: C_6  and  C_8
REMARK    3  A    between atoms: N_10  and  N_11
REMARK    4  A    between atoms: C_12  and  C_14
REMARK    5  A    between atoms: C_18  and  N_20
REMARK                            x       y       z     vdW  Elec       q    Type
REMARK                         _______ _______ _______ _____ _____    ______ ____
ROOT
ATOM      1  N   UNL     1       0.083  -4.905   3.652  0.00  0.00    -0.230 N 
ATOM      2  C   UNL     1       0.100  -6.252   3.639  0.00  0.00    +0.260 C 
ATOM      3  O   UNL     1       0.103  -6.850   2.581  0.00  0.00    -0.269 OA
ATOM      4  H   UNL     1       0.080  -4.428   4.496  0.00  0.00    +0.173 HD
ENDROOT
BRANCH   2   5
ATOM      5  C   UNL     1       0.115  -7.003   4.913  0.00  0.00    +0.040 A 
ATOM      6  C   UNL     1       0.106  -6.319   6.130  0.00  0.00    +0.013 A 
ATOM      7  C   UNL     1       0.120  -7.022   7.317  0.00  0.00    +0.003 A 
ATOM      8  C   UNL     1       0.143  -8.404   7.307  0.00  0.00    +0.025 A 
ATOM      9  C   UNL     1       0.152  -9.095   6.101  0.00  0.00    +0.052 A 
ATOM     10  C   UNL     1       0.133  -8.398   4.902  0.00  0.00    +0.037 A 
BRANCH   9  11
ATOM     11  N   UNL     1       0.176 -10.492   6.096  0.00  0.00    -0.207 N 
ATOM     12  C   UNL     1       0.692 -11.368   5.029  0.00  0.00    +0.133 C 
ATOM     13  C   UNL     1       1.214 -12.694   5.612  0.00  0.00    +0.045 C 
ATOM     14  C   UNL     1       0.117 -13.151   6.621  0.00  0.00    +0.190 C 
ATOM     15  S   UNL     1      -0.369 -11.516   7.306  0.00  0.00    +0.046 S 
ATOM     16  O   UNL     1       0.408 -11.197   8.452  0.00  0.00    -0.155 OA
ATOM     17  O   UNL     1      -1.783 -11.376   7.314  0.00  0.00    -0.155 OA
ENDBRANCH   9  11
ENDBRANCH   2   5
BRANCH   1  20
ATOM     18  C   UNL     1       0.051  -2.845   2.458  0.00  0.00    +0.260 C 
ATOM     19  O   UNL     1       0.048  -2.248   3.516  0.00  0.00    -0.269 OA
ATOM     20  N   UNL     1       0.068  -4.193   2.445  0.00  0.00    -0.230 N 
ATOM     21  H   UNL     1       0.071  -4.670   1.601  0.00  0.00    +0.173 HD
BRANCH  18  27
ATOM     22  C   UNL     1      -0.018   1.503   0.010  0.00  0.00    +0.044 C 
ATOM     23  C   UNL     1       0.002  -0.004   0.002  0.00  0.00    -0.050 A 
ATOM     24  C   UNL     1       0.006  -0.688  -1.201  0.00  0.00    +0.003 A 
ATOM     25  C   UNL     1       0.024  -2.071  -1.218  0.00  0.00    +0.001 A 
ATOM     26  C   UNL     1       0.039  -2.778  -0.033  0.00  0.00    +0.013 A 
ATOM     27  C   UNL     1       0.036  -2.095   1.184  0.00  0.00    +0.038 A 
ATOM     28  C   UNL     1       0.023  -0.699   1.194  0.00  0.00    +0.016 A 
ENDBRANCH  18  27
ENDBRANCH   1  20
TORSDOF 4
