REMARK  Name = ZINC40814223
REMARK  8 active torsions:
REMARK  status: ('A' for Active; 'I' for Inactive)
REMARK    1  A    between atoms: C_1  and  C_2
REMARK    2  A    between atoms: C_2  and  C_3
REMARK    3  A    between atoms: C_3  and  C_5
REMARK    4  A    between atoms: C_3  and  N_6
REMARK    5  A    between atoms: C_7  and  C_9
REMARK    6  A    between atoms: C_10  and  C_28
REMARK    7  A    between atoms: N_18  and  N_19
REMARK    8  A    between atoms: C_20  and  C_22
REMARK                            x       y       z     vdW  Elec       q    Type
REMARK                         _______ _______ _______ _____ _____    ______ ____
ROOT
ATOM      1  C   UNL     1      -4.122   0.346  -2.510  0.00  0.00    +0.193 A 
ATOM      2  C   UNL     1      -5.470   0.497  -2.675  0.00  0.00    +0.009 A 
ATOM      3  C   UNL     1      -5.662   0.869  -4.012  0.00  0.00    +0.042 A 
ATOM      4  C   UNL     1      -4.423   0.928  -4.605  0.00  0.00    +0.115 A 
ATOM      5  O   UNL     1      -3.511   0.619  -3.686  0.00  0.00    -0.454 OA
ATOM      6  C   UNL     1      -4.224   1.293  -6.054  0.00  0.00    +0.075 C 
ATOM      7  C   UNL     1      -5.532   1.069  -6.819  0.00  0.00    +0.014 C 
ATOM      8  C   UNL     1      -6.692   1.796  -6.132  0.00  0.00    +0.058 C 
ATOM      9  C   UNL     1      -6.902   1.170  -4.761  0.00  0.00    +0.070 C 
ATOM     10  N   UNL     1      -8.082   0.918  -4.284  0.00  0.00    -0.184 NA
ATOM     11  C   UNL     1      -6.537   0.301  -1.629  0.00  0.00    +0.048 C 
ENDROOT
BRANCH   1  13
ATOM     12  N   UNL     1      -2.105  -0.148  -1.230  0.00  0.00    -0.306 N 
ATOM     13  C   UNL     1      -3.448  -0.040  -1.265  0.00  0.00    +0.280 C 
ATOM     14  O   UNL     1      -4.103  -0.261  -0.263  0.00  0.00    -0.267 OA
ATOM     15  H   UNL     1      -1.584   0.029  -2.029  0.00  0.00    +0.149 HD
BRANCH  12  16
ATOM     16  C   UNL     1      -1.433  -0.534   0.013  0.00  0.00    +0.070 C 
ATOM     17  C   UNL     1      -1.413  -2.059   0.130  0.00  0.00    +0.028 C 
BRANCH  16  19
ATOM     18  C   UNL     1      -0.019   1.526   0.010  0.00  0.00    +0.005 C 
ATOM     19  C   UNL     1       0.002  -0.004   0.002  0.00  0.00    +0.018 C 
ENDBRANCH  16  19
ENDBRANCH  12  16
ENDBRANCH   1  13
BRANCH  10  20
ATOM     20  N   UNL     1      -9.222   1.224  -5.038  0.00  0.00    -0.201 N 
ATOM     21  C   UNL     1     -10.448   0.962  -4.543  0.00  0.00    +0.282 C 
ATOM     22  O   UNL     1     -10.564   0.460  -3.442  0.00  0.00    -0.267 OA
ATOM     23  H   UNL     1      -9.130   1.625  -5.917  0.00  0.00    +0.178 HD
BRANCH  21  24
ATOM     24  C   UNL     1     -11.653   1.286  -5.340  0.00  0.00    +0.127 A 
ATOM     25  C   UNL     1     -12.918   1.018  -4.820  0.00  0.00    +0.033 A 
ATOM     26  C   UNL     1     -14.037   1.327  -5.577  0.00  0.00    +0.004 A 
ATOM     27  C   UNL     1     -13.852   1.894  -6.829  0.00  0.00    +0.020 A 
ATOM     28  C   UNL     1     -12.565   2.133  -7.283  0.00  0.00    +0.111 A 
ATOM     29  N   UNL     1     -11.520   1.834  -6.542  0.00  0.00    -0.250 NA
ENDBRANCH  21  24
ENDBRANCH  10  20
TORSDOF 5
