REMARK  Name = ZINC67253224
REMARK  6 active torsions:
REMARK  status: ('A' for Active; 'I' for Inactive)
REMARK    1  A    between atoms: C_1  and  C_2
REMARK    2  A    between atoms: C_7  and  N_11
REMARK    3  A    between atoms: N_14  and  C_15
REMARK    4  A    between atoms: C_15  and  C_16
REMARK    5  A    between atoms: C_16  and  C_17
REMARK    6  A    between atoms: C_17  and  C_18
REMARK                            x       y       z     vdW  Elec       q    Type
REMARK                         _______ _______ _______ _____ _____    ______ ____
ROOT
ATOM      1  N   UNL     1       0.084  -6.281   0.011  0.00  0.00    -0.269 N 
ATOM      2  C   UNL     1      -0.011  -7.180  -0.988  0.00  0.00    +0.304 C 
ATOM      3  O   UNL     1      -0.020  -6.805  -2.145  0.00  0.00    -0.253 OA
ATOM      4  N   UNL     1      -0.095  -8.495  -0.706  0.00  0.00    -0.299 N 
ATOM      5  H   UNL     1       0.159  -6.584   0.930  0.00  0.00    +0.156 HD
ATOM      6  H   UNL     1      -0.088  -8.795   0.216  0.00  0.00    +0.150 HD
ENDROOT
BRANCH   1  13
ATOM      7  C   UNL     1       0.830   0.901  -2.898  0.00  0.00    +0.073 C 
ATOM      8  C   UNL     1       0.680  -0.486  -2.328  0.00  0.00    +0.076 A 
ATOM      9  N   UNL     1       0.099  -0.858  -1.220  0.00  0.00    -0.244 NA
ATOM     10  C   UNL     1       0.037  -2.148  -0.825  0.00  0.00    +0.079 A 
ATOM     11  C   UNL     1      -0.559  -2.677   0.344  0.00  0.00    +0.031 A 
ATOM     12  C   UNL     1      -0.535  -4.011   0.598  0.00  0.00    +0.025 A 
ATOM     13  C   UNL     1       0.073  -4.910  -0.276  0.00  0.00    +0.036 A 
ATOM     14  C   UNL     1       0.668  -4.431  -1.434  0.00  0.00    +0.040 A 
ATOM     15  C   UNL     1       0.646  -3.083  -1.694  0.00  0.00    +0.041 A 
ATOM     16  S   UNL     1       1.248  -2.042  -3.002  0.00  0.00    -0.072 S 
ENDBRANCH   1  13
BRANCH   4  17
ATOM     17  C   UNL     1      -0.198  -9.473  -1.793  0.00  0.00    +0.106 C 
BRANCH  17  18
ATOM     18  C   UNL     1      -0.280 -10.883  -1.205  0.00  0.00    +0.026 C 
BRANCH  18  19
ATOM     19  C   UNL     1      -0.387 -11.903  -2.340  0.00  0.00    +0.078 C 
BRANCH  19  20
ATOM     20  C   UNL     1      -0.468 -13.292  -1.761  0.00  0.00    +0.134 A 
ATOM     21  N   UNL     1       0.540 -14.079  -1.490  0.00  0.00    -0.134 NA
ATOM     22  N   UNL     1       0.104 -15.187  -0.999  0.00  0.00    -0.134 NA
ATOM     23  C   UNL     1      -1.196 -15.153  -0.932  0.00  0.00    +0.133 A 
ATOM     24  N   UNL     1      -1.595 -13.955  -1.419  0.00  0.00    -0.315 N 
ATOM     25  C   UNL     1      -2.974 -13.487  -1.560  0.00  0.00    +0.125 C 
ATOM     26  C   UNL     1      -3.849 -14.160  -0.499  0.00  0.00    +0.022 C 
ATOM     27  C   UNL     1      -4.402 -15.476  -1.046  0.00  0.00    +0.002 C 
ATOM     28  C   UNL     1      -3.263 -16.434  -1.383  0.00  0.00    +0.008 C 
ATOM     29  C   UNL     1      -2.109 -16.229  -0.404  0.00  0.00    +0.076 C 
ENDBRANCH  19  20
ENDBRANCH  18  19
ENDBRANCH  17  18
ENDBRANCH   4  17
TORSDOF 5
