REMARK  Name = ZINC64347820
REMARK  10 active torsions:
REMARK  status: ('A' for Active; 'I' for Inactive)
REMARK    1  A    between atoms: C_1  and  C_2
REMARK    2  A    between atoms: C_3  and  C_28
REMARK    3  A    between atoms: C_7  and  N_8
REMARK    4  A    between atoms: C_9  and  C_11
REMARK    5  A    between atoms: C_13  and  C_25
REMARK    6  A    between atoms: C_17  and  C_24
REMARK    7  A    between atoms: N_19  and  C_20
REMARK    8  A    between atoms: C_20  and  C_21
REMARK    9  A    between atoms: C_20  and  C_22
REMARK   10  A    between atoms: C_20  and  C_23
REMARK                            x       y       z     vdW  Elec       q    Type
REMARK                         _______ _______ _______ _____ _____    ______ ____
ROOT
ATOM      1  C   UNL     1       0.538  -0.938   4.866  0.00  0.00    +0.051 A 
ATOM      2  C   UNL     1       0.783   0.391   5.209  0.00  0.00    +0.037 A 
ATOM      3  C   UNL     1       0.688   0.779   6.537  0.00  0.00    +0.047 A 
ATOM      4  N   UNL     1       0.372  -0.075   7.485  0.00  0.00    -0.232 NA
ATOM      5  C   UNL     1       0.127  -1.352   7.226  0.00  0.00    +0.160 A 
ATOM      6  C   UNL     1       0.195  -1.833   5.903  0.00  0.00    +0.054 A 
ATOM      7  C   UNL     1      -0.119  -3.208   5.944  0.00  0.00    +0.070 A 
ATOM      8  N   UNL     1      -0.364  -3.541   7.180  0.00  0.00    -0.173 NA
ATOM      9  N   UNL     1      -0.214  -2.424   8.009  0.00  0.00    -0.241 N 
ATOM     10  C   UNL     1      -0.165  -4.136   4.758  0.00  0.00    +0.068 C 
ENDROOT
BRANCH   1  12
ATOM     11  N   UNL     1       0.201  -0.593   2.466  0.00  0.00    -0.266 N 
ATOM     12  C   UNL     1       0.629  -1.393   3.463  0.00  0.00    +0.250 C 
ATOM     13  O   UNL     1       1.090  -2.489   3.208  0.00  0.00    -0.270 OA
ATOM     14  H   UNL     1      -0.167   0.281   2.669  0.00  0.00    +0.157 HD
BRANCH  11  21
ATOM     15  C   UNL     1      -0.712   1.056   0.037  0.00  0.00    +0.049 C 
ATOM     16  C   UNL     1      -0.106  -0.324   0.042  0.00  0.00    +0.012 A 
ATOM     17  C   UNL     1       0.158  -1.110  -1.082  0.00  0.00    +0.071 A 
ATOM     18  N   UNL     1       0.683  -2.240  -0.682  0.00  0.00    -0.177 NA
ATOM     19  N   UNL     1       0.774  -2.216   0.716  0.00  0.00    -0.263 N 
ATOM     20  H   UNL     1       1.125  -2.924   1.278  0.00  0.00    +0.190 HD
ATOM     21  C   UNL     1       0.286  -1.023   1.143  0.00  0.00    +0.124 A 
BRANCH  17  22
ATOM     22  C   UNL     1      -0.116  -0.723  -2.512  0.00  0.00    +0.040 C 
ATOM     23  C   UNL     1       0.058  -1.803  -3.582  0.00  0.00    +0.010 C 
ATOM     24  C   UNL     1       1.076  -0.667  -3.469  0.00  0.00    +0.010 C 
ENDBRANCH  17  22
ENDBRANCH  11  21
ENDBRANCH   1  12
BRANCH   9  25
ATOM     25  C   UNL     1      -0.405  -2.400   9.462  0.00  0.00    +0.058 C 
ATOM     26  C   UNL     1      -1.528  -1.421   9.813  0.00  0.00    +0.036 C 
ATOM     27  C   UNL     1      -0.779  -3.801   9.950  0.00  0.00    +0.036 C 
ATOM     28  C   UNL     1       0.892  -1.953  10.139  0.00  0.00    +0.036 C 
ENDBRANCH   9  25
BRANCH   3  29
ATOM     29  C   UNL     1       0.954   2.216   6.902  0.00  0.00    +0.038 C 
ATOM     30  C   UNL     1       0.939   3.248   5.772  0.00  0.00    +0.010 C 
ATOM     31  C   UNL     1      -0.209   3.203   6.782  0.00  0.00    +0.010 C 
ENDBRANCH   3  29
TORSDOF 5
