REMARK  Name = ZINC66870193
REMARK  7 active torsions:
REMARK  status: ('A' for Active; 'I' for Inactive)
REMARK    1  A    between atoms: C_1  and  C_2
REMARK    2  A    between atoms: C_5  and  S_7
REMARK    3  A    between atoms: S_7  and  N_10
REMARK    4  A    between atoms: N_10  and  C_11
REMARK    5  A    between atoms: C_14  and  O_17
REMARK    6  A    between atoms: C_18  and  C_20
REMARK    7  A    between atoms: C_22  and  C_26
REMARK                            x       y       z     vdW  Elec       q    Type
REMARK                         _______ _______ _______ _____ _____    ______ ____
ROOT
ATOM      1  N   UNL     1       1.357  -5.806  -1.852  0.00  0.00    -0.134 N 
ATOM      2  C   UNL     1       0.392  -4.874  -1.719  0.00  0.00    +0.288 C 
ATOM      3  O   UNL     1       0.516  -3.789  -2.254  0.00  0.00    -0.266 OA
ENDROOT
BRANCH   2   4
ATOM      4  C   UNL     1      -0.811  -5.171  -0.926  0.00  0.00    +0.122 A 
ATOM      5  C   UNL     1      -2.127  -4.993  -1.315  0.00  0.00    +0.057 A 
ATOM      6  C   UNL     1      -2.895  -5.414  -0.227  0.00  0.00    +0.060 A 
ATOM      7  N   UNL     1      -2.076  -5.804   0.715  0.00  0.00    -0.178 NA
ATOM      8  N   UNL     1      -0.854  -5.681   0.340  0.00  0.00    -0.272 N 
ATOM      9  H   UNL     1      -0.079  -5.914   0.876  0.00  0.00    +0.189 HD
ATOM     10  C   UNL     1      -4.401  -5.418  -0.152  0.00  0.00    +0.067 C 
ENDBRANCH   2   4
BRANCH   1  11
ATOM     11  C   UNL     1       2.532  -5.501  -2.551  0.00  0.00    +0.060 A 
ATOM     12  C   UNL     1       3.751  -5.486  -1.886  0.00  0.00    +0.029 A 
ATOM     13  C   UNL     1       4.909  -5.186  -2.575  0.00  0.00    +0.047 A 
ATOM     14  C   UNL     1       4.855  -4.899  -3.931  0.00  0.00    +0.117 A 
ATOM     15  C   UNL     1       3.638  -4.913  -4.596  0.00  0.00    +0.047 A 
ATOM     16  C   UNL     1       2.480  -5.220  -3.909  0.00  0.00    +0.029 A 
BRANCH  14  17
ATOM     17  O   UNL     1       5.996  -4.602  -4.609  0.00  0.00    -0.507 OA
ATOM     18  H   UNL     1       6.439  -5.372  -4.990  0.00  0.00    +0.292 HD
ENDBRANCH  14  17
ENDBRANCH   1  11
BRANCH   1  19
ATOM     19  S   UNL     1       1.153  -7.310  -1.191  0.00  0.00    +0.088 S 
ATOM     20  O   UNL     1       1.438  -8.248  -2.220  0.00  0.00    -0.149 OA
ATOM     21  O   UNL     1      -0.090  -7.287  -0.504  0.00  0.00    -0.149 OA
BRANCH  19  26
ATOM     22  C   UNL     1       5.893  -8.364   2.190  0.00  0.00    +0.051 C 
ATOM     23  C   UNL     1       4.572  -8.001   1.560  0.00  0.00    -0.011 A 
ATOM     24  C   UNL     1       3.473  -7.456   2.136  0.00  0.00    +0.013 A 
ATOM     25  C   UNL     1       2.361  -7.206   1.355  0.00  0.00    +0.037 A 
ATOM     26  C   UNL     1       2.402  -7.514   0.035  0.00  0.00    +0.147 A 
ATOM     27  S   UNL     1       4.052  -8.172  -0.139  0.00  0.00    -0.073 S 
ENDBRANCH  19  26
ENDBRANCH   1  19
TORSDOF 5
