REMARK  Name = ZINC40717837
REMARK  7 active torsions:
REMARK  status: ('A' for Active; 'I' for Inactive)
REMARK    1  A    between atoms: C_6  and  C_7
REMARK    2  A    between atoms: N_12  and  C_15
REMARK    3  A    between atoms: C_18  and  N_21
REMARK    4  A    between atoms: C_22  and  C_24
REMARK    5  A    between atoms: C_24  and  O_25
REMARK    6  A    between atoms: O_25  and  C_26
REMARK    7  A    between atoms: C_29  and  N_32
REMARK                            x       y       z     vdW  Elec       q    Type
REMARK                         _______ _______ _______ _____ _____    ______ ____
ROOT
ATOM      1  C   UNL     1      -1.236  -6.047   0.770  0.00  0.00    +0.030 A 
ATOM      2  C   UNL     1      -0.030  -6.734   0.832  0.00  0.00    +0.025 A 
ATOM      3  C   UNL     1      -0.014  -8.110   0.723  0.00  0.00    +0.025 A 
ATOM      4  C   UNL     1      -1.202  -8.808   0.551  0.00  0.00    +0.034 A 
ATOM      5  C   UNL     1      -2.407  -8.121   0.489  0.00  0.00    +0.025 A 
ATOM      6  C   UNL     1      -2.425  -6.746   0.605  0.00  0.00    +0.025 A 
ENDROOT
BRANCH   1  12
ATOM      7  C   UNL     1      -1.308  -0.765  -0.009  0.00  0.00    +0.247 C 
ATOM      8  O   UNL     1      -2.363  -0.180   0.148  0.00  0.00    -0.270 OA
ATOM      9  N   UNL     1      -1.292  -2.108  -0.116  0.00  0.00    -0.295 N 
ATOM     10  C   UNL     1      -0.018  -2.837  -0.183  0.00  0.00    +0.127 C 
ATOM     11  C   UNL     1       0.003  -3.891   0.931  0.00  0.00    +0.124 C 
ATOM     12  N   UNL     1      -1.253  -4.653   0.881  0.00  0.00    -0.327 N 
ATOM     13  C   UNL     1      -2.527  -3.924   0.948  0.00  0.00    +0.124 C 
ATOM     14  C   UNL     1      -2.548  -2.870  -0.161  0.00  0.00    +0.127 C 
BRANCH   7  20
ATOM     15  C   UNL     1       0.113   1.168   0.662  0.00  0.00    +0.014 A 
ATOM     16  C   UNL     1       1.294   1.875   0.588  0.00  0.00    +0.021 A 
ATOM     17  C   UNL     1       2.323   1.427  -0.224  0.00  0.00    +0.041 A 
ATOM     18  C   UNL     1       2.172   0.268  -0.967  0.00  0.00    +0.021 A 
ATOM     19  C   UNL     1       0.996  -0.448  -0.901  0.00  0.00    +0.014 A 
ATOM     20  C   UNL     1      -0.045  -0.002  -0.084  0.00  0.00    +0.037 A 
ATOM     21 CL   UNL     1       3.808   2.323  -0.312  0.00  0.00    -0.084 Cl
ENDBRANCH   7  20
ENDBRANCH   1  12
BRANCH   4  22
ATOM     22  N   UNL     1      -1.185 -10.205   0.440  0.00  0.00    -0.283 N 
ATOM     23  C   UNL     1      -0.191 -10.914   1.010  0.00  0.00    +0.255 C 
ATOM     24  O   UNL     1       0.637 -10.354   1.697  0.00  0.00    -0.272 OA
ATOM     25  H   UNL     1      -1.888 -10.661  -0.048  0.00  0.00    +0.155 HD
BRANCH  23  26
ATOM     26  C   UNL     1      -0.107 -12.403   0.793  0.00  0.00    +0.324 C 
BRANCH  26  27
ATOM     27  O   UNL     1       1.024 -12.924   1.495  0.00  0.00    -0.483 OA
BRANCH  27  28
ATOM     28  C   UNL     1       1.244 -14.262   1.403  0.00  0.00    +0.121 A 
ATOM     29  C   UNL     1       0.393 -15.056   0.649  0.00  0.00    +0.048 A 
ATOM     30  C   UNL     1       0.620 -16.416   0.556  0.00  0.00    +0.036 A 
ATOM     31  C   UNL     1       1.694 -16.985   1.215  0.00  0.00    +0.126 A 
ATOM     32  C   UNL     1       2.543 -16.195   1.968  0.00  0.00    +0.036 A 
ATOM     33  C   UNL     1       2.324 -14.835   2.059  0.00  0.00    +0.048 A 
BRANCH  31  34
ATOM     34  N   UNL     1       1.934 -18.442   1.115  0.00  0.00    +0.056 N 
ATOM     35  O   UNL     1       1.192 -19.133   0.457  0.00  0.00    -0.126 OA
ATOM     36  O   UNL     1       2.873 -18.941   1.691  0.00  0.00    -0.126 OA
ENDBRANCH  31  34
ENDBRANCH  27  28
ENDBRANCH  26  27
ENDBRANCH  23  26
ENDBRANCH   4  22
TORSDOF 7
