REMARK  Name = ZINC11913201
REMARK  15 active torsions:
REMARK  status: ('A' for Active; 'I' for Inactive)
REMARK    1  A    between atoms: C_1  and  C_2
REMARK    2  A    between atoms: C_2  and  C_3
REMARK    3  A    between atoms: C_3  and  C_4
REMARK    4  A    between atoms: C_4  and  C_19
REMARK    5  A    between atoms: N_7  and  C_11
REMARK    6  A    between atoms: C_11  and  C_12
REMARK    7  A    between atoms: C_12  and  C_13
REMARK    8  A    between atoms: C_24  and  C_25
REMARK    9  A    between atoms: C_24  and  N_75
REMARK   10  A    between atoms: C_25  and  C_27
REMARK   11  A    between atoms: C_25  and  C_28
REMARK   12  A    between atoms: C_28  and  C_29
REMARK   13  A    between atoms: C_29  and  C_30
REMARK   14  A    between atoms: C_31  and  C_32
REMARK   15  A    between atoms: C_31  and  C_33
REMARK                            x       y       z     vdW  Elec       q    Type
REMARK                         _______ _______ _______ _____ _____    ______ ____
ROOT
ATOM      1  C   UNL     1       2.042   0.618   0.073  0.00  0.00    +0.115 C 
ATOM      2  C   UNL     1       0.987   1.705   0.136  0.00  0.00    +0.247 C 
ATOM      3  O   UNL     1       1.170   2.898   0.247  0.00  0.00    -0.273 OA
ATOM      4  N   UNL     1      -0.198   1.068   0.043  0.00  0.00    -0.224 N 
ATOM      5  C   UNL     1      -0.039  -0.256  -0.070  0.00  0.00    +0.309 C 
ATOM      6  O   UNL     1      -0.961  -1.041  -0.169  0.00  0.00    -0.252 OA
ATOM      7  N   UNL     1       1.256  -0.620  -0.062  0.00  0.00    -0.285 N 
ATOM      8  H   UNL     1       1.605  -1.523  -0.131  0.00  0.00    +0.151 HD
ENDROOT
BRANCH   1   9
ATOM      9  C   UNL     1       2.868   0.595   1.360  0.00  0.00    +0.018 C 
ATOM     10  C   UNL     1       3.833  -0.594   1.327  0.00  0.00    -0.013 C 
ATOM     11  C   UNL     1       4.613  -0.648   2.643  0.00  0.00    -0.078 C 
ATOM     12  C   UNL     1       2.769   0.366   3.845  0.00  0.00    -0.078 C 
ATOM     13  C   UNL     1       1.934   0.450   2.565  0.00  0.00    -0.013 C 
ATOM     14  N   UNL     1       3.659  -0.812   3.760  0.00  0.00    +0.380 N 
ATOM     15  H   UNL     1       3.088  -1.649   3.591  0.00  0.00    -0.082 HD
BRANCH  14  16
ATOM     16  C   UNL     1       4.394  -0.981   5.031  0.00  0.00    -0.076 C 
BRANCH  16  17
ATOM     17  C   UNL     1       5.395  -2.128   4.878  0.00  0.00    -0.030 C 
ATOM     18  C   UNL     1       4.644  -3.422   4.558  0.00  0.00    +0.005 C 
BRANCH  17  19
ATOM     19  C   UNL     1       6.176  -2.300   6.183  0.00  0.00    +0.005 C 
BRANCH  19  20
ATOM     20  C   UNL     1       7.261  -3.362   5.991  0.00  0.00    +0.027 C 
BRANCH  20  21
ATOM     21  C   UNL     1       8.030  -3.531   7.276  0.00  0.00    -0.028 C 
ATOM     22  C   UNL     1       8.124  -4.714   7.832  0.00  0.00    -0.080 C 
ATOM     23  C   UNL     1       7.366  -5.881   7.253  0.00  0.00    +0.038 C 
ATOM     24  C   UNL     1       8.990  -4.907   9.050  0.00  0.00    +0.038 C 
ENDBRANCH  20  21
ENDBRANCH  19  20
ENDBRANCH  17  19
ENDBRANCH  16  17
ENDBRANCH  14  16
ENDBRANCH   1   9
BRANCH   1  25
ATOM     25  C   UNL     1       2.949   0.815  -1.143  0.00  0.00    +0.035 C 
BRANCH  25  27
ATOM     26  C   UNL     1       3.002   1.085  -3.627  0.00  0.00    +0.004 C 
ATOM     27  C   UNL     1       2.095   0.888  -2.411  0.00  0.00    -0.001 C 
ENDBRANCH  25  27
ENDBRANCH   1  25
BRANCH   4  28
ATOM     28  C   UNL     1      -1.498   1.743   0.056  0.00  0.00    +0.124 C 
BRANCH  28  29
ATOM     29  C   UNL     1      -2.002   1.850   1.497  0.00  0.00    +0.075 C 
BRANCH  29  30
ATOM     30  C   UNL     1      -3.340   2.544   1.510  0.00  0.00    +0.043 A 
ATOM     31  C   UNL     1      -4.423   1.928   2.109  0.00  0.00    +0.023 A 
ATOM     32  C   UNL     1      -5.649   2.575   2.117  0.00  0.00    +0.003 A 
ATOM     33  C   UNL     1      -5.740   3.823   1.520  0.00  0.00    +0.020 A 
ATOM     34  C   UNL     1      -4.614   4.376   0.940  0.00  0.00    +0.111 A 
ATOM     35  N   UNL     1      -3.462   3.734   0.956  0.00  0.00    -0.260 NA
ENDBRANCH  29  30
ENDBRANCH  28  29
ENDBRANCH   4  28
TORSDOF 11
