REMARK  Name = ZINC67148640
REMARK  6 active torsions:
REMARK  status: ('A' for Active; 'I' for Inactive)
REMARK    1  A    between atoms: C_1  and  C_2
REMARK    2  A    between atoms: C_2  and  C_21
REMARK    3  A    between atoms: C_3  and  C_4
REMARK    4  A    between atoms: N_6  and  N_7
REMARK    5  A    between atoms: C_10  and  C_14
REMARK    6  A    between atoms: C_10  and  C_15
REMARK                            x       y       z     vdW  Elec       q    Type
REMARK                         _______ _______ _______ _____ _____    ______ ____
ROOT
ATOM      1  N   UNL     1       0.082  -4.229   2.314  0.00  0.00    -0.137 N 
ATOM      2  C   UNL     1      -0.984  -5.002   2.603  0.00  0.00    +0.267 C 
ATOM      3  O   UNL     1      -2.097  -4.631   2.908  0.00  0.00    -0.271 OA
ATOM      4  C   UNL     1      -0.501  -6.433   2.468  0.00  0.00    +0.137 C 
ATOM      5  N   UNL     1       0.913  -6.286   2.082  0.00  0.00    -0.280 N 
ATOM      6  C   UNL     1       1.158  -4.965   2.013  0.00  0.00    +0.327 C 
ATOM      7  O   UNL     1       2.237  -4.492   1.713  0.00  0.00    -0.251 OA
ATOM      8  C   UNL     1      -0.620  -7.170   3.803  0.00  0.00    +0.047 C 
ATOM      9  H   UNL     1       1.544  -7.002   1.908  0.00  0.00    +0.152 HD
ENDROOT
BRANCH   4  10
ATOM     10  C   UNL     1      -1.272  -7.153   1.392  0.00  0.00    -0.015 A 
ATOM     11  C   UNL     1      -2.580  -6.796   1.122  0.00  0.00    +0.006 A 
ATOM     12  C   UNL     1      -3.287  -7.457   0.135  0.00  0.00    +0.000 A 
ATOM     13  C   UNL     1      -2.687  -8.475  -0.582  0.00  0.00    +0.000 A 
ATOM     14  C   UNL     1      -1.379  -8.832  -0.312  0.00  0.00    +0.000 A 
ATOM     15  C   UNL     1      -0.670  -8.168   0.672  0.00  0.00    +0.006 A 
ENDBRANCH   4  10
BRANCH   1  18
ATOM     16  C   UNL     1       0.042  -2.148   1.158  0.00  0.00    +0.254 C 
ATOM     17  O   UNL     1       0.040  -2.751   0.101  0.00  0.00    -0.269 OA
ATOM     18  N   UNL     1       0.062  -2.828   2.321  0.00  0.00    -0.220 N 
ATOM     19  H   UNL     1       0.064  -2.348   3.164  0.00  0.00    +0.174 HD
BRANCH  16  22
ATOM     20  C   UNL     1      -0.018   1.503   0.010  0.00  0.00    +0.044 C 
ATOM     21  C   UNL     1       0.002  -0.004   0.002  0.00  0.00    -0.037 C 
ATOM     22  C   UNL     1       0.022  -0.684   1.166  0.00  0.00    +0.072 C 
BRANCH  21  23
ATOM     23  C   UNL     1      -0.000  -0.733  -1.276  0.00  0.00    -0.004 A 
ATOM     24  C   UNL     1      -1.165  -1.364  -1.724  0.00  0.00    +0.009 A 
ATOM     25  C   UNL     1      -1.160  -2.044  -2.923  0.00  0.00    +0.001 A 
ATOM     26  C   UNL     1      -0.005  -2.105  -3.684  0.00  0.00    +0.001 A 
ATOM     27  C   UNL     1       1.153  -1.484  -3.249  0.00  0.00    +0.020 A 
ATOM     28  C   UNL     1       1.162  -0.793  -2.054  0.00  0.00    +0.048 A 
ATOM     29 CL   UNL     1       2.613  -0.009  -1.513  0.00  0.00    -0.083 Cl
ENDBRANCH  21  23
ENDBRANCH  16  22
ENDBRANCH   1  18
TORSDOF 4
