REMARK  Name = ZINC01754471
REMARK  4 active torsions:
REMARK  status: ('A' for Active; 'I' for Inactive)
REMARK    1  A    between atoms: C_1  and  C_2
REMARK    2  A    between atoms: C_2  and  C_25
REMARK    3  A    between atoms: C_5  and  C_8
REMARK    4  A    between atoms: C_13  and  N_14
REMARK                            x       y       z     vdW  Elec       q    Type
REMARK                         _______ _______ _______ _____ _____    ______ ____
ROOT
ATOM      1  C   UNL     1       3.115   3.696   4.034  0.00  0.00    +0.016 C 
ATOM      2  C   UNL     1       3.263   2.991   2.684  0.00  0.00    -0.006 C 
ATOM      3  C   UNL     1       2.597   1.619   2.765  0.00  0.00    +0.057 C 
ATOM      4  C   UNL     1       2.926   0.833   1.494  0.00  0.00    +0.163 C 
ATOM      5  C   UNL     1       2.012   0.980   0.285  0.00  0.00    +0.191 C 
ATOM      6  O   UNL     1       2.049  -0.208   1.080  0.00  0.00    -0.351 OA
ATOM      7  C   UNL     1       4.410   0.668   1.261  0.00  0.00    +0.198 C 
ATOM      8  O   UNL     1       4.873  -0.342   0.776  0.00  0.00    -0.289 OA
ATOM      9  C   UNL     1       5.268   1.807   1.656  0.00  0.00    +0.024 A 
ATOM     10  C   UNL     1       4.724   2.892   2.344  0.00  0.00    -0.031 A 
ATOM     11  C   UNL     1       5.558   3.934   2.716  0.00  0.00    +0.005 A 
ATOM     12  C   UNL     1       6.903   3.904   2.402  0.00  0.00    +0.000 A 
ATOM     13  C   UNL     1       7.440   2.833   1.710  0.00  0.00    +0.001 A 
ATOM     14  C   UNL     1       6.628   1.782   1.336  0.00  0.00    +0.012 A 
ATOM     15  C   UNL     1       2.558   3.821   1.610  0.00  0.00    +0.016 C 
ENDROOT
BRANCH   5  16
ATOM     16  C   UNL     1       0.809   1.878   0.419  0.00  0.00    +0.015 A 
ATOM     17  C   UNL     1      -0.234   1.517   1.250  0.00  0.00    +0.008 A 
ATOM     18  C   UNL     1      -1.340   2.338   1.368  0.00  0.00    +0.000 A 
ATOM     19  C   UNL     1      -1.398   3.525   0.663  0.00  0.00    +0.002 A 
ATOM     20  C   UNL     1      -0.354   3.888  -0.167  0.00  0.00    +0.033 A 
ATOM     21  C   UNL     1       0.750   3.064  -0.290  0.00  0.00    +0.132 A 
BRANCH  21  22
ATOM     22  N   UNL     1       1.868   3.451  -1.179  0.00  0.00    +0.057 N 
ATOM     23  O   UNL     1       1.863   4.541  -1.723  0.00  0.00    -0.126 OA
ATOM     24  O   UNL     1       2.792   2.681  -1.367  0.00  0.00    -0.126 OA
ENDBRANCH  21  22
ENDBRANCH   5  16
TORSDOF 2
