REMARK  Name = ZINC12816932
REMARK  8 active torsions:
REMARK  status: ('A' for Active; 'I' for Inactive)
REMARK    1  A    between atoms: C_1  and  C_2
REMARK    2  A    between atoms: C_6  and  C_14
REMARK    3  A    between atoms: C_12  and  C_13
REMARK    4  A    between atoms: C_14  and  S_15
REMARK    5  A    between atoms: S_15  and  C_16
REMARK    6  A    between atoms: C_17  and  C_25
REMARK    7  A    between atoms: C_19  and  C_23
REMARK    8  A    between atoms: C_20  and  N_22
REMARK                            x       y       z     vdW  Elec       q    Type
REMARK                         _______ _______ _______ _____ _____    ______ ____
ROOT
ATOM      1  C   UNL     1      -2.541  -0.469   0.011  0.00  0.00    +0.112 C 
ENDROOT
BRANCH   1   7
ATOM      2  C   UNL     1       2.454   3.921  -0.000  0.00  0.00    +0.044 C 
ATOM      3  C   UNL     1       1.150   3.166   0.008  0.00  0.00    -0.044 A 
ATOM      4  C   UNL     1       1.160   1.778   0.001  0.00  0.00    +0.004 A 
ATOM      5  C   UNL     1      -0.013   1.076   0.008  0.00  0.00    +0.012 A 
ATOM      6  C   UNL     1      -1.231   1.761   0.017  0.00  0.00    +0.022 A 
ATOM      7  C   UNL     1      -2.506   1.037   0.019  0.00  0.00    -0.020 A 
ATOM      8  C   UNL     1      -3.654   1.761   0.029  0.00  0.00    +0.097 A 
ATOM      9  C   UNL     1      -3.594   3.172   0.036  0.00  0.00    +0.338 A 
ATOM     10  O   UNL     1      -4.631   3.810   0.045  0.00  0.00    -0.245 OA
ATOM     11  O   UNL     1      -2.423   3.827   0.046  0.00  0.00    -0.422 OA
ATOM     12  C   UNL     1      -1.246   3.167   0.032  0.00  0.00    +0.142 A 
ATOM     13  C   UNL     1      -0.042   3.860   0.024  0.00  0.00    -0.005 A 
ATOM     14  C   UNL     1      -0.037   5.367   0.033  0.00  0.00    +0.048 C 
ENDBRANCH   1   7
BRANCH   1  15
ATOM     15  S   UNL     1      -2.546  -1.082   1.714  0.00  0.00    -0.100 S 
BRANCH  15  16
ATOM     16  C   UNL     1      -2.588  -2.818   1.414  0.00  0.00    +0.117 A 
ATOM     17  C   UNL     1      -2.597  -3.713   2.503  0.00  0.00    +0.085 A 
ATOM     18  C   UNL     1      -2.636  -5.086   2.254  0.00  0.00    +0.043 A 
ATOM     19  C   UNL     1      -2.653  -5.518   0.925  0.00  0.00    +0.092 A 
ATOM     20  C   UNL     1      -2.636  -4.560  -0.108  0.00  0.00    +0.135 A 
ATOM     21  N   UNL     1      -2.605  -3.267   0.168  0.00  0.00    -0.224 NA
BRANCH  20  22
ATOM     22  N   UNL     1      -2.652  -4.976  -1.424  0.00  0.00    -0.342 N 
ATOM     23  H   UNL     1      -2.639  -4.234  -2.236  0.00  0.00    +0.144 HD
ATOM     24  H   UNL     1      -2.677  -6.050  -1.661  0.00  0.00    +0.144 HD
ENDBRANCH  20  22
BRANCH  19  25
ATOM     25  C   UNL     1      -2.687  -6.917   0.617  0.00  0.00    +0.103 C 
ATOM     26  N   UNL     1      -2.714  -8.026   0.373  0.00  0.00    -0.191 NA
ENDBRANCH  19  25
BRANCH  17  27
ATOM     27  C   UNL     1      -2.573  -3.220   3.847  0.00  0.00    +0.102 C 
ATOM     28  N   UNL     1      -2.554  -2.829   4.914  0.00  0.00    -0.191 NA
ENDBRANCH  17  27
ENDBRANCH  15  16
ENDBRANCH   1  15
TORSDOF 6
