REMARK  Name = ZINC59435841
REMARK  3 active torsions:
REMARK  status: ('A' for Active; 'I' for Inactive)
REMARK    1  A    between atoms: C_5  and  N_7
REMARK    2  A    between atoms: C_8  and  C_10
REMARK    3  A    between atoms: N_12  and  N_13
REMARK                            x       y       z     vdW  Elec       q    Type
REMARK                         _______ _______ _______ _____ _____    ______ ____
ROOT
ATOM      1  C   UNL     1       0.119  -4.259   0.191  0.00  0.00    +0.318 C 
ATOM      2  O   UNL     1       1.183  -4.846   0.177  0.00  0.00    -0.263 OA
ATOM      3  N   UNL     1      -1.031  -4.952   0.300  0.00  0.00    -0.199 N 
ATOM      4  H   UNL     1      -1.881  -4.484   0.311  0.00  0.00    +0.178 HD
ENDROOT
BRANCH   3   5
ATOM      5  N   UNL     1      -1.001  -6.350   0.397  0.00  0.00    -0.189 NA
ATOM      6  C   UNL     1      -2.094  -7.008   0.501  0.00  0.00    +0.037 C 
ATOM      7  C   UNL     1      -3.422  -6.288   0.513  0.00  0.00    +0.052 C 
ATOM      8  C   UNL     1      -3.680  -5.697  -0.864  0.00  0.00    +0.006 C 
ATOM      9  C   UNL     1      -4.025  -6.833  -1.846  0.00  0.00    +0.000 C 
ATOM     10  C   UNL     1      -2.743  -7.545  -2.264  0.00  0.00    +0.000 C 
ATOM     11  C   UNL     1      -2.725  -8.997  -1.750  0.00  0.00    +0.000 C 
ATOM     12  C   UNL     1      -3.183  -9.053  -0.295  0.00  0.00    +0.006 C 
ATOM     13  C   UNL     1      -2.072  -8.499   0.605  0.00  0.00    +0.052 C 
ENDBRANCH   3   5
BRANCH   1  15
ATOM     14  N   UNL     1       1.238  -2.078  -0.021  0.00  0.00    -0.277 N 
ATOM     15  C   UNL     1       0.087  -2.771   0.088  0.00  0.00    +0.305 C 
ATOM     16  O   UNL     1      -0.976  -2.185   0.101  0.00  0.00    -0.265 OA
ATOM     17  H   UNL     1       2.081  -2.549  -0.113  0.00  0.00    +0.155 HD
BRANCH  14  22
ATOM     18  C   UNL     1       0.153   1.372   0.637  0.00  0.00    +0.002 A 
ATOM     19  C   UNL     1       1.173   2.086   0.035  0.00  0.00    +0.001 A 
ATOM     20  C   UNL     1       2.215   1.421  -0.586  0.00  0.00    +0.017 A 
ATOM     21  C   UNL     1       2.240   0.040  -0.606  0.00  0.00    +0.039 A 
ATOM     22  C   UNL     1       1.216  -0.681  -0.002  0.00  0.00    +0.048 A 
ATOM     23  C   UNL     1       0.172  -0.009   0.620  0.00  0.00    +0.024 A 
ATOM     24 BR   UNL     1       3.664  -0.869  -1.456  0.00  0.00    -0.048 Br
ENDBRANCH  14  22
ENDBRANCH   1  15
TORSDOF 3
