REMARK  Name = ZINC48685791
REMARK  6 active torsions:
REMARK  status: ('A' for Active; 'I' for Inactive)
REMARK    1  A    between atoms: C_1  and  C_2
REMARK    2  A    between atoms: C_5  and  C_7
REMARK    3  A    between atoms: C_7  and  N_8
REMARK    4  A    between atoms: N_11  and  C_12
REMARK    5  A    between atoms: N_11  and  C_13
REMARK    6  A    between atoms: C_13  and  C_14
REMARK                            x       y       z     vdW  Elec       q    Type
REMARK                         _______ _______ _______ _____ _____    ______ ____
ROOT
ATOM      1  N   UNL     1      -1.320  -3.281   2.671  0.00  0.00    -0.293 N 
ATOM      2  C   UNL     1      -1.549  -4.116   3.703  0.00  0.00    +0.303 C 
ATOM      3  O   UNL     1      -0.615  -4.599   4.314  0.00  0.00    -0.253 OA
ATOM      4  N   UNL     1      -2.814  -4.416   4.059  0.00  0.00    -0.284 N 
ATOM      5  C   UNL     1      -3.940  -3.835   3.323  0.00  0.00    +0.134 C 
ATOM      6  H   UNL     1      -2.065  -2.896   2.183  0.00  0.00    +0.151 HD
ENDROOT
BRANCH   1   7
ATOM      7  C   UNL     1       0.055  -2.955   2.284  0.00  0.00    +0.168 C 
BRANCH   7  12
ATOM      8  C   UNL     1      -0.018   1.503   0.010  0.00  0.00    +0.066 C 
ATOM      9  C   UNL     1       0.002  -0.004   0.002  0.00  0.00    +0.046 A 
ATOM     10  C   UNL     1       0.006  -0.708  -1.159  0.00  0.00    +0.070 A 
ATOM     11  S   UNL     1       0.032  -2.379  -0.531  0.00  0.00    -0.079 S 
ATOM     12  C   UNL     1       0.036  -2.009   1.111  0.00  0.00    +0.096 A 
ATOM     13  N   UNL     1       0.023  -0.699   1.122  0.00  0.00    -0.248 NA
ENDBRANCH   7  12
ENDBRANCH   1   7
BRANCH   4  14
ATOM     14  C   UNL     1      -3.063  -5.324   5.181  0.00  0.00    +0.151 C 
BRANCH  14  15
ATOM     15  C   UNL     1      -3.160  -4.530   6.458  0.00  0.00    +0.008 A 
ATOM     16  C   UNL     1      -4.254  -3.979   7.039  0.00  0.00    +0.014 A 
ATOM     17  C   UNL     1      -4.104  -3.284   8.225  0.00  0.00    +0.023 A 
ATOM     18  C   UNL     1      -2.868  -3.175   8.772  0.00  0.00    +0.055 A 
ATOM     19  S   UNL     1      -1.866  -4.077   7.601  0.00  0.00    -0.085 S 
ATOM     20 BR   UNL     1      -2.342  -2.300  10.364  0.00  0.00    -0.043 Br
ENDBRANCH  14  15
ENDBRANCH   4  14
TORSDOF 4
