REMARK  Name = ZINC14705254
REMARK  6 active torsions:
REMARK  status: ('A' for Active; 'I' for Inactive)
REMARK    1  A    between atoms: C_1  and  C_2
REMARK    2  A    between atoms: N_10  and  N_14
REMARK    3  A    between atoms: C_15  and  C_17
REMARK    4  A    between atoms: C_17  and  N_58
REMARK    5  A    between atoms: C_18  and  N_58
REMARK    6  A    between atoms: C_19  and  N_58
REMARK                            x       y       z     vdW  Elec       q    Type
REMARK                         _______ _______ _______ _____ _____    ______ ____
ROOT
ATOM      1  N   UNL     1      -0.379   0.941   2.441  0.00  0.00    -0.225 N 
ATOM      2  C   UNL     1      -0.788   1.397   1.241  0.00  0.00    +0.213 C 
ATOM      3  O   UNL     1      -1.713   2.178   1.172  0.00  0.00    -0.276 OA
ATOM      4  H   UNL     1       0.361   0.316   2.496  0.00  0.00    +0.173 HD
ENDROOT
BRANCH   1  14
ATOM      5  C   UNL     1      -4.279   2.847   9.085  0.00  0.00    +0.007 C 
ATOM      6  C   UNL     1      -3.854   1.952   7.920  0.00  0.00    -0.014 C 
ATOM      7  C   UNL     1      -4.239   2.619   6.597  0.00  0.00    +0.006 C 
ATOM      8  C   UNL     1      -3.823   1.717   5.432  0.00  0.00    +0.035 C 
ATOM      9  C   UNL     1      -2.318   1.480   5.481  0.00  0.00    +0.114 C 
ATOM     10  C   UNL     1      -1.915   0.838   6.805  0.00  0.00    +0.035 C 
ATOM     11  C   UNL     1      -2.338   1.743   7.964  0.00  0.00    +0.006 C 
ATOM     12  C   UNL     1      -1.883   0.613   4.322  0.00  0.00    +0.263 C 
ATOM     13  O   UNL     1      -2.234  -0.523   4.083  0.00  0.00    -0.271 OA
ATOM     14  N   UNL     1      -1.023   1.369   3.610  0.00  0.00    -0.137 N 
ATOM     15  C   UNL     1      -0.855   2.578   4.161  0.00  0.00    +0.326 C 
ATOM     16  O   UNL     1      -0.124   3.434   3.704  0.00  0.00    -0.251 OA
ATOM     17  N   UNL     1      -1.591   2.739   5.277  0.00  0.00    -0.284 N 
ATOM     18  H   UNL     1      -1.629   3.529   5.838  0.00  0.00    +0.151 HD
ENDBRANCH   1  14
BRANCH   2  19
ATOM     19  C   UNL     1      -0.096   0.936  -0.016  0.00  0.00    +0.020 C 
BRANCH  19  21
ATOM     20  C   UNL     1      -2.050   0.999  -1.444  0.00  0.00    -0.095 C 
ATOM     21  N   UNL     1      -0.727   1.600  -1.176  0.00  0.00    +0.385 N 
ATOM     22  H   UNL     1      -0.850   2.597  -0.964  0.00  0.00    -0.081 HD
BRANCH  21  23
ATOM     23  C   UNL     1       0.139   1.467  -2.367  0.00  0.00    -0.068 C 
ATOM     24  C   UNL     1      -0.416   2.389  -3.472  0.00  0.00    -0.015 C 
ATOM     25  C   UNL     1       0.689   2.680  -4.451  0.00  0.00    -0.002 C 
ATOM     26  C   UNL     1       0.682   1.714  -5.652  0.00  0.00    -0.000 C 
ATOM     27  C   UNL     1       0.406   0.255  -5.243  0.00  0.00    -0.000 C 
ATOM     28  C   UNL     1       1.138  -0.140  -3.988  0.00  0.00    -0.002 C 
ATOM     29  C   UNL     1       0.197   0.074  -2.785  0.00  0.00    -0.015 C 
ENDBRANCH  21  23
ENDBRANCH  19  21
ENDBRANCH   2  19
TORSDOF 4
