REMARK  Name = ZINC04760367
REMARK  13 active torsions:
REMARK  status: ('A' for Active; 'I' for Inactive)
REMARK    1  A    between atoms: C_1  and  C_2
REMARK    2  A    between atoms: C_2  and  C_3
REMARK    3  A    between atoms: C_5  and  N_23
REMARK    4  A    between atoms: C_6  and  N_10
REMARK    5  A    between atoms: N_10  and  C_11
REMARK    6  A    between atoms: C_11  and  C_12
REMARK    7  A    between atoms: C_12  and  C_14
REMARK    8  A    between atoms: C_12  and  O_22
REMARK    9  A    between atoms: C_14  and  C_16
REMARK   10  A    between atoms: C_14  and  O_21
REMARK   11  A    between atoms: C_16  and  C_18
REMARK   12  A    between atoms: C_16  and  O_20
REMARK   13  A    between atoms: C_18  and  O_19
REMARK                            x       y       z     vdW  Elec       q    Type
REMARK                         _______ _______ _______ _____ _____    ______ ____
ROOT
ATOM      1  N   UNL     1       0.777  -0.437   3.685  0.00  0.00    -0.339 N 
ATOM      2  H   UNL     1       1.535  -1.034   3.586  0.00  0.00    +0.146 HD
ENDROOT
BRANCH   1   6
ATOM      3  C   UNL     1      -0.386   0.835   7.476  0.00  0.00    -0.031 A 
ATOM      4  C   UNL     1       0.621  -0.103   7.342  0.00  0.00    +0.039 A 
ATOM      5  C   UNL     1       1.009  -0.527   6.086  0.00  0.00    +0.147 A 
ATOM      6  C   UNL     1       0.386  -0.010   4.957  0.00  0.00    +0.059 A 
ATOM      7  C   UNL     1      -0.621   0.936   5.094  0.00  0.00    +0.040 A 
ATOM      8  C   UNL     1      -1.008   1.352   6.354  0.00  0.00    +0.023 A 
ATOM      9 BR   UNL     1      -2.384   2.635   6.544  0.00  0.00    -0.050 Br
BRANCH   5  10
ATOM     10  N   UNL     1       2.087  -1.532   5.943  0.00  0.00    +0.058 N 
ATOM     11  O   UNL     1       2.555  -2.067   6.932  0.00  0.00    -0.126 OA
ATOM     12  O   UNL     1       2.505  -1.823   4.837  0.00  0.00    -0.126 OA
ENDBRANCH   5  10
BRANCH   3  14
ATOM     13  C   UNL     1      -0.155   2.645   9.156  0.00  0.00    +0.009 C 
ATOM     14  C   UNL     1      -0.806   1.295   8.848  0.00  0.00    +0.033 C 
ENDBRANCH   3  14
ENDBRANCH   1   6
BRANCH   1  15
ATOM     15  C   UNL     1       0.042   0.018   2.502  0.00  0.00    +0.135 C 
BRANCH  15  16
ATOM     16  C   UNL     1       0.669  -0.591   1.247  0.00  0.00    +0.162 C 
BRANCH  16  17
ATOM     17  O   UNL     1       2.034  -0.177   1.148  0.00  0.00    -0.388 OA
ATOM     18  H   UNL     1       2.151   0.781   1.090  0.00  0.00    +0.210 HD
ENDBRANCH  16  17
BRANCH  16  19
ATOM     19  C   UNL     1      -0.098  -0.116   0.011  0.00  0.00    +0.175 C 
BRANCH  19  20
ATOM     20  O   UNL     1      -0.136   1.312  -0.006  0.00  0.00    -0.387 OA
ATOM     21  H   UNL     1       0.736   1.729  -0.035  0.00  0.00    +0.210 HD
ENDBRANCH  19  20
BRANCH  19  22
ATOM     22  C   UNL     1       0.603  -0.623  -1.251  0.00  0.00    +0.171 C 
BRANCH  22  23
ATOM     23  O   UNL     1       1.970  -0.208  -1.235  0.00  0.00    -0.387 OA
ATOM     24  H   UNL     1       2.090   0.751  -1.208  0.00  0.00    +0.210 HD
ENDBRANCH  22  23
BRANCH  22  25
ATOM     25  C   UNL     1      -0.091  -0.046  -2.486  0.00  0.00    +0.189 C 
BRANCH  25  26
ATOM     26  O   UNL     1       0.488  -0.610  -3.665  0.00  0.00    -0.392 OA
ATOM     27  H   UNL     1       0.096  -0.288  -4.488  0.00  0.00    +0.210 HD
ENDBRANCH  25  26
ENDBRANCH  22  25
ENDBRANCH  19  22
ENDBRANCH  16  19
ENDBRANCH  15  16
ENDBRANCH   1  15
TORSDOF 12
