REMARK  Name = ZINC25004168
REMARK  7 active torsions:
REMARK  status: ('A' for Active; 'I' for Inactive)
REMARK    1  A    between atoms: C_1  and  C_2
REMARK    2  A    between atoms: C_2  and  C_3
REMARK    3  A    between atoms: C_2  and  C_4
REMARK    4  A    between atoms: C_4  and  N_5
REMARK    5  A    between atoms: N_5  and  C_6
REMARK    6  A    between atoms: N_5  and  C_24
REMARK    7  A    between atoms: C_6  and  N_7
REMARK                            x       y       z     vdW  Elec       q    Type
REMARK                         _______ _______ _______ _____ _____    ______ ____
ROOT
ATOM      1  N   UNL     1       1.015  -3.781   1.426  0.00  0.00    -0.210 N 
ATOM      2  C   UNL     1       0.062  -3.721   2.393  0.00  0.00    +0.252 C 
ATOM      3  O   UNL     1      -0.897  -2.985   2.350  0.00  0.00    -0.272 OA
ATOM      4  C   UNL     1       0.477  -4.735   3.409  0.00  0.00    +0.138 C 
ATOM      5  C   UNL     1      -0.602  -5.726   3.811  0.00  0.00    +0.040 C 
ATOM      6  C   UNL     1      -1.980  -5.101   3.811  0.00  0.00    +0.003 C 
ATOM      7  C   UNL     1      -2.216  -4.236   5.040  0.00  0.00    +0.005 C 
ATOM      8  C   UNL     1      -1.360  -2.978   5.034  0.00  0.00    +0.035 C 
ATOM      9  C   UNL     1       0.071  -3.268   5.423  0.00  0.00    -0.042 A 
ATOM     10  C   UNL     1       0.923  -4.043   4.689  0.00  0.00    -0.012 A 
ATOM     11  C   UNL     1       2.237  -4.227   5.095  0.00  0.00    +0.006 A 
ATOM     12  C   UNL     1       2.690  -3.638   6.260  0.00  0.00    +0.000 A 
ATOM     13  C   UNL     1       1.826  -2.876   7.022  0.00  0.00    +0.000 A 
ATOM     14  C   UNL     1       0.523  -2.691   6.609  0.00  0.00    +0.004 A 
ATOM     15  N   UNL     1       1.621  -5.426   2.802  0.00  0.00    -0.281 N 
ATOM     16  C   UNL     1       1.890  -4.766   1.659  0.00  0.00    +0.311 C 
ATOM     17  O   UNL     1       2.820  -5.035   0.924  0.00  0.00    -0.252 OA
ATOM     18  H   UNL     1       2.065  -6.300   3.302  0.00  0.00    +0.152 HD
ENDROOT
BRANCH   1  19
ATOM     19  C   UNL     1       1.057  -2.888   0.268  0.00  0.00    +0.205 C 
BRANCH  19  20
ATOM     20  N   UNL     1       1.864  -1.703   0.592  0.00  0.00    -0.282 NA
BRANCH  20  21
ATOM     21  C   UNL     1       3.255  -2.077   0.880  0.00  0.00    +0.081 C 
ATOM     22  C   UNL     1       4.022  -0.842   1.382  0.00  0.00    +0.043 C 
ATOM     23  C   UNL     1       5.540  -1.180   1.377  0.00  0.00    +0.167 C 
ATOM     24  S   UNL     1       5.673  -2.112  -0.206  0.00  0.00    -0.029 S 
ATOM     25  O   UNL     1       6.469  -3.270   0.004  0.00  0.00    -0.174 OA
ATOM     26  O   UNL     1       6.015  -1.208  -1.248  0.00  0.00    -0.174 OA
ATOM     27  C   UNL     1       3.918  -2.621  -0.409  0.00  0.00    +0.184 C 
ENDBRANCH  20  21
BRANCH  20  28
ATOM     28  C   UNL     1       1.277  -0.957   1.713  0.00  0.00    +0.089 C 
BRANCH  28  30
ATOM     29  C   UNL     1      -0.672   0.428   2.439  0.00  0.00    +0.008 C 
ATOM     30  C   UNL     1      -0.001  -0.258   1.247  0.00  0.00    -0.003 C 
ATOM     31  C   UNL     1       0.348   0.789   0.187  0.00  0.00    +0.008 C 
ENDBRANCH  28  30
ENDBRANCH  20  28
ENDBRANCH  19  20
ENDBRANCH   1  19
TORSDOF 5
