REMARK  Name = ZINC43577142
REMARK  4 active torsions:
REMARK  status: ('A' for Active; 'I' for Inactive)
REMARK    1  A    between atoms: C_6  and  C_7
REMARK    2  A    between atoms: C_7  and  C_9
REMARK    3  A    between atoms: C_7  and  C_11
REMARK    4  A    between atoms: C_11  and  C_13
REMARK                            x       y       z     vdW  Elec       q    Type
REMARK                         _______ _______ _______ _____ _____    ______ ____
ROOT
ATOM      1  C   UNL     1      -1.293  -0.775   0.011  0.00  0.00    +0.192 C 
ENDROOT
BRANCH   1   7
ATOM      2  C   UNL     1      -0.017   1.378   0.010  0.00  0.00    +0.007 A 
ATOM      3  C   UNL     1       1.171   2.086   0.002  0.00  0.00    +0.020 A 
ATOM      4  C   UNL     1       2.378   1.410  -0.013  0.00  0.00    +0.041 A 
ATOM      5  C   UNL     1       2.396   0.027  -0.021  0.00  0.00    +0.020 A 
ATOM      6  C   UNL     1       1.208  -0.679  -0.013  0.00  0.00    +0.007 A 
ATOM      7  C   UNL     1       0.002  -0.004   0.002  0.00  0.00    -0.023 A 
ATOM      8 CL   UNL     1       3.870   2.298  -0.023  0.00  0.00    -0.084 Cl
ENDBRANCH   1   7
BRANCH   1   9
ATOM      9  C   UNL     1      -1.371  -1.616  -1.195  0.00  0.00    +0.079 C 
ATOM     10  N   UNL     1      -1.432  -2.265  -2.126  0.00  0.00    -0.195 NA
ENDBRANCH   1   9
BRANCH   1  11
ATOM     11  C   UNL     1      -1.349  -1.649   1.237  0.00  0.00    +0.184 C 
ATOM     12  O   UNL     1      -0.322  -2.008   1.773  0.00  0.00    -0.290 OA
BRANCH  11  13
ATOM     13  C   UNL     1      -2.649  -2.066   1.784  0.00  0.00    +0.022 A 
ATOM     14  C   UNL     1      -3.836  -1.658   1.165  0.00  0.00    +0.012 A 
ATOM     15  C   UNL     1      -5.051  -2.052   1.683  0.00  0.00    +0.019 A 
ATOM     16  C   UNL     1      -5.101  -2.850   2.813  0.00  0.00    +0.053 A 
ATOM     17  C   UNL     1      -3.929  -3.260   3.433  0.00  0.00    +0.138 A 
ATOM     18  C   UNL     1      -2.705  -2.877   2.922  0.00  0.00    +0.051 A 
ATOM     19  F   UNL     1      -3.986  -4.038   4.536  0.00  0.00    -0.204 F 
ATOM     20 BR   UNL     1      -6.773  -3.385   3.515  0.00  0.00    -0.047 Br
ENDBRANCH  11  13
ENDBRANCH   1  11
TORSDOF 4
