REMARK  Name = ZINC62712158
REMARK  6 active torsions:
REMARK  status: ('A' for Active; 'I' for Inactive)
REMARK    1  A    between atoms: C_1  and  C_2
REMARK    2  A    between atoms: C_2  and  C_3
REMARK    3  A    between atoms: C_2  and  C_4
REMARK    4  A    between atoms: C_2  and  C_5
REMARK    5  A    between atoms: C_11  and  C_16
REMARK    6  A    between atoms: C_11  and  N_18
REMARK                            x       y       z     vdW  Elec       q    Type
REMARK                         _______ _______ _______ _____ _____    ______ ____
ROOT
ATOM      1  C   UNL     1       0.684   0.227  -1.316  0.00  0.00    -0.041 A 
ATOM      2  C   UNL     1      -0.101  -0.515  -2.179  0.00  0.00    +0.008 A 
ATOM      3  C   UNL     1       0.477  -1.155  -3.256  0.00  0.00    +0.046 A 
ATOM      4  C   UNL     1       1.848  -1.056  -3.475  0.00  0.00    +0.126 A 
ATOM      5  C   UNL     1       2.633  -0.317  -2.611  0.00  0.00    +0.029 A 
ATOM      6  C   UNL     1       2.043   0.331  -1.535  0.00  0.00    +0.014 A 
ATOM      7  C   UNL     1       4.122  -0.185  -2.792  0.00  0.00    +0.138 C 
ATOM      8  C   UNL     1       4.699  -1.424  -3.477  0.00  0.00    +0.046 C 
ATOM      9  C   UNL     1       4.678  -1.205  -4.996  0.00  0.00    +0.044 C 
ATOM     10  C   UNL     1       3.227  -0.950  -5.421  0.00  0.00    +0.229 C 
ATOM     11  O   UNL     1       2.375  -1.698  -4.549  0.00  0.00    -0.492 OA
ENDROOT
BRANCH   7  12
ATOM     12  N   UNL     1       4.756  -0.021  -1.477  0.00  0.00    -0.281 NA
ATOM     13  C   UNL     1       4.658  -1.271  -0.679  0.00  0.00    +0.086 C 
ATOM     14  C   UNL     1       5.780  -1.106   0.377  0.00  0.00    +0.017 C 
ATOM     15  C   UNL     1       6.908  -0.413  -0.421  0.00  0.00    +0.017 C 
ATOM     16  C   UNL     1       6.203   0.255  -1.616  0.00  0.00    +0.086 C 
ENDBRANCH   7  12
BRANCH   1  18
ATOM     17  C   UNL     1       0.298   2.435  -0.255  0.00  0.00    +0.015 C 
ATOM     18  C   UNL     1       0.055   0.929  -0.140  0.00  0.00    -0.013 C 
ATOM     19  C   UNL     1       0.679   0.410   1.157  0.00  0.00    +0.015 C 
ATOM     20  C   UNL     1      -1.450   0.654  -0.127  0.00  0.00    +0.015 C 
ENDBRANCH   1  18
BRANCH   7  21
ATOM     21  C   UNL     1       4.407   1.000  -3.616  0.00  0.00    +0.090 C 
ATOM     22  N   UNL     1       4.627   1.915  -4.253  0.00  0.00    -0.194 NA
ENDBRANCH   7  21
TORSDOF 3
