REMARK  Name = ZINC27352508
REMARK  10 active torsions:
REMARK  status: ('A' for Active; 'I' for Inactive)
REMARK    1  A    between atoms: C_1  and  N_2
REMARK    2  A    between atoms: N_2  and  C_3
REMARK    3  A    between atoms: N_2  and  C_13
REMARK    4  A    between atoms: C_3  and  C_4
REMARK    5  A    between atoms: C_4  and  O_5
REMARK    6  A    between atoms: O_5  and  C_6
REMARK    7  A    between atoms: C_13  and  C_14
REMARK    8  A    between atoms: C_14  and  C_16
REMARK    9  A    between atoms: C_17  and  N_28
REMARK   10  A    between atoms: N_18  and  C_25
REMARK                            x       y       z     vdW  Elec       q    Type
REMARK                         _______ _______ _______ _____ _____    ______ ____
ROOT
ATOM      1  C   UNL     1      -1.482   0.227  -1.451  0.00  0.00    +0.185 C 
ATOM      2  O   UNL     1      -0.834   0.782  -2.316  0.00  0.00    -0.290 OA
ENDROOT
BRANCH   1   3
ATOM      3  C   UNL     1      -2.849  -0.054  -1.665  0.00  0.00    +0.121 A 
ATOM      4  C   UNL     1      -3.512   0.404  -2.816  0.00  0.00    +0.116 A 
ATOM      5  N   UNL     1      -4.835   0.107  -2.979  0.00  0.00    -0.278 N 
ATOM      6  C   UNL     1      -5.506  -0.610  -2.064  0.00  0.00    +0.331 A 
ATOM      7  O   UNL     1      -6.683  -0.848  -2.255  0.00  0.00    -0.246 OA
ATOM      8  N   UNL     1      -4.926  -1.074  -0.945  0.00  0.00    -0.274 N 
ATOM      9  H   UNL     1      -5.451  -1.588  -0.311  0.00  0.00    +0.173 HD
ATOM     10  C   UNL     1      -3.622  -0.839  -0.694  0.00  0.00    +0.266 A 
ATOM     11  O   UNL     1      -3.097  -1.266   0.318  0.00  0.00    -0.267 OA
BRANCH   5  12
ATOM     12  C   UNL     1      -5.536   0.579  -4.176  0.00  0.00    +0.094 C 
ATOM     13  C   UNL     1      -6.403  -0.429  -4.931  0.00  0.00    +0.027 C 
ATOM     14  C   UNL     1      -5.072   0.033  -5.527  0.00  0.00    +0.027 C 
ENDBRANCH   5  12
BRANCH   4  15
ATOM     15  N   UNL     1      -2.847   1.133  -3.754  0.00  0.00    -0.344 N 
ATOM     16  H   UNL     1      -1.886   1.246  -3.688  0.00  0.00    +0.144 HD
ATOM     17  H   UNL     1      -3.334   1.539  -4.487  0.00  0.00    +0.144 HD
ENDBRANCH   4  15
ENDBRANCH   1   3
BRANCH   1  18
ATOM     18  C   UNL     1      -0.828  -0.161  -0.151  0.00  0.00    +0.164 C 
BRANCH  18  20
ATOM     19  C   UNL     1       0.721   1.700  -0.213  0.00  0.00    +0.105 C 
ATOM     20  N   UNL     1       0.586   0.237  -0.176  0.00  0.00    -0.295 NA
BRANCH  20  21
ATOM     21  C   UNL     1       1.314  -0.330   0.967  0.00  0.00    +0.125 C 
BRANCH  21  22
ATOM     22  C   UNL     1       1.509  -1.833   0.752  0.00  0.00    +0.244 C 
BRANCH  22  23
ATOM     23  O   UNL     1       2.341  -2.047  -0.389  0.00  0.00    -0.491 OA
BRANCH  23  24
ATOM     24  C   UNL     1       2.615  -3.336  -0.720  0.00  0.00    +0.121 A 
ATOM     25  C   UNL     1       2.088  -4.374   0.035  0.00  0.00    +0.047 A 
ATOM     26  C   UNL     1       2.368  -5.684  -0.302  0.00  0.00    +0.023 A 
ATOM     27  C   UNL     1       3.173  -5.962  -1.393  0.00  0.00    +0.041 A 
ATOM     28  C   UNL     1       3.700  -4.928  -2.147  0.00  0.00    +0.023 A 
ATOM     29  C   UNL     1       3.417  -3.617  -1.816  0.00  0.00    +0.047 A 
ATOM     30 CL   UNL     1       3.523  -7.609  -1.815  0.00  0.00    -0.084 Cl
ENDBRANCH  23  24
ENDBRANCH  22  23
ENDBRANCH  21  22
ENDBRANCH  20  21
ENDBRANCH  18  20
ENDBRANCH   1  18
TORSDOF 9
