REMARK  Name = ZINC33271420
REMARK  5 active torsions:
REMARK  status: ('A' for Active; 'I' for Inactive)
REMARK    1  A    between atoms: C_1  and  C_2
REMARK    2  A    between atoms: C_13  and  C_16
REMARK    3  A    between atoms: C_21  and  C_23
REMARK    4  A    between atoms: C_26  and  O_30
REMARK    5  A    between atoms: O_30  and  C_31
REMARK                            x       y       z     vdW  Elec       q    Type
REMARK                         _______ _______ _______ _____ _____    ______ ____
ROOT
ATOM      1  C   UNL     1      -2.544   5.271  -2.864  0.00  0.00    +0.068 C 
ATOM      2  C   UNL     1      -3.367   4.083  -2.434  0.00  0.00    +0.066 A 
ATOM      3  C   UNL     1      -3.356   3.500  -1.175  0.00  0.00    +0.023 A 
ATOM      4  C   UNL     1      -4.242   2.456  -1.185  0.00  0.00    +0.134 A 
ATOM      5  N   UNL     1      -4.779   2.389  -2.421  0.00  0.00    -0.198 N 
ATOM      6  N   UNL     1      -4.217   3.424  -3.186  0.00  0.00    -0.168 NA
ATOM      7  C   UNL     1      -5.725   1.458  -2.861  0.00  0.00    +0.176 A 
ATOM      8  C   UNL     1      -6.574   1.785  -3.935  0.00  0.00    +0.054 A 
ATOM      9  C   UNL     1      -7.499   0.888  -4.371  0.00  0.00    +0.054 A 
ATOM     10  C   UNL     1      -7.591  -0.364  -3.735  0.00  0.00    +0.178 A 
ATOM     11  N   UNL     1      -8.360  -1.427  -3.912  0.00  0.00    -0.128 NA
ATOM     12  N   UNL     1      -8.040  -2.330  -3.052  0.00  0.00    -0.132 NA
ATOM     13  C   UNL     1      -7.064  -1.902  -2.289  0.00  0.00    +0.152 A 
ATOM     14  N   UNL     1      -6.748  -0.652  -2.690  0.00  0.00    -0.195 N 
ATOM     15  N   UNL     1      -5.806   0.290  -2.271  0.00  0.00    -0.144 NA
ATOM     16  C   UNL     1      -6.413  -2.667  -1.165  0.00  0.00    +0.090 C 
ATOM     17  N   UNL     1      -4.476   1.677  -0.053  0.00  0.00    -0.270 N 
ATOM     18  C   UNL     1      -3.962   2.095   1.123  0.00  0.00    +0.219 C 
ATOM     19  O   UNL     1      -3.990   1.345   2.076  0.00  0.00    -0.275 OA
ATOM     20  C   UNL     1      -3.356   3.460   1.289  0.00  0.00    +0.109 C 
ATOM     21  C   UNL     1      -2.554   3.866   0.048  0.00  0.00    +0.063 C 
ATOM     22  H   UNL     1      -5.066   0.752  -0.134  0.00  0.00    +0.156 HD
ENDROOT
BRANCH  21  23
ATOM     23  C   UNL     1      -1.238   3.133   0.031  0.00  0.00    -0.038 A 
ATOM     24  C   UNL     1      -1.218   1.751   0.017  0.00  0.00    +0.008 A 
ATOM     25  C   UNL     1      -0.013   1.076   0.008  0.00  0.00    +0.047 A 
ATOM     26  C   UNL     1       1.179   1.786   0.000  0.00  0.00    +0.134 A 
ATOM     27  C   UNL     1       1.157   3.174   0.008  0.00  0.00    +0.060 A 
ATOM     28  C   UNL     1      -0.052   3.844   0.023  0.00  0.00    +0.023 A 
ATOM     29 BR   UNL     1       2.778   4.147  -0.003  0.00  0.00    -0.047 Br
BRANCH  26  30
ATOM     30  O   UNL     1       2.366   1.124  -0.015  0.00  0.00    -0.494 OA
ATOM     31  C   UNL     1       2.313  -0.304  -0.023  0.00  0.00    +0.277 C 
ENDBRANCH  26  30
ENDBRANCH  21  23
TORSDOF 2
