REMARK  Name = ZINC15858731
REMARK  9 active torsions:
REMARK  status: ('A' for Active; 'I' for Inactive)
REMARK    1  A    between atoms: C_1  and  C_2
REMARK    2  A    between atoms: C_3  and  C_27
REMARK    3  A    between atoms: C_8  and  O_26
REMARK    4  A    between atoms: C_9  and  C_13
REMARK    5  A    between atoms: C_10  and  C_12
REMARK    6  A    between atoms: C_13  and  C_14
REMARK    7  A    between atoms: N_16  and  C_17
REMARK    8  A    between atoms: C_21  and  C_23
REMARK    9  A    between atoms: C_23  and  C_25
REMARK                            x       y       z     vdW  Elec       q    Type
REMARK                         _______ _______ _______ _____ _____    ______ ____
ROOT
ATOM      1  C   UNL     1       7.063   4.876  -4.871  0.00  0.00    +0.066 C 
ATOM      2  C   UNL     1       6.942   4.916  -3.369  0.00  0.00    +0.051 A 
ATOM      3  C   UNL     1       7.728   5.739  -2.631  0.00  0.00    +0.011 A 
ATOM      4  S   UNL     1       7.149   5.360  -0.984  0.00  0.00    -0.053 S 
ATOM      5  C   UNL     1       5.956   4.180  -1.430  0.00  0.00    +0.197 A 
ATOM      6  N   UNL     1       6.074   4.148  -2.743  0.00  0.00    -0.226 NA
ATOM      7  N   UNL     1       5.097   3.450  -0.610  0.00  0.00    -0.175 N 
ATOM      8  C   UNL     1       4.183   2.530  -1.023  0.00  0.00    +0.221 A 
ATOM      9  C   UNL     1       3.554   2.055   0.084  0.00  0.00    +0.045 A 
ATOM     10  C   UNL     1       4.104   2.694   1.199  0.00  0.00    +0.068 A 
ATOM     11  N   UNL     1       5.026   3.526   0.787  0.00  0.00    -0.166 NA
ATOM     12  C   UNL     1       3.704   2.463   2.634  0.00  0.00    +0.068 C 
ATOM     13  C   UNL     1       8.794   6.706  -3.078  0.00  0.00    +0.053 C 
ENDROOT
BRANCH   8  14
ATOM     14  O   UNL     1       3.942   2.158  -2.306  0.00  0.00    -0.492 OA
ATOM     15  H   UNL     1       3.265   2.688  -2.749  0.00  0.00    +0.294 HD
ENDBRANCH   8  14
BRANCH   9  16
ATOM     16  C   UNL     1       2.460   1.018   0.106  0.00  0.00    +0.138 C 
BRANCH  16  17
ATOM     17  C   UNL     1       1.120   1.699   0.006  0.00  0.00    +0.222 C 
ATOM     18  O   UNL     1       1.058   2.908  -0.074  0.00  0.00    -0.275 OA
ATOM     19  N   UNL     1      -0.011   0.966   0.007  0.00  0.00    -0.285 N 
ATOM     20  H   UNL     1       0.039  -0.003   0.004  0.00  0.00    +0.155 HD
BRANCH  19  21
ATOM     21  C   UNL     1      -1.258   1.602   0.007  0.00  0.00    +0.034 A 
ATOM     22  C   UNL     1      -2.326   1.038   0.695  0.00  0.00    +0.023 A 
ATOM     23  C   UNL     1      -3.559   1.663   0.703  0.00  0.00    +0.002 A 
ATOM     24  C   UNL     1      -3.742   2.847   0.018  0.00  0.00    +0.011 A 
ATOM     25  C   UNL     1      -2.676   3.421  -0.682  0.00  0.00    +0.019 A 
ATOM     26  C   UNL     1      -1.429   2.790  -0.684  0.00  0.00    +0.034 A 
BRANCH  25  27
ATOM     27  C   UNL     1      -2.867   4.684  -1.414  0.00  0.00    +0.160 C 
ATOM     28  O   UNL     1      -1.941   5.179  -2.020  0.00  0.00    -0.292 OA
ATOM     29  C   UNL     1      -4.213   5.361  -1.409  0.00  0.00    +0.091 C 
ENDBRANCH  25  27
ENDBRANCH  19  21
ENDBRANCH  16  17
ENDBRANCH   9  16
TORSDOF 5
