REMARK  Name = ZINC44592968
REMARK  2 active torsions:
REMARK  status: ('A' for Active; 'I' for Inactive)
REMARK    1  A    between atoms: C_6  and  C_11
REMARK    2  A    between atoms: C_13  and  C_16
REMARK                            x       y       z     vdW  Elec       q    Type
REMARK                         _______ _______ _______ _____ _____    ______ ____
ROOT
ATOM      1  C   UNL     1      -2.261  -0.292   0.970  0.00  0.00    +0.249 A 
ATOM      2  N   UNL     1      -3.344   0.357   0.639  0.00  0.00    -0.194 NA
ATOM      3  C   UNL     1      -4.009   0.730   1.738  0.00  0.00    +0.175 A 
ATOM      4  N   UNL     1      -3.354   0.322   2.787  0.00  0.00    -0.061 NA
ATOM      5  O   UNL     1      -2.204  -0.358   2.306  0.00  0.00    -0.336 OA
ENDROOT
BRANCH   1  11
ATOM      6  C   UNL     1      -0.017   1.389   0.010  0.00  0.00    +0.013 A 
ATOM      7  C   UNL     1       1.146   2.081   0.002  0.00  0.00    +0.046 A 
ATOM      8  S   UNL     1       2.358   0.768  -0.016  0.00  0.00    -0.101 S 
ATOM      9  C   UNL     1       1.229  -0.596  -0.014  0.00  0.00    -0.004 A 
ATOM     10  C   UNL     1       0.002  -0.004   0.002  0.00  0.00    -0.011 A 
ATOM     11  C   UNL     1      -1.253  -0.872   0.012  0.00  0.00    +0.175 C 
ATOM     12  N   UNL     1      -0.883  -2.227   0.442  0.00  0.00    -0.302 NA
ATOM     13  C   UNL     1       0.201  -2.789  -0.376  0.00  0.00    +0.087 C 
ATOM     14  C   UNL     1       1.512  -2.063  -0.029  0.00  0.00    +0.058 C 
ATOM     15  H   UNL     1      -0.642  -2.242   1.422  0.00  0.00    +0.123 HD
ENDBRANCH   1  11
BRANCH   3  16
ATOM     16  C   UNL     1      -5.304   1.499   1.759  0.00  0.00    +0.060 C 
ATOM     17  C   UNL     1      -5.103   2.818   2.508  0.00  0.00    +0.011 C 
ATOM     18  C   UNL     1      -6.418   3.599   2.529  0.00  0.00    +0.001 C 
ATOM     19  C   UNL     1      -7.492   2.770   3.237  0.00  0.00    +0.000 C 
ATOM     20  C   UNL     1      -7.694   1.451   2.488  0.00  0.00    +0.001 C 
ATOM     21  C   UNL     1      -6.378   0.670   2.467  0.00  0.00    +0.011 C 
ENDBRANCH   3  16
TORSDOF 2
