REMARK  Name = ZINC18165143
REMARK  6 active torsions:
REMARK  status: ('A' for Active; 'I' for Inactive)
REMARK    1  A    between atoms: C_1  and  C_2
REMARK    2  A    between atoms: C_2  and  N_3
REMARK    3  A    between atoms: N_3  and  C_4
REMARK    4  A    between atoms: C_4  and  C_5
REMARK    5  A    between atoms: N_13  and  C_20
REMARK    6  A    between atoms: N_16  and  C_19
REMARK                            x       y       z     vdW  Elec       q    Type
REMARK                         _______ _______ _______ _____ _____    ______ ____
ROOT
ATOM      1  C   UNL     1      -0.066   1.500  -0.053  0.00  0.00    +0.061 C 
ATOM      2  C   UNL     1       0.002  -0.004   0.002  0.00  0.00    +0.018 C 
ATOM      3  C   UNL     1      -0.123  -0.744  -1.159  0.00  0.00    +0.116 C 
ATOM      4  C   UNL     1      -0.218  -2.215  -1.127  0.00  0.00    +0.260 C 
ATOM      5  N   UNL     1      -0.339  -2.872  -2.299  0.00  0.00    -0.224 N 
ATOM      6  C   UNL     1      -0.371  -2.217  -3.469  0.00  0.00    +0.317 C 
ATOM      7  O   UNL     1      -0.482  -2.868  -4.489  0.00  0.00    -0.252 OA
ATOM      8  N   UNL     1      -0.290  -0.883  -3.572  0.00  0.00    -0.224 N 
ATOM      9  C   UNL     1      -0.173  -0.097  -2.482  0.00  0.00    +0.260 C 
ATOM     10  O   UNL     1      -0.104   1.113  -2.589  0.00  0.00    -0.269 OA
ATOM     11  C   UNL     1      -0.335  -0.265  -4.899  0.00  0.00    +0.143 C 
ATOM     12  C   UNL     1      -0.435  -4.333  -2.294  0.00  0.00    +0.143 C 
ATOM     13  O   UNL     1      -0.189  -2.820  -0.072  0.00  0.00    -0.269 OA
ENDROOT
BRANCH   2  14
ATOM     14  N   UNL     1       0.185  -0.628   1.183  0.00  0.00    -0.344 N 
ATOM     15  H   UNL     1       0.312  -1.589   1.209  0.00  0.00    +0.146 HD
BRANCH  14  16
ATOM     16  C   UNL     1       0.190   0.146   2.427  0.00  0.00    +0.132 C 
BRANCH  16  17
ATOM     17  C   UNL     1       0.414  -0.796   3.612  0.00  0.00    +0.135 C 
ATOM     18  C   UNL     1       0.301  -0.008   4.935  0.00  0.00    +0.035 C 
ATOM     19  C   UNL     1       1.431  -0.641   5.793  0.00  0.00    +0.031 C 
ATOM     20  C   UNL     1       2.489  -0.950   4.704  0.00  0.00    +0.160 C 
ATOM     21  O   UNL     1       1.733  -1.351   3.548  0.00  0.00    -0.375 OA
ENDBRANCH  16  17
ENDBRANCH  14  16
ENDBRANCH   2  14
TORSDOF 3
