REMARK  Name = ZINC40819106
REMARK  10 active torsions:
REMARK  status: ('A' for Active; 'I' for Inactive)
REMARK    1  A    between atoms: C_1  and  C_2
REMARK    2  A    between atoms: C_2  and  C_3
REMARK    3  A    between atoms: C_2  and  C_4
REMARK    4  A    between atoms: C_4  and  C_5
REMARK    5  A    between atoms: C_5  and  C_7
REMARK    6  A    between atoms: C_5  and  N_16
REMARK    7  A    between atoms: C_17  and  C_19
REMARK    8  A    between atoms: C_20  and  O_27
REMARK    9  A    between atoms: C_24  and  O_25
REMARK   10  A    between atoms: O_25  and  C_26
REMARK                            x       y       z     vdW  Elec       q    Type
REMARK                         _______ _______ _______ _____ _____    ______ ____
ROOT
ATOM      1  C   UNL     1      -0.042  -0.124   2.497  0.00  0.00    +0.142 C 
ENDROOT
BRANCH   1   2
ATOM      2  C   UNL     1       0.746  -0.514   3.721  0.00  0.00    +0.159 A 
ATOM      3  N   UNL     1       0.903  -1.725   4.187  0.00  0.00    -0.130 NA
ATOM      4  N   UNL     1       1.633  -1.706   5.246  0.00  0.00    -0.108 NA
ATOM      5  C   UNL     1       1.988  -0.460   5.517  0.00  0.00    +0.256 A 
ATOM      6  N   UNL     1       1.430   0.329   4.541  0.00  0.00    -0.269 N 
ATOM      7  C   UNL     1       1.630   1.678   4.556  0.00  0.00    +0.097 A 
ATOM      8  C   UNL     1       2.385   2.220   5.542  0.00  0.00    +0.038 A 
ATOM      9  C   UNL     1       2.942   1.384   6.521  0.00  0.00    +0.116 A 
ATOM     10  N   UNL     1       2.729   0.089   6.488  0.00  0.00    -0.219 NA
ENDBRANCH   1   2
BRANCH   1  11
ATOM     11  N   UNL     1      -1.330  -0.821   2.503  0.00  0.00    -0.301 N 
ATOM     12  C   UNL     1      -2.382  -0.298   1.842  0.00  0.00    +0.252 C 
ATOM     13  O   UNL     1      -2.262   0.752   1.241  0.00  0.00    -0.270 OA
ATOM     14  H   UNL     1      -1.426  -1.658   2.983  0.00  0.00    +0.150 HD
BRANCH  12  15
ATOM     15  C   UNL     1      -3.677  -0.999   1.848  0.00  0.00    +0.119 A 
ATOM     16  C   UNL     1      -4.625  -0.723   2.845  0.00  0.00    +0.133 A 
ATOM     17  C   UNL     1      -5.840  -1.387   2.840  0.00  0.00    +0.046 A 
ATOM     18  C   UNL     1      -6.120  -2.320   1.859  0.00  0.00    +0.007 A 
ATOM     19  C   UNL     1      -5.194  -2.600   0.873  0.00  0.00    +0.046 A 
ATOM     20  C   UNL     1      -3.974  -1.942   0.854  0.00  0.00    +0.136 A 
BRANCH  20  21
ATOM     21  O   UNL     1      -3.068  -2.215  -0.118  0.00  0.00    -0.494 OA
ATOM     22  C   UNL     1      -3.440  -3.187  -1.097  0.00  0.00    +0.277 C 
ENDBRANCH  20  21
BRANCH  16  23
ATOM     23  O   UNL     1      -4.352   0.192   3.809  0.00  0.00    -0.506 OA
ATOM     24  H   UNL     1      -4.619   1.093   3.583  0.00  0.00    +0.292 HD
ENDBRANCH  16  23
ENDBRANCH  12  15
ENDBRANCH   1  11
BRANCH   1  25
ATOM     25  C   UNL     1       0.742  -0.511   1.242  0.00  0.00    +0.033 C 
BRANCH  25  27
ATOM     26  C   UNL     1      -0.019   1.526   0.010  0.00  0.00    +0.007 C 
ATOM     27  C   UNL     1       0.002  -0.004   0.002  0.00  0.00    -0.015 C 
ATOM     28  C   UNL     1       0.718  -0.497  -1.257  0.00  0.00    +0.007 C 
ENDBRANCH  25  27
ENDBRANCH   1  25
TORSDOF 7
