REMARK  Name = ZINC10385966
REMARK  8 active torsions:
REMARK  status: ('A' for Active; 'I' for Inactive)
REMARK    1  A    between atoms: C_1  and  N_2
REMARK    2  A    between atoms: N_7  and  C_10
REMARK    3  A    between atoms: N_11  and  C_19
REMARK    4  A    between atoms: C_19  and  C_20
REMARK    5  A    between atoms: C_20  and  C_22
REMARK    6  A    between atoms: C_20  and  O_31
REMARK    7  A    between atoms: C_22  and  O_23
REMARK    8  A    between atoms: O_23  and  C_24
REMARK                            x       y       z     vdW  Elec       q    Type
REMARK                         _______ _______ _______ _____ _____    ______ ____
ROOT
ATOM      1  C   UNL     1       4.058  -1.022  -0.116  0.00  0.00    +0.155 C 
ATOM      2  N   UNL     1       3.436   0.304  -0.075  0.00  0.00    -0.280 N 
ATOM      3  C   UNL     1       2.056   0.421  -0.037  0.00  0.00    +0.170 A 
ATOM      4  C   UNL     1       1.492   1.691   0.002  0.00  0.00    +0.153 A 
ATOM      5  C   UNL     1       2.334   2.817   0.001  0.00  0.00    +0.282 A 
ATOM      6  O   UNL     1       1.861   3.940   0.035  0.00  0.00    -0.265 OA
ATOM      7  N   UNL     1       3.671   2.641  -0.036  0.00  0.00    -0.262 N 
ATOM      8  C   UNL     1       4.206   1.409  -0.074  0.00  0.00    +0.333 A 
ATOM      9  O   UNL     1       5.416   1.288  -0.107  0.00  0.00    -0.246 OA
ATOM     10  C   UNL     1       4.553   3.811  -0.037  0.00  0.00    +0.157 C 
ATOM     11  N   UNL     1       0.116   1.507   0.034  0.00  0.00    -0.304 N 
ATOM     12  C   UNL     1      -0.100   0.165   0.014  0.00  0.00    +0.201 A 
ATOM     13  N   UNL     1       1.057  -0.463  -0.028  0.00  0.00    -0.196 NA
ATOM     14  N   UNL     1      -1.335  -0.442   0.034  0.00  0.00    -0.301 N 
ATOM     15  C   UNL     1      -1.761  -0.826  -1.336  0.00  0.00    +0.108 C 
ATOM     16  C   UNL     1      -2.837  -1.912  -1.081  0.00  0.00    +0.020 C 
ATOM     17  C   UNL     1      -2.271  -2.680   0.136  0.00  0.00    +0.020 C 
ATOM     18  C   UNL     1      -1.295  -1.699   0.811  0.00  0.00    +0.108 C 
ENDROOT
BRANCH  11  19
ATOM     19  C   UNL     1      -0.906   2.556   0.074  0.00  0.00    +0.160 C 
BRANCH  19  20
ATOM     20  C   UNL     1      -1.330   2.799   1.524  0.00  0.00    +0.172 C 
BRANCH  20  21
ATOM     21  O   UNL     1      -0.224   3.320   2.263  0.00  0.00    -0.387 OA
ATOM     22  H   UNL     1       0.118   4.158   1.922  0.00  0.00    +0.210 HD
ENDBRANCH  20  21
BRANCH  20  23
ATOM     23  C   UNL     1      -2.484   3.804   1.557  0.00  0.00    +0.262 C 
BRANCH  23  24
ATOM     24  O   UNL     1      -2.957   3.943   2.898  0.00  0.00    -0.489 OA
BRANCH  24  25
ATOM     25  C   UNL     1      -3.988   4.805   3.102  0.00  0.00    +0.121 A 
ATOM     26  C   UNL     1      -4.529   5.506   2.035  0.00  0.00    +0.047 A 
ATOM     27  C   UNL     1      -5.579   6.378   2.244  0.00  0.00    +0.023 A 
ATOM     28  C   UNL     1      -6.086   6.560   3.519  0.00  0.00    +0.041 A 
ATOM     29  C   UNL     1      -5.544   5.865   4.586  0.00  0.00    +0.023 A 
ATOM     30  C   UNL     1      -4.497   4.988   4.380  0.00  0.00    +0.047 A 
ATOM     31 CL   UNL     1      -7.402   7.661   3.780  0.00  0.00    -0.084 Cl
ENDBRANCH  24  25
ENDBRANCH  23  24
ENDBRANCH  20  23
ENDBRANCH  19  20
ENDBRANCH  11  19
TORSDOF 6
