REMARK  Name = ZINC40428622
REMARK  8 active torsions:
REMARK  status: ('A' for Active; 'I' for Inactive)
REMARK    1  A    between atoms: C_1  and  C_2
REMARK    2  A    between atoms: C_2  and  C_3
REMARK    3  A    between atoms: C_5  and  O_11
REMARK    4  A    between atoms: C_6  and  N_10
REMARK    5  A    between atoms: O_11  and  C_12
REMARK    6  A    between atoms: C_13  and  C_25
REMARK    7  A    between atoms: C_14  and  C_24
REMARK    8  A    between atoms: N_16  and  C_17
REMARK                            x       y       z     vdW  Elec       q    Type
REMARK                         _______ _______ _______ _____ _____    ______ ____
ROOT
ATOM      1  C   UNL     1       5.133  -0.729   0.843  0.00  0.00    +0.229 A 
ATOM      2  C   UNL     1       6.484  -0.863   0.764  0.00  0.00    +0.034 A 
ATOM      3  C   UNL     1       6.856  -0.689  -0.572  0.00  0.00    +0.067 A 
ATOM      4  N   UNL     1       5.777  -0.461  -1.276  0.00  0.00    -0.168 NA
ATOM      5  N   UNL     1       4.673  -0.485  -0.414  0.00  0.00    -0.200 N 
ATOM      6  C   UNL     1       8.262  -0.754  -1.111  0.00  0.00    +0.068 C 
ATOM      7  C   UNL     1       7.415  -1.146   1.915  0.00  0.00    +0.051 C 
ENDROOT
BRANCH   5   8
ATOM      8  C   UNL     1       3.334  -0.290  -0.780  0.00  0.00    +0.070 A 
ATOM      9  C   UNL     1       2.337  -1.076  -0.217  0.00  0.00    +0.028 A 
ATOM     10  C   UNL     1       1.019  -0.882  -0.580  0.00  0.00    +0.003 A 
ATOM     11  C   UNL     1       0.690   0.095  -1.502  0.00  0.00    +0.020 A 
ATOM     12  C   UNL     1       1.681   0.879  -2.066  0.00  0.00    +0.043 A 
ATOM     13  C   UNL     1       3.002   0.693  -1.702  0.00  0.00    +0.048 A 
ATOM     14 CL   UNL     1       1.264   2.104  -3.224  0.00  0.00    -0.083 Cl
ENDBRANCH   5   8
BRANCH   1  15
ATOM     15  O   UNL     1       4.380  -0.828   1.968  0.00  0.00    -0.418 OA
BRANCH  15  18
ATOM     16  C   UNL     1       4.309   2.588   2.897  0.00  0.00    +0.134 A 
ATOM     17  N   UNL     1       4.540   1.484   2.215  0.00  0.00    -0.196 NA
ATOM     18  C   UNL     1       4.139   0.305   2.674  0.00  0.00    +0.248 A 
ATOM     19  C   UNL     1       3.464   0.249   3.898  0.00  0.00    +0.125 A 
ATOM     20  C   UNL     1       3.243   1.439   4.581  0.00  0.00    +0.157 A 
ATOM     21  N   UNL     1       3.682   2.575   4.054  0.00  0.00    -0.218 NA
ATOM     22 CL   UNL     1       2.411   1.439   6.104  0.00  0.00    -0.060 Cl
BRANCH  19  23
ATOM     23  N   UNL     1       3.022  -0.972   4.421  0.00  0.00    -0.351 N 
ATOM     24  H   UNL     1       3.183  -1.795   3.933  0.00  0.00    +0.143 HD
ATOM     25  H   UNL     1       2.555  -0.996   5.271  0.00  0.00    +0.143 HD
ENDBRANCH  19  23
BRANCH  16  27
ATOM     26  C   UNL     1       6.245   4.130   2.729  0.00  0.00    +0.012 C 
ATOM     27  C   UNL     1       4.783   3.905   2.337  0.00  0.00    +0.073 C 
ENDBRANCH  16  27
ENDBRANCH  15  18
ENDBRANCH   1  15
TORSDOF 5
