REMARK  Name = ZINC47039815
REMARK  6 active torsions:
REMARK  status: ('A' for Active; 'I' for Inactive)
REMARK    1  A    between atoms: C_1  and  C_2
REMARK    2  A    between atoms: C_5  and  C_8
REMARK    3  A    between atoms: C_9  and  C_10
REMARK    4  A    between atoms: C_9  and  C_12
REMARK    5  A    between atoms: N_14  and  C_15
REMARK    6  A    between atoms: C_19  and  N_21
REMARK                            x       y       z     vdW  Elec       q    Type
REMARK                         _______ _______ _______ _____ _____    ______ ____
ROOT
ATOM      1  C   UNL     1       0.289  -6.394   1.153  0.00  0.00    +0.259 C 
ATOM      2  O   UNL     1       0.238  -6.995   0.097  0.00  0.00    -0.269 OA
ATOM      3  N   UNL     1       0.448  -7.071   2.308  0.00  0.00    -0.281 N 
ATOM      4  H   UNL     1       0.413  -6.600   3.155  0.00  0.00    +0.155 HD
ENDROOT
BRANCH   3   5
ATOM      5  C   UNL     1       0.663  -8.452   2.284  0.00  0.00    +0.035 A 
ATOM      6  C   UNL     1       1.264  -9.044   1.179  0.00  0.00    +0.023 A 
ATOM      7  C   UNL     1       1.477 -10.408   1.155  0.00  0.00    +0.004 A 
ATOM      8  C   UNL     1       1.093 -11.190   2.228  0.00  0.00    +0.024 A 
ATOM      9  C   UNL     1       0.491 -10.605   3.335  0.00  0.00    +0.040 A 
ATOM     10  C   UNL     1       0.282  -9.234   3.365  0.00  0.00    +0.047 A 
BRANCH   9  11
ATOM     11  N   UNL     1       0.102 -11.397   4.421  0.00  0.00    -0.254 N 
ATOM     12  C   UNL     1       0.382 -12.833   4.572  0.00  0.00    +0.134 C 
ATOM     13  C   UNL     1      -0.261 -13.194   5.925  0.00  0.00    +0.125 C 
ATOM     14  N   UNL     1      -0.835 -11.924   6.392  0.00  0.00    -0.297 N 
ATOM     15  C   UNL     1      -0.580 -10.967   5.490  0.00  0.00    +0.307 C 
ATOM     16  O   UNL     1      -0.939  -9.813   5.628  0.00  0.00    -0.252 OA
ATOM     17  H   UNL     1      -1.318 -11.797   7.224  0.00  0.00    +0.150 HD
ENDBRANCH   9  11
ENDBRANCH   3   5
BRANCH   1  19
ATOM     18  C   UNL     1       0.017  -4.239   0.000  0.00  0.00    +0.032 C 
ATOM     19  C   UNL     1       0.178  -4.926   1.170  0.00  0.00    +0.114 C 
BRANCH  18  24
ATOM     20  C   UNL     1       0.299   1.499  -0.024  0.00  0.00    +0.044 C 
ATOM     21  C   UNL     1       0.225  -0.006  -0.018  0.00  0.00    -0.050 A 
ATOM     22  C   UNL     1      -0.530  -0.662  -0.975  0.00  0.00    +0.004 A 
ATOM     23  C   UNL     1      -0.603  -2.039  -0.977  0.00  0.00    +0.008 A 
ATOM     24  C   UNL     1       0.089  -2.774  -0.006  0.00  0.00    -0.024 A 
ATOM     25  C   UNL     1       0.851  -2.102   0.958  0.00  0.00    +0.008 A 
ATOM     26  C   UNL     1       0.917  -0.725   0.942  0.00  0.00    +0.004 A 
ENDBRANCH  18  24
BRANCH  19  27
ATOM     27  C   UNL     1       0.238  -4.218   2.414  0.00  0.00    +0.104 C 
ATOM     28  N   UNL     1       0.285  -3.656   3.400  0.00  0.00    -0.191 NA
ENDBRANCH  19  27
ENDBRANCH   1  19
TORSDOF 5
