REMARK  Name = ZINC36278001
REMARK  5 active torsions:
REMARK  status: ('A' for Active; 'I' for Inactive)
REMARK    1  A    between atoms: C_3  and  N_24
REMARK    2  A    between atoms: C_6  and  C_7
REMARK    3  A    between atoms: C_8  and  C_17
REMARK    4  A    between atoms: C_11  and  N_16
REMARK    5  A    between atoms: C_17  and  N_18
REMARK                            x       y       z     vdW  Elec       q    Type
REMARK                         _______ _______ _______ _____ _____    ______ ____
ROOT
ATOM      1  C   UNL     1      -1.253  -0.799   0.055  0.00  0.00    +0.094 A 
ATOM      2  C   UNL     1      -1.527  -1.901  -0.699  0.00  0.00    +0.065 A 
ATOM      3  N   UNL     1      -2.826  -2.244  -0.451  0.00  0.00    -0.300 N 
ATOM      4  C   UNL     1      -3.619  -3.253  -0.925  0.00  0.00    +0.115 A 
ATOM      5  C   UNL     1      -4.902  -3.374  -0.509  0.00  0.00    +0.041 A 
ATOM      6  C   UNL     1      -5.435  -2.457   0.420  0.00  0.00    +0.028 A 
ATOM      7  C   UNL     1      -4.654  -1.451   0.896  0.00  0.00    +0.048 A 
ATOM      8  C   UNL     1      -3.320  -1.340   0.453  0.00  0.00    +0.139 A 
ATOM      9  N   UNL     1      -2.355  -0.480   0.750  0.00  0.00    -0.227 NA
ENDROOT
BRANCH   1  15
ATOM     10  C   UNL     1       0.753   0.164  -1.072  0.00  0.00    +0.012 A 
ATOM     11  C   UNL     1       1.958   0.834  -1.021  0.00  0.00    +0.033 A 
ATOM     12  C   UNL     1       2.464   1.262   0.193  0.00  0.00    +0.126 A 
ATOM     13  C   UNL     1       1.766   1.021   1.363  0.00  0.00    +0.033 A 
ATOM     14  C   UNL     1       0.559   0.352   1.324  0.00  0.00    +0.012 A 
ATOM     15  C   UNL     1       0.044  -0.080   0.103  0.00  0.00    +0.002 A 
BRANCH  12  16
ATOM     16  N   UNL     1       3.759   1.980   0.242  0.00  0.00    +0.056 N 
ATOM     17  O   UNL     1       4.372   2.191  -0.779  0.00  0.00    -0.126 OA
ATOM     18  O   UNL     1       4.203   2.354   1.302  0.00  0.00    -0.126 OA
ENDBRANCH  12  16
ENDBRANCH   1  15
BRANCH   5  19
ATOM     19  N   UNL     1      -5.703  -4.412  -1.003  0.00  0.00    -0.357 N 
ATOM     20  H   UNL     1      -5.338  -5.044  -1.642  0.00  0.00    +0.142 HD
ATOM     21  H   UNL     1      -6.622  -4.500  -0.706  0.00  0.00    +0.142 HD
ENDBRANCH   5  19
BRANCH   2  22
ATOM     22  C   UNL     1      -0.577  -2.609  -1.630  0.00  0.00    +0.140 C 
BRANCH  22  23
ATOM     23  N   UNL     1      -0.647  -1.993  -2.962  0.00  0.00    -0.292 NA
ATOM     24  C   UNL     1      -1.962  -2.219  -3.578  0.00  0.00    +0.113 C 
ATOM     25  C   UNL     1      -2.013  -1.511  -4.935  0.00  0.00    +0.175 C 
ATOM     26  O   UNL     1      -0.942  -1.988  -5.755  0.00  0.00    -0.377 OA
ATOM     27  C   UNL     1       0.354  -1.783  -5.186  0.00  0.00    +0.175 C 
ATOM     28  C   UNL     1       0.428  -2.493  -3.831  0.00  0.00    +0.113 C 
ENDBRANCH  22  23
ENDBRANCH   2  22
TORSDOF 5
