REMARK  Name = ZINC49937151
REMARK  2 active torsions:
REMARK  status: ('A' for Active; 'I' for Inactive)
REMARK    1  A    between atoms: C_7  and  C_26
REMARK    2  A    between atoms: N_17  and  C_20
REMARK                            x       y       z     vdW  Elec       q    Type
REMARK                         _______ _______ _______ _____ _____    ______ ____
ROOT
ATOM      1  C   UNL     1       0.247   1.342  -0.358  0.00  0.00    +0.033 C 
ATOM      2  C   UNL     1       0.183   0.006  -0.247  0.00  0.00    +0.031 C 
ATOM      3  C   UNL     1      -1.111  -0.689  -0.133  0.00  0.00    +0.090 C 
ATOM      4  C   UNL     1      -1.118  -2.004   0.177  0.00  0.00    +0.249 C 
ATOM      5  O   UNL     1      -2.296  -2.657   0.319  0.00  0.00    -0.270 OA
ATOM      6  N   UNL     1       0.070  -2.684   0.348  0.00  0.00    -0.215 N 
ATOM      7  C   UNL     1       0.072  -4.144   0.502  0.00  0.00    +0.211 C 
ATOM      8  N   UNL     1       1.192  -4.537   1.361  0.00  0.00    -0.335 N 
ATOM      9  C   UNL     1       2.250  -3.781   1.475  0.00  0.00    +0.196 C 
ATOM     10  N   UNL     1       2.333  -2.579   0.877  0.00  0.00    -0.186 NA
ATOM     11  C   UNL     1       1.270  -2.022   0.340  0.00  0.00    +0.199 C 
ATOM     12  N   UNL     1       1.348  -0.779  -0.240  0.00  0.00    -0.287 N 
ATOM     13  N   UNL     1       3.314  -4.229   2.231  0.00  0.00    -0.298 N 
ATOM     14  C   UNL     1       3.675  -5.653   2.247  0.00  0.00    +0.127 C 
ATOM     15  C   UNL     1       5.149  -5.790   1.847  0.00  0.00    +0.124 C 
ATOM     16  N   UNL     1       5.942  -4.850   2.651  0.00  0.00    -0.327 N 
ATOM     17  C   UNL     1       5.582  -3.426   2.636  0.00  0.00    +0.124 C 
ATOM     18  C   UNL     1       4.111  -3.288   3.031  0.00  0.00    +0.127 C 
ATOM     19  H   UNL     1       2.176  -0.455  -0.628  0.00  0.00    +0.155 HD
ATOM     20  H   UNL     1       1.146  -5.372   1.852  0.00  0.00    +0.164 HD
ENDROOT
BRANCH   7  21
ATOM     21  C   UNL     1       0.222  -4.793  -0.850  0.00  0.00    -0.007 A 
ATOM     22  C   UNL     1      -0.266  -4.159  -1.978  0.00  0.00    +0.009 A 
ATOM     23  C   UNL     1      -0.129  -4.753  -3.219  0.00  0.00    +0.020 A 
ATOM     24  C   UNL     1       0.496  -5.982  -3.331  0.00  0.00    +0.041 A 
ATOM     25  C   UNL     1       0.983  -6.616  -2.202  0.00  0.00    +0.020 A 
ATOM     26  C   UNL     1       0.851  -6.018  -0.963  0.00  0.00    +0.009 A 
ATOM     27 CL   UNL     1       0.667  -6.729  -4.889  0.00  0.00    -0.084 Cl
ENDBRANCH   7  21
BRANCH  16  28
ATOM     28  C   UNL     1       7.020  -5.303   3.416  0.00  0.00    +0.030 A 
ATOM     29  C   UNL     1       7.430  -6.627   3.326  0.00  0.00    +0.023 A 
ATOM     30  C   UNL     1       8.496  -7.071   4.084  0.00  0.00    +0.002 A 
ATOM     31  C   UNL     1       9.154  -6.199   4.932  0.00  0.00    +0.000 A 
ATOM     32  C   UNL     1       8.748  -4.881   5.024  0.00  0.00    +0.002 A 
ATOM     33  C   UNL     1       7.687  -4.428   4.265  0.00  0.00    +0.023 A 
ENDBRANCH  16  28
TORSDOF 2
