REMARK  Name = ZINC60093496
REMARK  5 active torsions:
REMARK  status: ('A' for Active; 'I' for Inactive)
REMARK    1  A    between atoms: C_1  and  S_2
REMARK    2  A    between atoms: S_2  and  N_5
REMARK    3  A    between atoms: C_12  and  C_14
REMARK    4  A    between atoms: N_16  and  C_17
REMARK    5  A    between atoms: C_22  and  O_23
REMARK                            x       y       z     vdW  Elec       q    Type
REMARK                         _______ _______ _______ _____ _____    ______ ____
ROOT
ATOM      1  N   UNL     1       0.801  -0.361  -1.408  0.00  0.00    -0.207 N 
ATOM      2  C   UNL     1       0.157  -0.568  -2.708  0.00  0.00    +0.136 C 
ATOM      3  C   UNL     1       1.300  -0.932  -3.670  0.00  0.00    +0.058 C 
ATOM      4  C   UNL     1       2.543  -0.900  -2.809  0.00  0.00    -0.023 A 
ATOM      5  C   UNL     1       2.173  -0.557  -1.514  0.00  0.00    +0.054 A 
ATOM      6  C   UNL     1       3.159  -0.456  -0.525  0.00  0.00    +0.026 A 
ATOM      7  C   UNL     1       4.477  -0.690  -0.830  0.00  0.00    +0.015 A 
ATOM      8  C   UNL     1       4.846  -1.030  -2.135  0.00  0.00    +0.037 A 
ATOM      9  C   UNL     1       3.861  -1.141  -3.122  0.00  0.00    +0.018 A 
ENDROOT
BRANCH   1  11
ATOM     10  C   UNL     1      -0.002   1.867  -0.005  0.00  0.00    +0.218 C 
ATOM     11  S   UNL     1       0.008   0.053  -0.014  0.00  0.00    +0.043 S 
ATOM     12  O   UNL     1       0.835  -0.437   1.032  0.00  0.00    -0.155 OA
ATOM     13  O   UNL     1      -1.312  -0.443  -0.186  0.00  0.00    -0.155 OA
ENDBRANCH   1  11
BRANCH   8  14
ATOM     14  C   UNL     1       6.261  -1.281  -2.466  0.00  0.00    +0.248 C 
ATOM     15  O   UNL     1       6.576  -1.577  -3.602  0.00  0.00    -0.270 OA
ATOM     16  N   UNL     1       7.205  -1.182  -1.509  0.00  0.00    -0.279 N 
ATOM     17  H   UNL     1       6.963  -0.883  -0.618  0.00  0.00    +0.155 HD
BRANCH  16  18
ATOM     18  C   UNL     1       8.534  -1.510  -1.800  0.00  0.00    +0.077 A 
ATOM     19  C   UNL     1       9.057  -1.245  -3.057  0.00  0.00    +0.047 A 
ATOM     20  C   UNL     1      10.371  -1.570  -3.342  0.00  0.00    +0.043 A 
ATOM     21  C   UNL     1      11.166  -2.160  -2.375  0.00  0.00    +0.023 A 
ATOM     22  C   UNL     1      10.651  -2.428  -1.120  0.00  0.00    +0.049 A 
ATOM     23  C   UNL     1       9.337  -2.099  -0.826  0.00  0.00    +0.138 A 
ATOM     24 CL   UNL     1      11.024  -1.238  -4.916  0.00  0.00    -0.083 Cl
BRANCH  23  25
ATOM     25  O   UNL     1       8.832  -2.357   0.410  0.00  0.00    -0.505 OA
ATOM     26  H   UNL     1       8.428  -3.232   0.496  0.00  0.00    +0.292 HD
ENDBRANCH  23  25
ENDBRANCH  16  18
ENDBRANCH   8  14
TORSDOF 4
