REMARK  Name = ZINC15777639
REMARK  8 active torsions:
REMARK  status: ('A' for Active; 'I' for Inactive)
REMARK    1  A    between atoms: C_1  and  C_2
REMARK    2  A    between atoms: C_5  and  S_8
REMARK    3  A    between atoms: S_8  and  N_11
REMARK    4  A    between atoms: N_11  and  N_12
REMARK    5  A    between atoms: C_13  and  C_14
REMARK    6  A    between atoms: C_13  and  C_15
REMARK    7  A    between atoms: C_18  and  N_21
REMARK    8  A    between atoms: N_24  and  C_25
REMARK                            x       y       z     vdW  Elec       q    Type
REMARK                         _______ _______ _______ _____ _____    ______ ____
ROOT
ATOM      1  C   UNL     1       1.713   6.183   4.318  0.00  0.00    -0.002 A 
ATOM      2  C   UNL     1       1.683   6.834   5.554  0.00  0.00    +0.011 A 
ATOM      3  C   UNL     1       0.496   7.346   6.032  0.00  0.00    +0.024 A 
ATOM      4  C   UNL     1      -0.672   7.207   5.292  0.00  0.00    +0.035 A 
ATOM      5  C   UNL     1      -0.647   6.555   4.064  0.00  0.00    +0.024 A 
ATOM      6  C   UNL     1       0.536   6.045   3.576  0.00  0.00    +0.011 A 
ENDROOT
BRANCH   4   7
ATOM      7  N   UNL     1      -1.875   7.724   5.783  0.00  0.00    -0.269 N 
ATOM      8  C   UNL     1      -2.134   7.686   7.105  0.00  0.00    +0.308 C 
ATOM      9  O   UNL     1      -1.291   7.276   7.879  0.00  0.00    -0.252 OA
ATOM     10  N   UNL     1      -3.329   8.103   7.569  0.00  0.00    -0.269 N 
ATOM     11  H   UNL     1      -2.522   8.109   5.172  0.00  0.00    +0.156 HD
ATOM     12  H   UNL     1      -4.027   8.361   6.948  0.00  0.00    +0.156 HD
BRANCH  10  13
ATOM     13  C   UNL     1      -3.561   8.164   8.948  0.00  0.00    +0.035 A 
ATOM     14  C   UNL     1      -3.053   7.178   9.783  0.00  0.00    +0.025 A 
ATOM     15  C   UNL     1      -3.278   7.244  11.145  0.00  0.00    +0.022 A 
ATOM     16  C   UNL     1      -4.020   8.285  11.675  0.00  0.00    +0.041 A 
ATOM     17  C   UNL     1      -4.534   9.265  10.844  0.00  0.00    +0.022 A 
ATOM     18  C   UNL     1      -4.306   9.207   9.483  0.00  0.00    +0.025 A 
ATOM     19 CL   UNL     1      -4.308   8.361  13.385  0.00  0.00    -0.084 Cl
ENDBRANCH  10  13
ENDBRANCH   4   7
BRANCH   1  21
ATOM     20  N   UNL     1       3.253   5.718   2.534  0.00  0.00    -0.171 NA
ATOM     21  C   UNL     1       2.981   5.638   3.800  0.00  0.00    +0.065 C 
ATOM     22  C   UNL     1       3.962   4.988   4.742  0.00  0.00    +0.068 C 
BRANCH  20  23
ATOM     23  N   UNL     1       2.417   6.452   1.683  0.00  0.00    -0.136 N 
ATOM     24  H   UNL     1       1.617   6.874   2.034  0.00  0.00    +0.197 HD
BRANCH  23  25
ATOM     25  S   UNL     1       2.793   6.600   0.077  0.00  0.00    +0.086 S 
ATOM     26  O   UNL     1       4.121   7.103   0.016  0.00  0.00    -0.149 OA
ATOM     27  O   UNL     1       1.698   7.266  -0.537  0.00  0.00    -0.149 OA
BRANCH  25  32
ATOM     28  C   UNL     1       2.948   1.032  -2.241  0.00  0.00    +0.044 C 
ATOM     29  C   UNL     1       2.909   2.423  -1.662  0.00  0.00    -0.050 A 
ATOM     30  C   UNL     1       1.727   3.139  -1.662  0.00  0.00    +0.005 A 
ATOM     31  C   UNL     1       1.691   4.414  -1.131  0.00  0.00    +0.029 A 
ATOM     32  C   UNL     1       2.838   4.974  -0.599  0.00  0.00    +0.110 A 
ATOM     33  C   UNL     1       4.021   4.258  -0.600  0.00  0.00    +0.029 A 
ATOM     34  C   UNL     1       4.056   2.982  -1.131  0.00  0.00    +0.005 A 
ENDBRANCH  25  32
ENDBRANCH  23  25
ENDBRANCH  20  23
ENDBRANCH   1  21
TORSDOF 6
