REMARK  Name = ZINC14587566
REMARK  10 active torsions:
REMARK  status: ('A' for Active; 'I' for Inactive)
REMARK    1  A    between atoms: C_1  and  O_2
REMARK    2  A    between atoms: O_2  and  C_3
REMARK    3  A    between atoms: C_5  and  C_10
REMARK    4  A    between atoms: C_8  and  O_9
REMARK    5  A    between atoms: C_16  and  C_22
REMARK    6  A    between atoms: C_24  and  O_31
REMARK    7  A    between atoms: C_25  and  O_30
REMARK    8  A    between atoms: C_26  and  O_28
REMARK    9  A    between atoms: O_28  and  C_29
REMARK   10  A    between atoms: O_31  and  C_32
REMARK                            x       y       z     vdW  Elec       q    Type
REMARK                         _______ _______ _______ _____ _____    ______ ____
ROOT
ATOM      1  C   UNL     1      -1.064  -2.670  -2.176  0.00  0.00    +0.154 C 
ATOM      2  C   UNL     1      -0.719  -1.536  -1.203  0.00  0.00    +0.056 C 
ATOM      3  C   UNL     1      -0.330  -2.128   0.172  0.00  0.00    +0.167 C 
ATOM      4  O   UNL     1       0.642  -1.189   0.680  0.00  0.00    -0.371 OA
ATOM      5  C   UNL     1       1.474  -0.805  -0.426  0.00  0.00    +0.154 C 
ATOM      6  C   UNL     1       0.643  -0.976  -1.713  0.00  0.00    +0.056 C 
ATOM      7  C   UNL     1       1.224  -2.159  -2.512  0.00  0.00    +0.167 C 
ATOM      8  O   UNL     1       0.126  -2.964  -2.943  0.00  0.00    -0.371 OA
ENDROOT
BRANCH   1  11
ATOM      9  C   UNL     1      -3.221  -5.131  -0.288  0.00  0.00    +0.162 A 
ATOM     10  C   UNL     1      -2.818  -4.012  -0.999  0.00  0.00    +0.055 A 
ATOM     11  C   UNL     1      -1.501  -3.887  -1.402  0.00  0.00    -0.015 A 
ATOM     12  C   UNL     1      -0.586  -4.879  -1.101  0.00  0.00    +0.010 A 
ATOM     13  C   UNL     1      -0.981  -5.995  -0.388  0.00  0.00    +0.049 A 
ATOM     14  C   UNL     1      -2.299  -6.126   0.019  0.00  0.00    +0.158 A 
BRANCH   9  16
ATOM     15  C   UNL     1      -5.407  -4.195  -0.242  0.00  0.00    +0.277 C 
ATOM     16  O   UNL     1      -4.516  -5.255   0.109  0.00  0.00    -0.491 OA
ENDBRANCH   9  16
BRANCH  14  17
ATOM     17  O   UNL     1      -2.690  -7.226   0.717  0.00  0.00    -0.503 OA
ATOM     18  H   UNL     1      -2.996  -7.956   0.162  0.00  0.00    +0.292 HD
ENDBRANCH  14  17
ENDBRANCH   1  11
BRANCH   5  19
ATOM     19  C   UNL     1       1.894   0.635  -0.275  0.00  0.00    -0.011 A 
ATOM     20  C   UNL     1       1.032   1.547   0.305  0.00  0.00    +0.055 A 
ATOM     21  C   UNL     1       1.416   2.871   0.451  0.00  0.00    +0.165 A 
ATOM     22  C   UNL     1       2.664   3.284   0.003  0.00  0.00    +0.201 A 
ATOM     23  C   UNL     1       3.526   2.365  -0.585  0.00  0.00    +0.165 A 
ATOM     24  C   UNL     1       3.137   1.041  -0.722  0.00  0.00    +0.055 A 
BRANCH  23  25
ATOM     25  O   UNL     1       4.750   2.764  -1.025  0.00  0.00    -0.491 OA
ATOM     26  C   UNL     1       5.583   1.766  -1.619  0.00  0.00    +0.277 C 
ENDBRANCH  23  25
BRANCH  22  27
ATOM     27  O   UNL     1       3.043   4.584   0.138  0.00  0.00    -0.501 OA
ATOM     28  H   UNL     1       2.807   5.143  -0.615  0.00  0.00    +0.292 HD
ENDBRANCH  22  27
BRANCH  21  29
ATOM     29  O   UNL     1       0.569   3.766   1.027  0.00  0.00    -0.491 OA
ATOM     30  C   UNL     1      -0.698   3.271   1.465  0.00  0.00    +0.277 C 
ENDBRANCH  21  29
ENDBRANCH   5  19
TORSDOF 7
