REMARK  Name = ZINC67021473
REMARK  8 active torsions:
REMARK  status: ('A' for Active; 'I' for Inactive)
REMARK    1  A    between atoms: C_1  and  N_2
REMARK    2  A    between atoms: N_2  and  C_3
REMARK    3  A    between atoms: C_4  and  S_6
REMARK    4  A    between atoms: S_6  and  C_7
REMARK    5  A    between atoms: C_12  and  N_13
REMARK    6  A    between atoms: C_14  and  C_16
REMARK    7  A    between atoms: C_19  and  C_22
REMARK    8  A    between atoms: C_22  and  N_23
REMARK                            x       y       z     vdW  Elec       q    Type
REMARK                         _______ _______ _______ _____ _____    ______ ____
ROOT
ATOM      1  N   UNL     1      -0.106  -5.338  -2.150  0.00  0.00    -0.281 N 
ATOM      2  C   UNL     1      -0.073  -6.644  -2.482  0.00  0.00    +0.248 C 
ATOM      3  O   UNL     1      -0.032  -6.974  -3.651  0.00  0.00    -0.270 OA
ATOM      4  H   UNL     1      -0.217  -5.076  -1.223  0.00  0.00    +0.155 HD
ENDROOT
BRANCH   1  10
ATOM      5  C   UNL     1      -0.506  -3.085  -2.941  0.00  0.00    +0.038 A 
ATOM      6  C   UNL     1      -0.372  -2.119  -3.928  0.00  0.00    +0.017 A 
ATOM      7  C   UNL     1       0.277  -2.424  -5.110  0.00  0.00    +0.001 A 
ATOM      8  C   UNL     1       0.793  -3.691  -5.313  0.00  0.00    +0.002 A 
ATOM      9  C   UNL     1       0.664  -4.659  -4.336  0.00  0.00    +0.024 A 
ATOM     10  C   UNL     1       0.020  -4.361  -3.144  0.00  0.00    +0.048 A 
BRANCH   5  11
ATOM     11  S   UNL     1      -1.332  -2.700  -1.433  0.00  0.00    -0.030 S 
BRANCH  11  15
ATOM     12  C   UNL     1      -5.046  -4.182  -0.668  0.00  0.00    +0.132 C 
ATOM     13  N   UNL     1      -3.751  -3.508  -0.545  0.00  0.00    -0.298 N 
ATOM     14  C   UNL     1      -3.392  -2.833   0.705  0.00  0.00    +0.132 C 
ATOM     15  C   UNL     1      -2.889  -3.510  -1.581  0.00  0.00    +0.279 C 
ATOM     16  O   UNL     1      -3.187  -4.070  -2.619  0.00  0.00    -0.262 OA
ENDBRANCH  11  15
ENDBRANCH   5  11
ENDBRANCH   1  10
BRANCH   2  17
ATOM     17  C   UNL     1      -0.086  -7.676  -1.423  0.00  0.00    +0.037 A 
ATOM     18  C   UNL     1      -0.138  -7.301  -0.079  0.00  0.00    +0.013 A 
ATOM     19  C   UNL     1      -0.150  -8.269   0.904  0.00  0.00    +0.002 A 
ATOM     20  C   UNL     1      -0.111  -9.609   0.560  0.00  0.00    -0.064 A 
ATOM     21  C   UNL     1      -0.058  -9.987  -0.770  0.00  0.00    +0.002 A 
ATOM     22  C   UNL     1      -0.051  -9.030  -1.763  0.00  0.00    +0.013 A 
BRANCH  20  23
ATOM     23  C   UNL     1      -0.124 -10.661   1.639  0.00  0.00    -0.043 C 
BRANCH  23  24
ATOM     24  N   UNL     1      -1.513 -11.031   1.944  0.00  0.00    +0.382 N 
ATOM     25  C   UNL     1      -2.112 -11.759   0.797  0.00  0.00    -0.078 C 
ATOM     26  C   UNL     1      -3.282 -12.541   1.445  0.00  0.00    -0.020 C 
ATOM     27  C   UNL     1      -2.700 -12.963   2.814  0.00  0.00    -0.020 C 
ATOM     28  C   UNL     1      -1.550 -11.974   3.084  0.00  0.00    -0.078 C 
ATOM     29  H   UNL     1      -2.055 -10.207   2.156  0.00  0.00    -0.081 HD
ENDBRANCH  23  24
ENDBRANCH  20  23
ENDBRANCH   2  17
TORSDOF 6
