REMARK  Name = ZINC32869470
REMARK  8 active torsions:
REMARK  status: ('A' for Active; 'I' for Inactive)
REMARK    1  A    between atoms: C_1  and  C_2
REMARK    2  A    between atoms: C_2  and  C_3
REMARK    3  A    between atoms: C_2  and  C_4
REMARK    4  A    between atoms: C_4  and  C_6
REMARK    5  A    between atoms: C_4  and  N_16
REMARK    6  A    between atoms: N_16  and  C_17
REMARK    7  A    between atoms: C_17  and  C_18
REMARK    8  A    between atoms: C_21  and  C_24
REMARK                            x       y       z     vdW  Elec       q    Type
REMARK                         _______ _______ _______ _____ _____    ______ ____
ROOT
ATOM      1  N   UNL     1      -5.038  -0.340   0.692  0.00  0.00    +0.386 N 
ATOM      2  H   UNL     1      -4.667   0.379   1.437  0.00  0.00    -0.085 HD
ATOM      3  H   UNL     1      -5.801   0.144   0.064  0.00  0.00    -0.085 HD
ENDROOT
BRANCH   1   4
ATOM      4  C   UNL     1      -3.923  -0.789  -0.153  0.00  0.00    -0.038 C 
BRANCH   4   5
ATOM      5  C   UNL     1      -2.928   0.332  -0.310  0.00  0.00    -0.057 A 
ATOM      6  C   UNL     1      -3.373   1.629  -0.484  0.00  0.00    +0.006 A 
ATOM      7  C   UNL     1      -2.464   2.660  -0.633  0.00  0.00    +0.049 A 
ATOM      8  C   UNL     1      -1.102   2.395  -0.603  0.00  0.00    +0.162 A 
ATOM      9  C   UNL     1      -0.656   1.091  -0.427  0.00  0.00    +0.162 A 
ATOM     10  C   UNL     1      -1.573   0.061  -0.281  0.00  0.00    +0.051 A 
ATOM     11  O   UNL     1       0.675   0.809  -0.394  0.00  0.00    -0.485 OA
ATOM     12  C   UNL     1       1.558   1.808  -0.916  0.00  0.00    +0.270 C 
ATOM     13  C   UNL     1       1.132   3.169  -0.349  0.00  0.00    +0.270 C 
ATOM     14  O   UNL     1      -0.219   3.420  -0.753  0.00  0.00    -0.485 OA
ENDBRANCH   4   5
BRANCH   4  16
ATOM     15  C   UNL     1      -5.019   0.036  -2.240  0.00  0.00    +0.006 C 
ATOM     16  C   UNL     1      -4.456  -1.195  -1.528  0.00  0.00    -0.027 C 
ATOM     17  C   UNL     1      -3.318  -1.790  -2.361  0.00  0.00    +0.006 C 
ENDBRANCH   4  16
ENDBRANCH   1   4
BRANCH   1  18
ATOM     18  C   UNL     1      -5.655  -1.472   1.395  0.00  0.00    -0.046 C 
BRANCH  18  19
ATOM     19  C   UNL     1      -6.708  -0.959   2.344  0.00  0.00    -0.064 A 
ATOM     20  C   UNL     1      -6.366  -0.641   3.646  0.00  0.00    +0.002 A 
ATOM     21  C   UNL     1      -7.324  -0.167   4.518  0.00  0.00    +0.013 A 
ATOM     22  C   UNL     1      -8.643  -0.019   4.087  0.00  0.00    +0.037 A 
ATOM     23  C   UNL     1      -8.983  -0.346   2.774  0.00  0.00    +0.013 A 
ATOM     24  C   UNL     1      -8.014  -0.814   1.910  0.00  0.00    +0.002 A 
BRANCH  22  25
ATOM     25  C   UNL     1      -9.677   0.483   5.018  0.00  0.00    +0.247 C 
ATOM     26  O   UNL     1     -10.791   0.741   4.607  0.00  0.00    -0.270 OA
ATOM     27  N   UNL     1      -9.383   0.653   6.323  0.00  0.00    -0.298 N 
ATOM     28  C   UNL     1      -8.056   0.479   6.932  0.00  0.00    +0.108 C 
ATOM     29  C   UNL     1      -8.206   0.755   8.443  0.00  0.00    +0.020 C 
ATOM     30  C   UNL     1      -9.718   0.508   8.691  0.00  0.00    +0.020 C 
ATOM     31  C   UNL     1     -10.340   1.039   7.376  0.00  0.00    +0.108 C 
ENDBRANCH  22  25
ENDBRANCH  18  19
ENDBRANCH   1  18
TORSDOF 6
