REMARK  Name = ZINC10698112
REMARK  10 active torsions:
REMARK  status: ('A' for Active; 'I' for Inactive)
REMARK    1  A    between atoms: C_1  and  C_2
REMARK    2  A    between atoms: C_2  and  N_53
REMARK    3  A    between atoms: C_8  and  N_14
REMARK    4  A    between atoms: C_9  and  C_10
REMARK    5  A    between atoms: C_10  and  O_12
REMARK    6  A    between atoms: O_12  and  C_13
REMARK    7  A    between atoms: C_15  and  C_17
REMARK    8  A    between atoms: C_17  and  C_18
REMARK    9  A    between atoms: C_20  and  C_25
REMARK   10  A    between atoms: C_23  and  C_24
REMARK                            x       y       z     vdW  Elec       q    Type
REMARK                         _______ _______ _______ _____ _____    ______ ____
ROOT
ATOM      1  C   UNL     1       7.221   5.633  -6.959  0.00  0.00    -0.074 C 
ATOM      2  C   UNL     1       7.103   6.203  -5.543  0.00  0.00    +0.018 C 
ATOM      3  C   UNL     1       5.902   5.551  -4.867  0.00  0.00    -0.025 A 
ATOM      4  C   UNL     1       4.963   4.924  -5.610  0.00  0.00    -0.021 A 
ATOM      5  S   UNL     1       3.783   4.327  -4.436  0.00  0.00    -0.079 S 
ATOM      6  C   UNL     1       4.523   4.900  -2.978  0.00  0.00    +0.086 A 
ATOM      7  C   UNL     1       5.665   5.546  -3.435  0.00  0.00    +0.091 A 
ATOM      8  C   UNL     1       4.955   4.787  -7.100  0.00  0.00    -0.035 C 
ATOM      9  N   UNL     1       5.923   5.766  -7.651  0.00  0.00    +0.383 N 
ATOM     10  H   UNL     1       5.561   6.715  -7.501  0.00  0.00    -0.081 HD
ENDROOT
BRANCH   6  11
ATOM     11  N   UNL     1       4.080   4.755  -1.673  0.00  0.00    -0.279 N 
ATOM     12  C   UNL     1       2.933   4.094  -1.420  0.00  0.00    +0.222 C 
ATOM     13  O   UNL     1       2.288   3.627  -2.334  0.00  0.00    -0.275 OA
ATOM     14  H   UNL     1       4.596   5.129  -0.941  0.00  0.00    +0.155 HD
BRANCH  12  15
ATOM     15  C   UNL     1       2.451   3.937  -0.001  0.00  0.00    +0.131 C 
BRANCH  15  16
ATOM     16  C   UNL     1       1.157   3.165   0.008  0.00  0.00    -0.035 A 
ATOM     17  C   UNL     1      -0.050   3.840   0.023  0.00  0.00    +0.007 A 
ATOM     18  C   UNL     1      -1.238   3.133   0.030  0.00  0.00    -0.050 A 
ATOM     19  C   UNL     1      -1.219   1.750   0.017  0.00  0.00    +0.003 A 
ATOM     20  C   UNL     1      -0.013   1.076   0.008  0.00  0.00    +0.004 A 
ATOM     21  C   UNL     1       1.175   1.783   0.000  0.00  0.00    -0.047 A 
ATOM     22  C   UNL     1       2.490   1.048  -0.016  0.00  0.00    +0.044 C 
ATOM     23  C   UNL     1      -2.553   3.869   0.046  0.00  0.00    +0.044 C 
ENDBRANCH  15  16
ENDBRANCH  12  15
ENDBRANCH   6  11
BRANCH   9  25
ATOM     24  C   UNL     1       6.737   4.177  -9.360  0.00  0.00    -0.017 C 
ATOM     25  C   UNL     1       6.098   5.543  -9.103  0.00  0.00    -0.082 C 
ENDBRANCH   9  25
BRANCH   7  26
ATOM     26  C   UNL     1       6.595   6.194  -2.508  0.00  0.00    +0.342 C 
ATOM     27  O   UNL     1       7.524   5.564  -2.039  0.00  0.00    -0.245 OA
BRANCH  26  28
ATOM     28  O   UNL     1       6.422   7.490  -2.174  0.00  0.00    -0.464 OA
ATOM     29  C   UNL     1       7.382   8.066  -1.250  0.00  0.00    +0.280 C 
ENDBRANCH  26  28
ENDBRANCH   7  26
TORSDOF 6
