REMARK  Name = ZINC16266808
REMARK  9 active torsions:
REMARK  status: ('A' for Active; 'I' for Inactive)
REMARK    1  A    between atoms: C_1  and  C_2
REMARK    2  A    between atoms: C_4  and  O_24
REMARK    3  A    between atoms: C_5  and  C_10
REMARK    4  A    between atoms: C_10  and  C_11
REMARK    5  A    between atoms: C_10  and  C_21
REMARK    6  A    between atoms: C_12  and  O_20
REMARK    7  A    between atoms: C_14  and  C_19
REMARK    8  A    between atoms: C_21  and  C_22
REMARK    9  A    between atoms: C_21  and  C_23
REMARK                            x       y       z     vdW  Elec       q    Type
REMARK                         _______ _______ _______ _____ _____    ______ ____
ROOT
ATOM      1  C   UNL     1       0.140   3.796   0.009  0.00  0.00    +0.069 C 
ENDROOT
BRANCH   1   6
ATOM      2  C   UNL     1      -0.610   7.462  -4.376  0.00  0.00    +0.063 C 
ATOM      3  C   UNL     1      -0.410   6.515  -3.220  0.00  0.00    +0.019 A 
ATOM      4  C   UNL     1       0.008   6.995  -2.030  0.00  0.00    +0.066 A 
ATOM      5  C   UNL     1       0.192   6.115  -0.945  0.00  0.00    +0.127 A 
ATOM      6  C   UNL     1      -0.051   4.767  -1.127  0.00  0.00    +0.066 A 
ATOM      7  C   UNL     1      -0.484   4.316  -2.380  0.00  0.00    +0.256 A 
ATOM      8  O   UNL     1      -0.708   3.129  -2.556  0.00  0.00    -0.267 OA
ATOM      9  N   UNL     1      -0.653   5.189  -3.391  0.00  0.00    -0.326 N 
ATOM     10  H   UNL     1      -0.953   4.866  -4.255  0.00  0.00    +0.169 HD
BRANCH   5  11
ATOM     11  O   UNL     1       0.606   6.583   0.257  0.00  0.00    -0.506 OA
ATOM     12  H   UNL     1       0.748   7.539   0.280  0.00  0.00    +0.292 HD
ENDBRANCH   5  11
ENDBRANCH   1   6
BRANCH   1  13
ATOM     13  C   UNL     1       1.519   3.192  -0.074  0.00  0.00    +0.066 A 
ATOM     14  C   UNL     1       1.677   1.829  -0.242  0.00  0.00    +0.127 A 
ATOM     15  C   UNL     1       2.980   1.298  -0.321  0.00  0.00    +0.066 A 
ATOM     16  C   UNL     1       4.047   2.120  -0.227  0.00  0.00    +0.019 A 
ATOM     17  N   UNL     1       3.883   3.458  -0.056  0.00  0.00    -0.326 N 
ATOM     18  H   UNL     1       4.664   4.030   0.010  0.00  0.00    +0.169 HD
ATOM     19  C   UNL     1       2.655   4.003   0.024  0.00  0.00    +0.256 A 
ATOM     20  O   UNL     1       2.532   5.208   0.178  0.00  0.00    -0.267 OA
ATOM     21  C   UNL     1       5.438   1.546  -0.312  0.00  0.00    +0.063 C 
BRANCH  14  22
ATOM     22  O   UNL     1       0.597   1.017  -0.335  0.00  0.00    -0.506 OA
ATOM     23  H   UNL     1       0.816   0.083  -0.455  0.00  0.00    +0.292 HD
ENDBRANCH  14  22
ENDBRANCH   1  13
BRANCH   1  24
ATOM     24  C   UNL     1      -0.015   4.532   1.341  0.00  0.00    -0.005 C 
ATOM     25  C   UNL     1      -1.373   5.237   1.379  0.00  0.00    +0.008 C 
ATOM     26  C   UNL     1       0.070   3.528   2.492  0.00  0.00    +0.008 C 
ENDBRANCH   1  24
TORSDOF 5
