REMARK  Name = ZINC40814022
REMARK  5 active torsions:
REMARK  status: ('A' for Active; 'I' for Inactive)
REMARK    1  A    between atoms: C_1  and  C_2
REMARK    2  A    between atoms: C_6  and  C_7
REMARK    3  A    between atoms: N_9  and  C_10
REMARK    4  A    between atoms: N_21  and  N_22
REMARK    5  A    between atoms: C_23  and  C_25
REMARK                            x       y       z     vdW  Elec       q    Type
REMARK                         _______ _______ _______ _____ _____    ______ ____
ROOT
ATOM      1  C   UNL     1      -0.014   1.502   0.010  0.00  0.00    +0.048 C 
ATOM      2  C   UNL     1      -0.004  -0.004   0.002  0.00  0.00    +0.009 A 
ATOM      3  C   UNL     1      -0.007  -0.839  -1.123  0.00  0.00    +0.042 A 
ATOM      4  C   UNL     1       0.004  -2.138  -0.672  0.00  0.00    +0.115 A 
ATOM      5  O   UNL     1       0.018  -2.112   0.658  0.00  0.00    -0.454 OA
ATOM      6  C   UNL     1       0.018  -0.831   1.091  0.00  0.00    +0.193 A 
ATOM      7  C   UNL     1      -0.001  -3.328  -1.599  0.00  0.00    +0.075 C 
ATOM      8  C   UNL     1      -0.528  -2.901  -2.971  0.00  0.00    +0.014 C 
ATOM      9  C   UNL     1       0.249  -1.688  -3.495  0.00  0.00    +0.058 C 
ATOM     10  C   UNL     1      -0.018  -0.513  -2.566  0.00  0.00    +0.070 C 
ATOM     11  N   UNL     1      -0.240   0.687  -3.007  0.00  0.00    -0.184 NA
ENDROOT
BRANCH   6  12
ATOM     12  C   UNL     1       0.034  -0.400   2.493  0.00  0.00    +0.284 C 
ATOM     13  O   UNL     1       0.030   0.786   2.765  0.00  0.00    -0.266 OA
ATOM     14  N   UNL     1       0.055  -1.317   3.480  0.00  0.00    -0.279 N 
ATOM     15  H   UNL     1      -0.009  -2.261   3.266  0.00  0.00    +0.155 HD
BRANCH  14  16
ATOM     16  C   UNL     1       0.168  -0.909   4.813  0.00  0.00    +0.034 A 
ATOM     17  C   UNL     1       0.889  -1.678   5.717  0.00  0.00    +0.025 A 
ATOM     18  C   UNL     1       1.000  -1.272   7.033  0.00  0.00    +0.022 A 
ATOM     19  C   UNL     1       0.393  -0.100   7.450  0.00  0.00    +0.041 A 
ATOM     20  C   UNL     1      -0.326   0.668   6.551  0.00  0.00    +0.022 A 
ATOM     21  C   UNL     1      -0.435   0.270   5.233  0.00  0.00    +0.025 A 
ATOM     22 CL   UNL     1       0.534   0.408   9.104  0.00  0.00    -0.084 Cl
ENDBRANCH  14  16
ENDBRANCH   6  12
BRANCH  11  23
ATOM     23  N   UNL     1      -0.239   0.938  -4.385  0.00  0.00    -0.203 N 
ATOM     24  C   UNL     1      -0.469   2.184  -4.844  0.00  0.00    +0.263 C 
ATOM     25  O   UNL     1      -0.678   3.090  -4.061  0.00  0.00    -0.268 OA
ATOM     26  H   UNL     1      -0.072   0.214  -5.010  0.00  0.00    +0.178 HD
BRANCH  24  27
ATOM     27  C   UNL     1      -0.468   2.449  -6.300  0.00  0.00    +0.041 A 
ATOM     28  C   UNL     1      -0.236   1.420  -7.218  0.00  0.00    +0.033 A 
ATOM     29  C   UNL     1      -0.243   1.712  -8.568  0.00  0.00    +0.111 A 
ATOM     30  N   UNL     1      -0.465   2.940  -8.994  0.00  0.00    -0.263 NA
ATOM     31  C   UNL     1      -0.689   3.939  -8.163  0.00  0.00    +0.111 A 
ATOM     32  C   UNL     1      -0.705   3.735  -6.797  0.00  0.00    +0.033 A 
ENDBRANCH  24  27
ENDBRANCH  11  23
TORSDOF 4
