REMARK  Name = ZINC63172381
REMARK  11 active torsions:
REMARK  status: ('A' for Active; 'I' for Inactive)
REMARK    1  A    between atoms: C_1  and  C_2
REMARK    2  A    between atoms: C_2  and  C_3
REMARK    3  A    between atoms: C_2  and  C_4
REMARK    4  A    between atoms: C_2  and  C_5
REMARK    5  A    between atoms: C_15  and  N_23
REMARK    6  A    between atoms: C_17  and  C_19
REMARK    7  A    between atoms: C_19  and  O_21
REMARK    8  A    between atoms: O_21  and  C_22
REMARK    9  A    between atoms: C_24  and  C_26
REMARK   10  A    between atoms: C_26  and  S_27
REMARK   11  A    between atoms: S_27  and  C_28
REMARK                            x       y       z     vdW  Elec       q    Type
REMARK                         _______ _______ _______ _____ _____    ______ ____
ROOT
ATOM      1  C   UNL     1       0.711  -0.260  -1.414  0.00  0.00    -0.004 C 
ATOM      2  C   UNL     1      -0.040   0.120  -2.696  0.00  0.00    +0.004 C 
ATOM      3  C   UNL     1       0.637  -0.580  -3.869  0.00  0.00    +0.006 C 
ATOM      4  C   UNL     1       2.081  -0.102  -4.047  0.00  0.00    +0.018 C 
ATOM      5  C   UNL     1       2.855  -0.187  -2.715  0.00  0.00    +0.053 C 
ATOM      6  C   UNL     1       2.126   0.308  -1.514  0.00  0.00    +0.018 C 
ATOM      7  S   UNL     1       3.102  -2.006  -2.602  0.00  0.00    -0.134 S 
ATOM      8  C   UNL     1       3.299  -2.338  -4.405  0.00  0.00    +0.145 C 
ATOM      9  C   UNL     1       2.727  -1.046  -5.079  0.00  0.00    +0.132 C 
ENDROOT
BRANCH   1  11
ATOM     10  C   UNL     1      -0.060   1.859  -0.339  0.00  0.00    +0.011 C 
ATOM     11  C   UNL     1      -0.002   0.337  -0.199  0.00  0.00    -0.035 C 
ATOM     12  C   UNL     1       0.764  -0.030   1.073  0.00  0.00    +0.011 C 
ATOM     13  C   UNL     1      -1.424  -0.222  -0.117  0.00  0.00    +0.011 C 
ENDBRANCH   1  11
BRANCH   8  14
ATOM     14  N   UNL     1       4.712  -2.518  -4.747  0.00  0.00    -0.302 N 
ATOM     15  C   UNL     1       5.164  -3.729  -5.129  0.00  0.00    +0.224 C 
ATOM     16  O   UNL     1       4.386  -4.647  -5.278  0.00  0.00    -0.275 OA
ATOM     17  H   UNL     1       5.323  -1.766  -4.698  0.00  0.00    +0.150 HD
BRANCH  15  18
ATOM     18  C   UNL     1       6.636  -3.942  -5.371  0.00  0.00    +0.168 C 
BRANCH  18  19
ATOM     19  S   UNL     1       6.924  -5.662  -5.869  0.00  0.00    -0.106 S 
BRANCH  19  20
ATOM     20  C   UNL     1       8.719  -5.752  -6.119  0.00  0.00    +0.236 C 
ATOM     21  N   UNL     1       9.419  -5.348  -4.893  0.00  0.00    -0.355 N 
ATOM     22  C   UNL     1      10.142  -4.305  -5.181  0.00  0.00    +0.061 A 
ATOM     23  C   UNL     1      11.048  -3.466  -4.385  0.00  0.00    +0.027 A 
ATOM     24  C   UNL     1      11.676  -2.426  -4.968  0.00  0.00    +0.002 A 
ATOM     25  C   UNL     1      11.504  -2.100  -6.325  0.00  0.00    +0.002 A 
ATOM     26  C   UNL     1      10.698  -2.804  -7.144  0.00  0.00    +0.027 A 
ATOM     27  C   UNL     1       9.960  -3.960  -6.618  0.00  0.00    +0.061 A 
ATOM     28  N   UNL     1       9.130  -4.804  -7.162  0.00  0.00    -0.355 N 
ATOM     29  H   UNL     1       9.354  -5.780  -4.027  0.00  0.00    +0.162 HD
ATOM     30  H   UNL     1       8.838  -4.806  -8.087  0.00  0.00    +0.162 HD
ENDBRANCH  19  20
ENDBRANCH  18  19
ENDBRANCH  15  18
ENDBRANCH   8  14
BRANCH   9  31
ATOM     31  C   UNL     1       3.848  -0.313  -5.772  0.00  0.00    +0.313 C 
ATOM     32  O   UNL     1       4.098   0.830  -5.473  0.00  0.00    -0.250 OA
BRANCH  31  33
ATOM     33  O   UNL     1       4.567  -0.932  -6.722  0.00  0.00    -0.468 OA
ATOM     34  C   UNL     1       5.614  -0.177  -7.337  0.00  0.00    +0.280 C 
ENDBRANCH  31  33
ENDBRANCH   9  31
TORSDOF 7
