REMARK  Name = ZINC04357003
REMARK  2 active torsions:
REMARK  status: ('A' for Active; 'I' for Inactive)
REMARK    1  A    between atoms: C_6  and  C_7
REMARK    2  A    between atoms: N_8  and  C_9
REMARK                            x       y       z     vdW  Elec       q    Type
REMARK                         _______ _______ _______ _____ _____    ______ ____
ROOT
ATOM      1  C   UNL     1      -1.228   3.144   0.030  0.00  0.00    +0.067 A 
ATOM      2  C   UNL     1      -1.201   1.742   0.017  0.00  0.00    +0.028 A 
ATOM      3  C   UNL     1      -0.013   1.076   0.008  0.00  0.00    +0.013 A 
ATOM      4  C   UNL     1       1.191   1.793   0.000  0.00  0.00    +0.018 A 
ATOM      5  C   UNL     1       2.480   1.099  -0.015  0.00  0.00    +0.018 A 
ATOM      6  C   UNL     1       3.613   1.848  -0.020  0.00  0.00    +0.092 A 
ATOM      7  C   UNL     1       3.524   3.255  -0.012  0.00  0.00    +0.337 A 
ATOM      8  O   UNL     1       4.548   3.915  -0.018  0.00  0.00    -0.245 OA
ATOM      9  O   UNL     1       2.339   3.886   0.002  0.00  0.00    -0.422 OA
ATOM     10  C   UNL     1       1.175   3.201   0.008  0.00  0.00    +0.141 A 
ATOM     11  C   UNL     1      -0.037   3.870   0.023  0.00  0.00    +0.074 A 
ENDROOT
BRANCH   1  13
ATOM     12  C   UNL     1      -3.388   3.419  -0.747  0.00  0.00    +0.119 C 
ATOM     13  N   UNL     1      -2.425   3.801   0.044  0.00  0.00    -0.255 NA
BRANCH  12  19
ATOM     14  C   UNL     1      -4.877   5.206   0.135  0.00  0.00    +0.011 A 
ATOM     15  C   UNL     1      -6.086   5.867   0.141  0.00  0.00    +0.020 A 
ATOM     16  C   UNL     1      -7.107   5.459  -0.702  0.00  0.00    +0.041 A 
ATOM     17  C   UNL     1      -6.919   4.387  -1.559  0.00  0.00    +0.020 A 
ATOM     18  C   UNL     1      -5.713   3.720  -1.580  0.00  0.00    +0.011 A 
ATOM     19  C   UNL     1      -4.678   4.127  -0.732  0.00  0.00    -0.007 A 
ATOM     20 CL   UNL     1      -8.629   6.294  -0.683  0.00  0.00    -0.084 Cl
ENDBRANCH  12  19
ENDBRANCH   1  13
TORSDOF 2
