REMARK  Name = ZINC44348467
REMARK  7 active torsions:
REMARK  status: ('A' for Active; 'I' for Inactive)
REMARK    1  A    between atoms: C_1  and  C_2
REMARK    2  A    between atoms: C_3  and  C_8
REMARK    3  A    between atoms: N_6  and  C_7
REMARK    4  A    between atoms: C_8  and  C_10
REMARK    5  A    between atoms: C_8  and  N_11
REMARK    6  A    between atoms: N_14  and  C_15
REMARK    7  A    between atoms: C_20  and  N_21
REMARK                            x       y       z     vdW  Elec       q    Type
REMARK                         _______ _______ _______ _____ _____    ______ ____
ROOT
ATOM      1  N   UNL     1      -0.105  -1.579  -3.668  0.00  0.00    -0.292 N 
ATOM      2  C   UNL     1      -0.673  -1.259  -4.848  0.00  0.00    +0.304 C 
ATOM      3  O   UNL     1      -0.275  -0.295  -5.473  0.00  0.00    -0.252 OA
ATOM      4  N   UNL     1      -1.683  -2.007  -5.335  0.00  0.00    -0.268 N 
ATOM      5  H   UNL     1      -0.423  -2.348  -3.170  0.00  0.00    +0.151 HD
ATOM      6  H   UNL     1      -1.947  -2.822  -4.878  0.00  0.00    +0.156 HD
ENDROOT
BRANCH   4   7
ATOM      7  C   UNL     1      -2.353  -1.609  -6.500  0.00  0.00    +0.056 A 
ATOM      8  C   UNL     1      -2.370  -0.272  -6.869  0.00  0.00    +0.025 A 
ATOM      9  C   UNL     1      -3.030   0.119  -8.019  0.00  0.00    +0.002 A 
ATOM     10  C   UNL     1      -3.675  -0.820  -8.804  0.00  0.00    +0.002 A 
ATOM     11  C   UNL     1      -3.663  -2.154  -8.444  0.00  0.00    +0.025 A 
ATOM     12  C   UNL     1      -2.998  -2.556  -7.295  0.00  0.00    +0.056 A 
BRANCH  12  13
ATOM     13  N   UNL     1      -2.979  -3.907  -6.931  0.00  0.00    -0.298 N 
ATOM     14  C   UNL     1      -3.980  -4.562  -6.084  0.00  0.00    +0.116 C 
ATOM     15  C   UNL     1      -3.523  -6.026  -5.979  0.00  0.00    +0.056 C 
ATOM     16  C   UNL     1      -2.256  -6.088  -6.803  0.00  0.00    -0.025 A 
ATOM     17  C   UNL     1      -2.008  -4.828  -7.325  0.00  0.00    +0.037 A 
ATOM     18  C   UNL     1      -0.884  -4.639  -8.132  0.00  0.00    +0.024 A 
ATOM     19  C   UNL     1      -0.039  -5.693  -8.406  0.00  0.00    +0.002 A 
ATOM     20  C   UNL     1      -0.298  -6.947  -7.883  0.00  0.00    +0.000 A 
ATOM     21  C   UNL     1      -1.404  -7.140  -7.075  0.00  0.00    +0.005 A 
ENDBRANCH  12  13
ENDBRANCH   4   7
BRANCH   1  22
ATOM     22  C   UNL     1       0.992  -0.765  -3.140  0.00  0.00    +0.105 C 
ATOM     23  C   UNL     1       2.316  -1.242  -3.740  0.00  0.00    +0.033 C 
BRANCH  22  26
ATOM     24  C   UNL     1       2.184   1.322  -1.137  0.00  0.00    +0.065 C 
ATOM     25  C   UNL     1       1.558   0.001  -0.774  0.00  0.00    +0.041 A 
ATOM     26  C   UNL     1       1.042  -0.903  -1.640  0.00  0.00    +0.013 A 
ATOM     27  C   UNL     1       0.563  -1.987  -0.897  0.00  0.00    +0.140 A 
ATOM     28  N   UNL     1       0.783  -1.743   0.370  0.00  0.00    -0.179 NA
ATOM     29  N   UNL     1       1.415  -0.497   0.472  0.00  0.00    -0.271 N 
ATOM     30  C   UNL     1       1.842   0.153   1.714  0.00  0.00    +0.172 C 
ENDBRANCH  22  26
ENDBRANCH   1  22
TORSDOF 4
