REMARK  Name = ZINC15289702
REMARK  6 active torsions:
REMARK  status: ('A' for Active; 'I' for Inactive)
REMARK    1  A    between atoms: C_1  and  C_2
REMARK    2  A    between atoms: C_3  and  N_11
REMARK    3  A    between atoms: C_7  and  N_8
REMARK    4  A    between atoms: C_12  and  C_14
REMARK    5  A    between atoms: C_14  and  N_15
REMARK    6  A    between atoms: N_15  and  C_16
REMARK                            x       y       z     vdW  Elec       q    Type
REMARK                         _______ _______ _______ _____ _____    ______ ____
ROOT
ATOM      1  N   UNL     1       0.352   0.973  -0.468  0.00  0.00    -0.284 N 
ATOM      2  C   UNL     1       0.610  -0.344  -0.597  0.00  0.00    +0.234 C 
ATOM      3  O   UNL     1       1.756  -0.739  -0.616  0.00  0.00    -0.274 OA
ATOM      4  H   UNL     1      -0.560   1.297  -0.532  0.00  0.00    +0.155 HD
ENDROOT
BRANCH   1   7
ATOM      5  C   UNL     1      -0.085   3.721  -1.065  0.00  0.00    +0.048 C 
ATOM      6  C   UNL     1       1.230   3.222  -0.525  0.00  0.00    +0.001 A 
ATOM      7  C   UNL     1       1.401   1.872  -0.247  0.00  0.00    +0.039 A 
ATOM      8  C   UNL     1       2.616   1.416   0.246  0.00  0.00    +0.024 A 
ATOM      9  C   UNL     1       3.650   2.307   0.463  0.00  0.00    +0.004 A 
ATOM     10  C   UNL     1       3.475   3.651   0.191  0.00  0.00    +0.033 A 
ATOM     11  C   UNL     1       2.265   4.108  -0.301  0.00  0.00    +0.131 A 
BRANCH  11  12
ATOM     12  N   UNL     1       2.083   5.548  -0.591  0.00  0.00    +0.057 N 
ATOM     13  O   UNL     1       3.033   6.307  -0.530  0.00  0.00    -0.126 OA
ATOM     14  O   UNL     1       0.982   5.973  -0.892  0.00  0.00    -0.126 OA
ENDBRANCH  11  12
ENDBRANCH   1   7
BRANCH   2  15
ATOM     15  C   UNL     1      -0.527  -1.325  -0.720  0.00  0.00    +0.198 C 
BRANCH  15  16
ATOM     16  N   UNL     1       0.011  -2.682  -0.848  0.00  0.00    -0.335 N 
ATOM     17  H   UNL     1       0.970  -2.826  -0.844  0.00  0.00    +0.147 HD
BRANCH  16  18
ATOM     18  C   UNL     1      -0.858  -3.769  -0.976  0.00  0.00    +0.041 A 
ATOM     19  C   UNL     1      -2.232  -3.565  -0.976  0.00  0.00    +0.024 A 
ATOM     20  C   UNL     1      -3.088  -4.641  -1.107  0.00  0.00    +0.002 A 
ATOM     21  C   UNL     1      -2.579  -5.921  -1.229  0.00  0.00    +0.001 A 
ATOM     22  C   UNL     1      -1.212  -6.128  -1.224  0.00  0.00    +0.016 A 
ATOM     23  C   UNL     1      -0.350  -5.056  -1.097  0.00  0.00    +0.034 A 
ATOM     24  I   UNL     1       1.721  -5.371  -1.089  0.00  0.00    -0.042 I 
ENDBRANCH  16  18
ENDBRANCH  15  16
ENDBRANCH   2  15
TORSDOF 5
