REMARK  Name = ZINC40163682
REMARK  2 active torsions:
REMARK  status: ('A' for Active; 'I' for Inactive)
REMARK    1  A    between atoms: C_3  and  C_6
REMARK    2  A    between atoms: C_13  and  C_15
REMARK                            x       y       z     vdW  Elec       q    Type
REMARK                         _______ _______ _______ _____ _____    ______ ____
ROOT
ATOM      1  C   UNL     1       3.734   1.823  -0.025  0.00  0.00    +0.090 A 
ATOM      2  C   UNL     1       4.742   1.172   0.748  0.00  0.00    +0.038 A 
ATOM      3  C   UNL     1       4.616   0.005   1.620  0.00  0.00    -0.026 A 
ATOM      4  C   UNL     1       5.737  -0.417   2.243  0.00  0.00    -0.004 A 
ATOM      5  S   UNL     1       7.009   0.698   1.714  0.00  0.00    -0.073 S 
ATOM      6  C   UNL     1       6.032   1.734   0.656  0.00  0.00    +0.113 A 
ATOM      7  N   UNL     1       6.272   2.790  -0.095  0.00  0.00    -0.224 NA
ATOM      8  C   UNL     1       5.299   3.352  -0.787  0.00  0.00    +0.145 A 
ATOM      9  N   UNL     1       4.068   2.879  -0.758  0.00  0.00    -0.230 NA
ATOM     10  C   UNL     1       5.871  -1.579   3.181  0.00  0.00    +0.043 C 
ATOM     11  C   UNL     1       4.465  -2.005   3.628  0.00  0.00    +0.005 C 
ATOM     12  C   UNL     1       3.568  -2.112   2.391  0.00  0.00    +0.005 C 
ATOM     13  C   UNL     1       3.288  -0.718   1.830  0.00  0.00    +0.037 C 
ENDROOT
BRANCH   1  16
ATOM     14  C   UNL     1       0.264   0.550  -0.814  0.00  0.00    +0.008 A 
ATOM     15  C   UNL     1       1.540   0.994  -1.071  0.00  0.00    +0.017 A 
ATOM     16  C   UNL     1       2.347   1.329  -0.013  0.00  0.00    +0.038 A 
ATOM     17  S   UNL     1       1.278   1.008   1.381  0.00  0.00    -0.095 S 
ATOM     18  C   UNL     1      -0.158   0.455   0.475  0.00  0.00    +0.046 A 
ENDBRANCH   1  16
BRANCH   8  19
ATOM     19  C   UNL     1       5.603   4.559  -1.637  0.00  0.00    +0.184 C 
ATOM     20 CL   UNL     1       6.075   4.025  -3.293  0.00  0.00    -0.117 Cl
ENDBRANCH   8  19
TORSDOF 2
