REMARK  Name = ZINC15731067
REMARK  4 active torsions:
REMARK  status: ('A' for Active; 'I' for Inactive)
REMARK    1  A    between atoms: C_10  and  C_11
REMARK    2  A    between atoms: C_10  and  N_61
REMARK    3  A    between atoms: N_14  and  S_17
REMARK    4  A    between atoms: S_17  and  C_20
REMARK                            x       y       z     vdW  Elec       q    Type
REMARK                         _______ _______ _______ _____ _____    ______ ____
ROOT
ATOM      1  C   UNL     1       0.069  -2.312   3.755  0.00  0.00    -0.025 C 
ATOM      2  C   UNL     1      -1.192  -2.156   2.901  0.00  0.00    +0.019 C 
ATOM      3  C   UNL     1      -1.230  -0.745   2.307  0.00  0.00    +0.109 C 
ATOM      4  N   UNL     1       0.024  -0.502   1.581  0.00  0.00    -0.177 NA
ATOM      5  C   UNL     1       1.298  -0.716   2.281  0.00  0.00    +0.109 C 
ATOM      6  C   UNL     1       1.308  -2.123   2.877  0.00  0.00    +0.019 C 
ENDROOT
BRANCH   4   7
ATOM      7  S   UNL     1       0.002  -0.004   0.002  0.00  0.00    +0.061 S 
ATOM      8  O   UNL     1      -1.243  -0.424  -0.539  0.00  0.00    -0.153 OA
ATOM      9  O   UNL     1       1.248  -0.390  -0.563  0.00  0.00    -0.153 OA
BRANCH   7  10
ATOM     10  C   UNL     1      -0.022   1.758   0.012  0.00  0.00    +0.107 A 
ATOM     11  C   UNL     1       1.169   2.462   0.004  0.00  0.00    +0.030 A 
ATOM     12  C   UNL     1       1.160   3.845   0.013  0.00  0.00    +0.018 A 
ATOM     13  C   UNL     1      -0.048   4.523   0.028  0.00  0.00    +0.029 A 
ATOM     14  C   UNL     1      -1.248   3.814   0.034  0.00  0.00    +0.049 A 
ATOM     15  C   UNL     1      -1.231   2.429   0.021  0.00  0.00    +0.053 A 
ATOM     16  N   UNL     1      -2.463   4.516   0.044  0.00  0.00    -0.284 N 
ATOM     17  C   UNL     1      -2.687   5.492  -0.845  0.00  0.00    +0.218 C 
ATOM     18  O   UNL     1      -3.651   6.215  -0.704  0.00  0.00    -0.275 OA
ATOM     19  C   UNL     1      -1.769   5.708  -2.011  0.00  0.00    +0.107 C 
ATOM     20  C   UNL     1      -0.655   6.703  -1.642  0.00  0.00    +0.083 C 
ATOM     21  S   UNL     1      -0.090   6.286   0.042  0.00  0.00    -0.123 S 
ATOM     22  H   UNL     1      -3.144   4.292   0.698  0.00  0.00    +0.155 HD
ENDBRANCH   7  10
ENDBRANCH   4   7
BRANCH   1  23
ATOM     23  C   UNL     1       0.094  -3.709   4.377  0.00  0.00    -0.075 C 
BRANCH  23  33
ATOM     24  C   UNL     1       4.259  -3.396   9.263  0.00  0.00    +0.000 A 
ATOM     25  C   UNL     1       3.457  -2.270   9.288  0.00  0.00    +0.000 A 
ATOM     26  C   UNL     1       2.435  -2.133   8.370  0.00  0.00    +0.002 A 
ATOM     27  C   UNL     1       2.208  -3.119   7.421  0.00  0.00    -0.061 A 
ATOM     28  C   UNL     1       3.010  -4.239   7.394  0.00  0.00    -0.048 A 
ATOM     29  C   UNL     1       4.035  -4.377   8.318  0.00  0.00    +0.004 A 
ATOM     30  C   UNL     1       2.809  -5.331   6.375  0.00  0.00    +0.017 C 
ATOM     31  C   UNL     1       1.423  -5.206   5.742  0.00  0.00    -0.074 C 
ATOM     32  C   UNL     1       1.079  -2.926   6.443  0.00  0.00    -0.043 C 
ATOM     33  N   UNL     1       1.260  -3.812   5.281  0.00  0.00    +0.383 N 
ATOM     34  H   UNL     1       2.104  -3.527   4.770  0.00  0.00    -0.081 HD
ENDBRANCH  23  33
ENDBRANCH   1  23
TORSDOF 4
