REMARK  Name = ZINC02204696
REMARK  7 active torsions:
REMARK  status: ('A' for Active; 'I' for Inactive)
REMARK    1  A    between atoms: C_1  and  C_2
REMARK    2  A    between atoms: C_3  and  C_22
REMARK    3  A    between atoms: C_4  and  C_21
REMARK    4  A    between atoms: C_8  and  N_20
REMARK    5  A    between atoms: C_9  and  C_11
REMARK    6  A    between atoms: C_11  and  C_13
REMARK    7  A    between atoms: C_22  and  C_23
REMARK                            x       y       z     vdW  Elec       q    Type
REMARK                         _______ _______ _______ _____ _____    ______ ____
ROOT
ATOM      1  C   UNL     1      -1.927  -0.558   1.074  0.00  0.00    +0.045 C 
ATOM      2  C   UNL     1      -1.593   0.788   1.662  0.00  0.00    -0.034 A 
ATOM      3  C   UNL     1      -0.897   1.718   0.925  0.00  0.00    -0.019 A 
ATOM      4  C   UNL     1      -0.585   2.954   1.471  0.00  0.00    +0.043 A 
ATOM      5  N   UNL     1      -0.962   3.258   2.698  0.00  0.00    -0.244 NA
ATOM      6  C   UNL     1      -1.630   2.403   3.442  0.00  0.00    +0.111 A 
ATOM      7  C   UNL     1      -1.991   1.116   2.982  0.00  0.00    +0.032 A 
ATOM      8  C   UNL     1      -2.727   0.302   3.936  0.00  0.00    +0.052 A 
ATOM      9  C   UNL     1      -3.004   0.840   5.178  0.00  0.00    +0.083 A 
ATOM     10  S   UNL     1      -2.277   2.465   5.095  0.00  0.00    -0.064 S 
ATOM     11  C   UNL     1       0.184   3.960   0.654  0.00  0.00    +0.066 C 
ENDROOT
BRANCH   8  12
ATOM     12  N   UNL     1      -3.141  -0.979   3.608  0.00  0.00    -0.356 N 
ATOM     13  H   UNL     1      -2.693  -1.467   2.900  0.00  0.00    +0.142 HD
ATOM     14  H   UNL     1      -3.878  -1.389   4.088  0.00  0.00    +0.142 HD
ENDBRANCH   8  12
BRANCH   9  15
ATOM     15  C   UNL     1      -3.698   0.244   6.257  0.00  0.00    +0.202 C 
ATOM     16  O   UNL     1      -4.241  -0.836   6.110  0.00  0.00    -0.286 OA
BRANCH  15  17
ATOM     17  C   UNL     1      -3.764   0.933   7.564  0.00  0.00    +0.023 A 
ATOM     18  C   UNL     1      -2.757   1.824   7.939  0.00  0.00    +0.013 A 
ATOM     19  C   UNL     1      -2.827   2.469   9.156  0.00  0.00    +0.016 A 
ATOM     20  C   UNL     1      -3.888   2.224  10.012  0.00  0.00    +0.018 A 
ATOM     21  C   UNL     1      -4.887   1.336   9.649  0.00  0.00    +0.016 A 
ATOM     22  C   UNL     1      -4.831   0.691   8.431  0.00  0.00    +0.013 A 
ATOM     23 BR   UNL     1      -3.973   3.105  11.683  0.00  0.00    -0.050 Br
ENDBRANCH  15  17
ENDBRANCH   9  15
BRANCH   3  24
ATOM     24  C   UNL     1      -0.465   1.389  -0.480  0.00  0.00    +0.063 C 
BRANCH  24  25
ATOM     25  C   UNL     1      -1.544   1.802  -1.447  0.00  0.00    -0.030 C 
ATOM     26  C   UNL     1      -1.262   2.607  -2.441  0.00  0.00    +0.004 C 
ENDBRANCH  24  25
ENDBRANCH   3  24
TORSDOF 5
