REMARK  Name = ZINC21918841
REMARK  17 active torsions:
REMARK  status: ('A' for Active; 'I' for Inactive)
REMARK    1  A    between atoms: C_1  and  C_2
REMARK    2  A    between atoms: C_2  and  C_3
REMARK    3  A    between atoms: C_3  and  N_4
REMARK    4  A    between atoms: N_4  and  C_5
REMARK    5  A    between atoms: N_4  and  C_12
REMARK    6  A    between atoms: C_5  and  C_6
REMARK    7  A    between atoms: C_12  and  C_13
REMARK    8  A    between atoms: N_15  and  C_16
REMARK    9  A    between atoms: N_15  and  C_20
REMARK   10  A    between atoms: C_16  and  C_17
REMARK   11  A    between atoms: C_17  and  C_18
REMARK   12  A    between atoms: C_17  and  C_19
REMARK   13  A    between atoms: C_21  and  N_33
REMARK   14  A    between atoms: N_22  and  C_29
REMARK   15  A    between atoms: C_29  and  C_30
REMARK   16  A    between atoms: C_30  and  C_31
REMARK   17  A    between atoms: C_30  and  C_32
REMARK                            x       y       z     vdW  Elec       q    Type
REMARK                         _______ _______ _______ _____ _____    ______ ____
ROOT
ATOM      1  C   UNL     1       0.642  -2.591   2.956  0.00  0.00    +0.203 C 
ATOM      2  O   UNL     1       0.012  -1.901   3.729  0.00  0.00    -0.277 OA
ATOM      3  N   UNL     1       0.951  -3.863   3.283  0.00  0.00    -0.266 N 
ENDROOT
BRANCH   3   4
ATOM      4  C   UNL     1       0.451  -4.425   4.477  0.00  0.00    +0.140 A 
ATOM      5  C   UNL     1       0.781  -3.880   5.701  0.00  0.00    +0.127 A 
ATOM      6  N   UNL     1       0.278  -4.450   6.848  0.00  0.00    -0.280 N 
ATOM      7  C   UNL     1      -0.525  -5.527   6.777  0.00  0.00    +0.331 A 
ATOM      8  O   UNL     1      -0.959  -6.016   7.802  0.00  0.00    -0.246 OA
ATOM      9  N   UNL     1      -0.857  -6.072   5.593  0.00  0.00    -0.273 N 
ATOM     10  H   UNL     1      -1.511  -6.955   5.558  0.00  0.00    +0.173 HD
ATOM     11  C   UNL     1      -0.396  -5.548   4.440  0.00  0.00    +0.277 A 
ATOM     12  O   UNL     1      -0.707  -6.047   3.372  0.00  0.00    -0.266 OA
BRANCH   5  13
ATOM     13  N   UNL     1       1.602  -2.780   5.774  0.00  0.00    -0.343 N 
ATOM     14  H   UNL     1       1.860  -2.350   6.753  0.00  0.00    +0.144 HD
ATOM     15  H   UNL     1       2.000  -2.329   4.853  0.00  0.00    +0.144 HD
ENDBRANCH   5  13
BRANCH   6  16
ATOM     16  C   UNL     1       0.619  -3.881   8.154  0.00  0.00    +0.131 C 
BRANCH  16  17
ATOM     17  C   UNL     1      -0.415  -2.819   8.533  0.00  0.00    +0.003 C 
ATOM     18  C   UNL     1      -0.131  -2.313   9.949  0.00  0.00    +0.009 C 
ATOM     19  C   UNL     1      -0.331  -1.651   7.548  0.00  0.00    +0.009 C 
ENDBRANCH  16  17
ENDBRANCH   6  16
ENDBRANCH   3   4
BRANCH   1  20
ATOM     20  C   UNL     1       1.081  -2.027   1.629  0.00  0.00    +0.020 C 
BRANCH  20  21
ATOM     21  N   UNL     1       0.591  -0.649   1.496  0.00  0.00    +0.388 N 
ATOM     22  H   UNL     1      -0.443  -0.620   1.872  0.00  0.00    -0.081 HD
BRANCH  21  23
ATOM     23  C   UNL     1       0.571  -0.230   0.089  0.00  0.00    -0.078 C 
BRANCH  23  25
ATOM     24  C   UNL     1      -0.567  -0.535  -2.115  0.00  0.00    +0.002 C 
ATOM     25  C   UNL     1      -0.560  -0.955  -0.644  0.00  0.00    -0.022 C 
ENDBRANCH  23  25
ENDBRANCH  21  23
BRANCH  21  26
ATOM     26  C   UNL     1       1.392   0.276   2.310  0.00  0.00    -0.042 C 
BRANCH  26  27
ATOM     27  C   UNL     1       0.720   1.624   2.346  0.00  0.00    -0.064 A 
ATOM     28  C   UNL     1       1.026   2.575   1.390  0.00  0.00    +0.002 A 
ATOM     29  C   UNL     1       0.406   3.810   1.421  0.00  0.00    +0.000 A 
ATOM     30  C   UNL     1      -0.512   4.098   2.413  0.00  0.00    +0.000 A 
ATOM     31  C   UNL     1      -0.814   3.150   3.372  0.00  0.00    +0.000 A 
ATOM     32  C   UNL     1      -0.198   1.913   3.339  0.00  0.00    +0.002 A 
ENDBRANCH  26  27
ENDBRANCH  21  26
ENDBRANCH  20  21
ENDBRANCH   1  20
BRANCH   3  33
ATOM     33  C   UNL     1       1.805  -4.660   2.400  0.00  0.00    +0.117 C 
BRANCH  33  34
ATOM     34  C   UNL     1       3.274  -4.363   2.705  0.00  0.00    +0.001 C 
ATOM     35  C   UNL     1       3.614  -4.864   4.110  0.00  0.00    +0.009 C 
ATOM     36  C   UNL     1       4.162  -5.074   1.682  0.00  0.00    +0.009 C 
ENDBRANCH  33  34
ENDBRANCH   3  33
TORSDOF 12
