REMARK  Name = ZINC11620863
REMARK  4 active torsions:
REMARK  status: ('A' for Active; 'I' for Inactive)
REMARK    1  A    between atoms: C_3  and  N_16
REMARK    2  A    between atoms: C_4  and  N_8
REMARK    3  A    between atoms: N_8  and  C_9
REMARK    4  A    between atoms: C_9  and  C_10
REMARK                            x       y       z     vdW  Elec       q    Type
REMARK                         _______ _______ _______ _____ _____    ______ ____
ROOT
ATOM      1  C   UNL     1       1.044   0.115  -3.990  0.00  0.00    +0.022 A 
ATOM      2  C   UNL     1       0.771   0.865  -2.860  0.00  0.00    +0.026 A 
ATOM      3  C   UNL     1      -0.503   0.858  -2.315  0.00  0.00    +0.051 A 
ATOM      4  C   UNL     1      -1.507   0.089  -2.905  0.00  0.00    +0.050 A 
ATOM      5  C   UNL     1      -1.227  -0.656  -4.040  0.00  0.00    +0.044 A 
ATOM      6  C   UNL     1       0.049  -0.644  -4.578  0.00  0.00    +0.043 A 
ATOM      7 CL   UNL     1       0.399  -1.583  -5.995  0.00  0.00    -0.083 Cl
ENDROOT
BRANCH   3   8
ATOM      8  N   UNL     1      -0.781   1.617  -1.171  0.00  0.00    -0.328 N 
ATOM      9  C   UNL     1      -1.737   2.712  -1.478  0.00  0.00    +0.105 C 
ATOM     10  C   UNL     1      -1.534   3.739  -0.343  0.00  0.00    +0.020 C 
ATOM     11  C   UNL     1      -0.101   3.479   0.177  0.00  0.00    +0.020 C 
ATOM     12  C   UNL     1       0.436   2.319  -0.689  0.00  0.00    +0.105 C 
ENDBRANCH   3   8
BRANCH   4  13
ATOM     13  N   UNL     1      -2.794   0.075  -2.356  0.00  0.00    -0.334 N 
ATOM     14  H   UNL     1      -3.007   0.649  -1.603  0.00  0.00    +0.147 HD
BRANCH  13  15
ATOM     15  C   UNL     1      -3.820  -0.808  -2.917  0.00  0.00    +0.198 C 
BRANCH  15  16
ATOM     16  C   UNL     1      -5.106  -0.634  -2.151  0.00  0.00    +0.237 C 
ATOM     17  O   UNL     1      -5.161   0.150  -1.228  0.00  0.00    -0.274 OA
ATOM     18  N   UNL     1      -6.196  -1.349  -2.493  0.00  0.00    -0.239 N 
ATOM     19  C   UNL     1      -7.347  -1.194  -1.808  0.00  0.00    +0.303 C 
ATOM     20  O   UNL     1      -7.401  -0.408  -0.883  0.00  0.00    -0.253 OA
ATOM     21  N   UNL     1      -8.436  -1.909  -2.150  0.00  0.00    -0.313 N 
ATOM     22  H   UNL     1      -6.153  -1.976  -3.232  0.00  0.00    +0.159 HD
ATOM     23  H   UNL     1      -8.393  -2.536  -2.889  0.00  0.00    +0.146 HD
ATOM     24  H   UNL     1      -9.264  -1.797  -1.657  0.00  0.00    +0.146 HD
ENDBRANCH  15  16
ENDBRANCH  13  15
ENDBRANCH   4  13
TORSDOF 4
