REMARK  Name = ZINC02751929
REMARK  5 active torsions:
REMARK  status: ('A' for Active; 'I' for Inactive)
REMARK    1  A    between atoms: C_1  and  C_2
REMARK    2  A    between atoms: C_5  and  N_8
REMARK    3  A    between atoms: C_12  and  C_13
REMARK    4  A    between atoms: C_16  and  O_19
REMARK    5  A    between atoms: O_19  and  C_20
REMARK                            x       y       z     vdW  Elec       q    Type
REMARK                         _______ _______ _______ _____ _____    ______ ____
ROOT
ATOM      1  N   UNL     1       3.034   7.441  -0.283  0.00  0.00    -0.217 N 
ATOM      2  C   UNL     1       3.535   6.190  -0.290  0.00  0.00    +0.271 C 
ATOM      3  O   UNL     1       4.705   5.872  -0.402  0.00  0.00    -0.268 OA
ATOM      4  C   UNL     1       2.385   5.286  -0.139  0.00  0.00    +0.097 C 
ATOM      5  C   UNL     1       2.402   3.930  -0.094  0.00  0.00    +0.036 C 
ATOM      6  N   UNL     1       1.268   6.126  -0.044  0.00  0.00    -0.292 N 
ATOM      7  C   UNL     1       1.701   7.396  -0.135  0.00  0.00    +0.148 C 
ATOM      8  S   UNL     1       0.685   8.773  -0.070  0.00  0.00    -0.018 S 
ATOM      9  H   UNL     1       0.347   5.843   0.067  0.00  0.00    +0.154 HD
ENDROOT
BRANCH   1  14
ATOM     10  C   UNL     1       6.102  12.189  -0.782  0.00  0.00    +0.044 C 
ATOM     11  C   UNL     1       5.287  10.928  -0.649  0.00  0.00    -0.050 A 
ATOM     12  C   UNL     1       5.542  10.047   0.386  0.00  0.00    +0.005 A 
ATOM     13  C   UNL     1       4.797   8.891   0.510  0.00  0.00    +0.024 A 
ATOM     14  C   UNL     1       3.791   8.614  -0.406  0.00  0.00    +0.043 A 
ATOM     15  C   UNL     1       3.541   9.498  -1.447  0.00  0.00    +0.024 A 
ATOM     16  C   UNL     1       4.285  10.655  -1.562  0.00  0.00    +0.005 A 
ENDBRANCH   1  14
BRANCH   5  17
ATOM     17  C   UNL     1       1.141   3.178  -0.121  0.00  0.00    -0.023 A 
ATOM     18  C   UNL     1      -0.013   3.759  -0.662  0.00  0.00    +0.011 A 
ATOM     19  C   UNL     1      -1.192   3.050  -0.683  0.00  0.00    +0.046 A 
ATOM     20  C   UNL     1      -1.241   1.762  -0.165  0.00  0.00    +0.127 A 
ATOM     21  C   UNL     1      -0.098   1.178   0.369  0.00  0.00    +0.046 A 
ATOM     22  C   UNL     1       1.087   1.878   0.396  0.00  0.00    +0.011 A 
BRANCH  20  23
ATOM     23  O   UNL     1      -2.409   1.069  -0.184  0.00  0.00    -0.434 OA
BRANCH  23  24
ATOM     24  C   UNL     1      -2.389  -0.250   0.365  0.00  0.00    +0.541 C 
ATOM     25  F   UNL     1      -1.474  -1.037  -0.342  0.00  0.00    -0.166 F 
ATOM     26  F   UNL     1      -2.010  -0.190   1.711  0.00  0.00    -0.166 F 
ENDBRANCH  23  24
ENDBRANCH  20  23
ENDBRANCH   5  17
TORSDOF 4
