REMARK  Name = ZINC01412475
REMARK  6 active torsions:
REMARK  status: ('A' for Active; 'I' for Inactive)
REMARK    1  A    between atoms: C_1  and  N_46
REMARK    2  A    between atoms: C_2  and  N_46
REMARK    3  A    between atoms: C_3  and  C_4
REMARK    4  A    between atoms: C_3  and  N_46
REMARK    5  A    between atoms: C_5  and  C_22
REMARK    6  A    between atoms: C_13  and  C_15
REMARK                            x       y       z     vdW  Elec       q    Type
REMARK                         _______ _______ _______ _____ _____    ______ ____
ROOT
ATOM      1  C   UNL     1       2.866   1.367  -0.700  0.00  0.00    -0.031 C 
ATOM      2  C   UNL     1       4.165   1.643  -0.693  0.00  0.00    +0.140 C 
ATOM      3  O   UNL     1       5.009   1.121   0.225  0.00  0.00    -0.455 OA
ATOM      4  C   UNL     1       4.646   0.017   0.922  0.00  0.00    +0.133 A 
ATOM      5  C   UNL     1       5.619  -0.743   1.560  0.00  0.00    +0.046 A 
ATOM      6  C   UNL     1       5.260  -1.869   2.273  0.00  0.00    +0.004 A 
ATOM      7  C   UNL     1       3.931  -2.243   2.353  0.00  0.00    +0.001 A 
ATOM      8  C   UNL     1       2.960  -1.490   1.720  0.00  0.00    +0.008 A 
ATOM      9  C   UNL     1       3.314  -0.360   1.005  0.00  0.00    +0.006 A 
ATOM     10  C   UNL     1       2.248   0.453   0.320  0.00  0.00    +0.080 C 
ENDROOT
BRANCH  10  11
ATOM     11  C   UNL     1       1.512   1.275   1.346  0.00  0.00    -0.036 A 
ATOM     12  C   UNL     1       0.151   1.106   1.519  0.00  0.00    +0.007 A 
ATOM     13  C   UNL     1      -0.526   1.863   2.456  0.00  0.00    +0.038 A 
ATOM     14  C   UNL     1       0.161   2.784   3.229  0.00  0.00    +0.123 A 
ATOM     15  C   UNL     1       1.524   2.953   3.054  0.00  0.00    +0.038 A 
ATOM     16  C   UNL     1       2.198   2.198   2.113  0.00  0.00    +0.007 A 
ATOM     17  F   UNL     1      -0.500   3.522   4.148  0.00  0.00    -0.205 F 
ENDBRANCH  10  11
BRANCH   2  18
ATOM     18  C   UNL     1       4.706   2.548  -1.723  0.00  0.00    +0.054 A 
ATOM     19  C   UNL     1       5.554   3.615  -1.576  0.00  0.00    +0.019 A 
ATOM     20  C   UNL     1       5.928   4.322  -2.697  0.00  0.00    +0.008 A 
ATOM     21  C   UNL     1       5.447   3.943  -3.909  0.00  0.00    +0.046 A 
ATOM     22  S   UNL     1       4.433   2.536  -3.487  0.00  0.00    -0.094 S 
ENDBRANCH   2  18
BRANCH   1  23
ATOM     23  C   UNL     1       1.990   1.986  -1.758  0.00  0.00    -0.044 C 
BRANCH  23  26
ATOM     24  C   UNL     1       0.887   1.538  -3.867  0.00  0.00    -0.096 C 
ATOM     25  C   UNL     1       2.656   0.077  -3.091  0.00  0.00    -0.096 C 
ATOM     26  N   UNL     1       1.520   0.928  -2.678  0.00  0.00    +0.379 N 
ATOM     27  H   UNL     1       0.828   0.347  -2.192  0.00  0.00    -0.082 HD
ENDBRANCH  23  26
ENDBRANCH   1  23
TORSDOF 4
