REMARK  Name = ZINC38718364
REMARK  6 active torsions:
REMARK  status: ('A' for Active; 'I' for Inactive)
REMARK    1  A    between atoms: C_1  and  C_2
REMARK    2  A    between atoms: C_7  and  S_18
REMARK    3  A    between atoms: C_12  and  C_14
REMARK    4  A    between atoms: S_18  and  N_21
REMARK    5  A    between atoms: N_21  and  C_22
REMARK    6  A    between atoms: C_26  and  C_28
REMARK                            x       y       z     vdW  Elec       q    Type
REMARK                         _______ _______ _______ _____ _____    ______ ____
ROOT
ATOM      1  S   UNL     1       5.673  -2.347  -1.076  0.00  0.00    +0.072 S 
ATOM      2  O   UNL     1       6.145  -3.181  -0.027  0.00  0.00    -0.150 OA
ATOM      3  O   UNL     1       5.321  -2.857  -2.355  0.00  0.00    -0.150 OA
ENDROOT
BRANCH   1   9
ATOM      4  C   UNL     1       0.074   2.440  -0.503  0.00  0.00    +0.029 C 
ATOM      5  C   UNL     1       0.177   0.915  -0.445  0.00  0.00    +0.083 C 
ATOM      6  C   UNL     1       1.091   0.399  -1.568  0.00  0.00    +0.059 C 
ATOM      7  C   UNL     1       2.225  -0.296  -0.847  0.00  0.00    -0.022 A 
ATOM      8  C   UNL     1       3.342  -0.949  -1.332  0.00  0.00    +0.034 A 
ATOM      9  C   UNL     1       4.250  -1.514  -0.456  0.00  0.00    +0.109 A 
ATOM     10  C   UNL     1       4.038  -1.424   0.907  0.00  0.00    +0.030 A 
ATOM     11  C   UNL     1       2.926  -0.773   1.395  0.00  0.00    +0.026 A 
ATOM     12  C   UNL     1       2.004  -0.200   0.517  0.00  0.00    +0.040 A 
ATOM     13  N   UNL     1       0.822   0.496   0.802  0.00  0.00    -0.261 N 
ATOM     14  C   UNL     1       0.348   0.745   2.039  0.00  0.00    +0.324 C 
ATOM     15  O   UNL     1      -0.735   1.273   2.178  0.00  0.00    -0.265 OA
BRANCH  14  16
ATOM     16  C   UNL     1       1.163   0.367   3.248  0.00  0.00    +0.470 C 
ATOM     17  F   UNL     1       0.529   0.837   4.403  0.00  0.00    -0.162 F 
ATOM     18  F   UNL     1       1.281  -1.026   3.315  0.00  0.00    -0.162 F 
ATOM     19  F   UNL     1       2.437   0.938   3.150  0.00  0.00    -0.162 F 
ENDBRANCH  14  16
ENDBRANCH   1   9
BRANCH   1  20
ATOM     20  N   UNL     1       6.840  -1.200  -1.330  0.00  0.00    -0.216 N 
ATOM     21  H   UNL     1       7.670  -1.232  -0.828  0.00  0.00    +0.174 HD
BRANCH  20  22
ATOM     22  C   UNL     1       6.631  -0.186  -2.268  0.00  0.00    +0.049 A 
ATOM     23  C   UNL     1       6.113  -0.493  -3.521  0.00  0.00    +0.024 A 
ATOM     24  C   UNL     1       5.904   0.507  -4.450  0.00  0.00    +0.002 A 
ATOM     25  C   UNL     1       6.209   1.818  -4.141  0.00  0.00    +0.010 A 
ATOM     26  C   UNL     1       6.729   2.135  -2.887  0.00  0.00    +0.004 A 
ATOM     27  C   UNL     1       6.934   1.129  -1.947  0.00  0.00    +0.034 A 
BRANCH  26  28
ATOM     28  C   UNL     1       7.059   3.543  -2.554  0.00  0.00    +0.090 A 
ATOM     29  C   UNL     1       6.811   4.624  -3.332  0.00  0.00    +0.121 A 
ATOM     30  N   UNL     1       7.272   5.746  -2.653  0.00  0.00    -0.300 N 
ATOM     31  C   UNL     1       7.340   7.108  -2.850  0.00  0.00    +0.100 A 
ATOM     32  C   UNL     1       7.880   7.905  -1.930  0.00  0.00    +0.067 A 
ATOM     33  S   UNL     1       8.354   6.738  -0.663  0.00  0.00    -0.058 S 
ATOM     34  C   UNL     1       7.784   5.264  -1.477  0.00  0.00    +0.178 A 
ATOM     35  N   UNL     1       7.652   3.971  -1.420  0.00  0.00    -0.221 NA
ENDBRANCH  26  28
ENDBRANCH  20  22
ENDBRANCH   1  20
TORSDOF 5
