REMARK  Name = ZINC24428391
REMARK  9 active torsions:
REMARK  status: ('A' for Active; 'I' for Inactive)
REMARK    1  A    between atoms: C_1  and  C_2
REMARK    2  A    between atoms: C_4  and  C_25
REMARK    3  A    between atoms: C_6  and  S_9
REMARK    4  A    between atoms: C_7  and  C_8
REMARK    5  A    between atoms: S_9  and  N_12
REMARK    6  A    between atoms: N_12  and  C_13
REMARK    7  A    between atoms: C_15  and  C_21
REMARK    8  A    between atoms: C_21  and  O_23
REMARK    9  A    between atoms: O_23  and  C_24
REMARK                            x       y       z     vdW  Elec       q    Type
REMARK                         _______ _______ _______ _____ _____    ______ ____
ROOT
ATOM      1  S   UNL     1      -5.336   0.872   0.099  0.00  0.00    +0.073 S 
ATOM      2  O   UNL     1      -6.156   1.215  -1.010  0.00  0.00    -0.150 OA
ATOM      3  O   UNL     1      -4.961  -0.469   0.383  0.00  0.00    -0.150 OA
ENDROOT
BRANCH   1   9
ATOM      4  C   UNL     1      -2.781   5.363  -0.684  0.00  0.00    +0.044 C 
ATOM      5  C   UNL     1      -2.719   3.877  -0.441  0.00  0.00    -0.045 A 
ATOM      6  C   UNL     1      -1.496   3.244  -0.358  0.00  0.00    +0.018 A 
ATOM      7  C   UNL     1      -1.441   1.867  -0.132  0.00  0.00    +0.065 A 
ATOM      8  C   UNL     1      -2.625   1.140   0.003  0.00  0.00    +0.044 A 
ATOM      9  C   UNL     1      -3.841   1.787  -0.077  0.00  0.00    +0.112 A 
ATOM     10  C   UNL     1      -3.889   3.151  -0.301  0.00  0.00    -0.021 A 
ATOM     11  C   UNL     1      -5.221   3.850  -0.394  0.00  0.00    +0.046 C 
BRANCH   7  12
ATOM     12  C   UNL     1      -0.135   1.183  -0.042  0.00  0.00    +0.387 C 
ATOM     13  O   UNL     1      -0.090  -0.015   0.155  0.00  0.00    -0.241 OA
ATOM     14  O   UNL     1       1.005   1.885  -0.183  0.00  0.00    -0.241 OA
ENDBRANCH   7  12
ENDBRANCH   1   9
BRANCH   1  15
ATOM     15  N   UNL     1      -6.104   1.444   1.450  0.00  0.00    -0.213 N 
ATOM     16  H   UNL     1      -7.047   2.002   1.353  0.00  0.00    +0.174 HD
BRANCH  15  17
ATOM     17  C   UNL     1      -5.553   1.218   2.717  0.00  0.00    +0.084 A 
ATOM     18  C   UNL     1      -4.179   1.221   2.884  0.00  0.00    +0.045 A 
ATOM     19  C   UNL     1      -3.632   0.995   4.151  0.00  0.00    +0.096 A 
ATOM     20  C   UNL     1      -4.478   0.767   5.242  0.00  0.00    +0.140 A 
ATOM     21  C   UNL     1      -5.849   0.766   5.064  0.00  0.00    +0.079 A 
ATOM     22  C   UNL     1      -6.388   0.995   3.810  0.00  0.00    +0.148 A 
ATOM     23  F   UNL     1      -7.729   0.999   3.644  0.00  0.00    -0.203 F 
ATOM     24  F   UNL     1      -3.955   0.547   6.468  0.00  0.00    -0.205 F 
BRANCH  19  25
ATOM     25  C   UNL     1      -2.170   0.997   4.336  0.00  0.00    +0.342 C 
ATOM     26  O   UNL     1      -1.697   0.801   5.438  0.00  0.00    -0.245 OA
BRANCH  25  27
ATOM     27  O   UNL     1      -1.358   1.218   3.283  0.00  0.00    -0.464 OA
ATOM     28  C   UNL     1       0.071   1.206   3.540  0.00  0.00    +0.280 C 
ENDBRANCH  25  27
ENDBRANCH  19  25
ENDBRANCH  15  17
ENDBRANCH   1  15
TORSDOF 6
