REMARK  Name = ZINC63636820
REMARK  8 active torsions:
REMARK  status: ('A' for Active; 'I' for Inactive)
REMARK    1  A    between atoms: C_1  and  C_2
REMARK    2  A    between atoms: C_5  and  C_9
REMARK    3  A    between atoms: C_6  and  C_8
REMARK    4  A    between atoms: C_11  and  C_26
REMARK    5  A    between atoms: C_12  and  C_14
REMARK    6  A    between atoms: N_16  and  N_17
REMARK    7  A    between atoms: C_18  and  C_20
REMARK    8  A    between atoms: N_24  and  C_25
REMARK                            x       y       z     vdW  Elec       q    Type
REMARK                         _______ _______ _______ _____ _____    ______ ____
ROOT
ATOM      1  C   UNL     1      -0.295  -3.487  -0.772  0.00  0.00    +0.109 A 
ATOM      2  N   UNL     1      -0.290  -4.347  -1.777  0.00  0.00    -0.243 NA
ATOM      3  C   UNL     1      -0.242  -5.637  -1.571  0.00  0.00    +0.058 A 
ATOM      4  C   UNL     1      -0.197  -6.050  -0.245  0.00  0.00    +0.098 A 
ATOM      5  S   UNL     1      -0.223  -4.472   0.591  0.00  0.00    -0.062 S 
ATOM      6  C   UNL     1      -0.236  -6.623  -2.711  0.00  0.00    +0.067 C 
ENDROOT
BRANCH   1  11
ATOM      7  C   UNL     1      -0.491   2.259  -1.005  0.00  0.00    +0.044 C 
ATOM      8  C   UNL     1      -0.439   0.754  -0.944  0.00  0.00    -0.050 A 
ATOM      9  C   UNL     1      -1.265   0.072  -0.068  0.00  0.00    +0.004 A 
ATOM     10  C   UNL     1      -1.223  -1.306  -0.007  0.00  0.00    +0.011 A 
ATOM     11  C   UNL     1      -0.346  -2.011  -0.832  0.00  0.00    +0.010 A 
ATOM     12  C   UNL     1       0.484  -1.317  -1.714  0.00  0.00    -0.041 A 
ATOM     13  C   UNL     1       0.429   0.061  -1.768  0.00  0.00    +0.007 A 
ATOM     14  C   UNL     1       1.435  -2.070  -2.608  0.00  0.00    +0.044 C 
ENDBRANCH   1  11
BRANCH   4  15
ATOM     15  C   UNL     1      -0.139  -7.404   0.312  0.00  0.00    +0.269 C 
ATOM     16  O   UNL     1      -0.125  -8.368  -0.431  0.00  0.00    -0.268 OA
ATOM     17  N   UNL     1      -0.101  -7.582   1.647  0.00  0.00    -0.230 N 
ATOM     18  H   UNL     1      -0.112  -6.814   2.240  0.00  0.00    +0.173 HD
BRANCH  17  19
ATOM     19  N   UNL     1      -0.045  -8.877   2.180  0.00  0.00    -0.229 N 
ATOM     20  C   UNL     1      -0.008  -9.055   3.516  0.00  0.00    +0.277 C 
ATOM     21  O   UNL     1      -0.110  -8.098   4.260  0.00  0.00    -0.267 OA
ATOM     22  H   UNL     1      -0.034  -9.645   1.588  0.00  0.00    +0.173 HD
BRANCH  20  23
ATOM     23  C   UNL     1       0.157 -10.402   4.072  0.00  0.00    +0.106 A 
ATOM     24  C   UNL     1       0.183 -11.581   3.358  0.00  0.00    +0.032 A 
ATOM     25  C   UNL     1       0.359 -12.617   4.280  0.00  0.00    +0.020 A 
ATOM     26  C   UNL     1       0.437 -12.065   5.515  0.00  0.00    +0.086 A 
ATOM     27  N   UNL     1       0.321 -10.719   5.401  0.00  0.00    -0.346 N 
ATOM     28  C   UNL     1       0.359  -9.762   6.510  0.00  0.00    +0.149 C 
ENDBRANCH  20  23
ENDBRANCH  17  19
ENDBRANCH   4  15
TORSDOF 4
