REMARK  Name = ZINC52094275
REMARK  3 active torsions:
REMARK  status: ('A' for Active; 'I' for Inactive)
REMARK    1  A    between atoms: C_3  and  C_9
REMARK    2  A    between atoms: C_9  and  C_11
REMARK    3  A    between atoms: C_9  and  N_24
REMARK                            x       y       z     vdW  Elec       q    Type
REMARK                         _______ _______ _______ _____ _____    ______ ____
ROOT
ATOM      1  C   UNL     1       4.215   2.239  -1.427  0.00  0.00    -0.010 A 
ATOM      2  C   UNL     1       4.125   3.409  -2.156  0.00  0.00    +0.034 A 
ATOM      3  C   UNL     1       4.625   3.457  -3.448  0.00  0.00    +0.067 A 
ATOM      4  C   UNL     1       5.218   2.324  -4.008  0.00  0.00    +0.068 A 
ATOM      5  C   UNL     1       5.304   1.154  -3.269  0.00  0.00    +0.043 A 
ATOM      6  C   UNL     1       4.808   1.116  -1.980  0.00  0.00    +0.025 A 
ATOM      7 BR   UNL     1       4.934  -0.477  -0.968  0.00  0.00    -0.050 Br
ATOM      8  N   UNL     1       5.618   2.673  -5.295  0.00  0.00    -0.306 N 
ATOM      9  H   UNL     1       6.062   2.088  -5.930  0.00  0.00    +0.170 HD
ATOM     10  C   UNL     1       5.284   3.959  -5.509  0.00  0.00    +0.325 A 
ATOM     11  O   UNL     1       5.493   4.576  -6.538  0.00  0.00    -0.247 OA
ATOM     12  N   UNL     1       4.683   4.460  -4.414  0.00  0.00    -0.306 N 
ATOM     13  H   UNL     1       4.348   5.365  -4.314  0.00  0.00    +0.170 HD
ENDROOT
BRANCH   1  14
ATOM     14  C   UNL     1       3.671   2.186  -0.023  0.00  0.00    +0.114 C 
BRANCH  14  17
ATOM     15  C   UNL     1       0.257   1.154  -1.261  0.00  0.00    +0.002 A 
ATOM     16  C   UNL     1       1.551   1.641  -1.235  0.00  0.00    +0.007 A 
ATOM     17  C   UNL     1       2.261   1.656  -0.050  0.00  0.00    -0.007 A 
ATOM     18  C   UNL     1       1.678   1.183   1.112  0.00  0.00    +0.064 A 
ATOM     19  C   UNL     1       0.382   0.695   1.087  0.00  0.00    +0.060 A 
ATOM     20  C   UNL     1      -0.327   0.681  -0.101  0.00  0.00    +0.021 A 
ATOM     21 CL   UNL     1      -0.351   0.101   2.544  0.00  0.00    -0.082 Cl
ATOM     22 CL   UNL     1       2.570   1.200   2.602  0.00  0.00    -0.082 Cl
ENDBRANCH  14  17
BRANCH  14  23
ATOM     23  N   UNL     1       3.676   3.537   0.555  0.00  0.00    -0.320 NA
ATOM     24  H   UNL     1       3.104   4.165   0.010  0.00  0.00    +0.119 HD
ATOM     25  H   UNL     1       3.376   3.519   1.518  0.00  0.00    +0.119 HD
ENDBRANCH  14  23
ENDBRANCH   1  14
TORSDOF 3
