REMARK  Name = ZINC65827510
REMARK  11 active torsions:
REMARK  status: ('A' for Active; 'I' for Inactive)
REMARK    1  A    between atoms: C_1  and  C_2
REMARK    2  A    between atoms: N_4  and  C_5
REMARK    3  A    between atoms: C_5  and  C_6
REMARK    4  A    between atoms: C_5  and  C_23
REMARK    5  A    between atoms: C_6  and  C_7
REMARK    6  A    between atoms: N_9  and  C_10
REMARK    7  A    between atoms: C_15  and  C_16
REMARK    8  A    between atoms: N_18  and  C_19
REMARK    9  A    between atoms: C_19  and  C_20
REMARK   10  A    between atoms: C_19  and  C_21
REMARK   11  A    between atoms: C_19  and  C_22
REMARK                            x       y       z     vdW  Elec       q    Type
REMARK                         _______ _______ _______ _____ _____    ______ ____
ROOT
ATOM      1  C   UNL     1      -2.580  -2.118  -1.377  0.00  0.00    +0.219 C 
ATOM      2  O   UNL     1      -2.374  -1.441  -2.362  0.00  0.00    -0.275 OA
ATOM      3  N   UNL     1      -3.844  -2.402  -1.007  0.00  0.00    -0.285 N 
ATOM      4  H   UNL     1      -4.009  -2.995  -0.257  0.00  0.00    +0.155 HD
ENDROOT
BRANCH   3   5
ATOM      5  C   UNL     1      -4.915  -1.843  -1.701  0.00  0.00    +0.046 A 
ATOM      6  C   UNL     1      -4.829  -1.641  -3.072  0.00  0.00    +0.024 A 
ATOM      7  C   UNL     1      -5.891  -1.087  -3.757  0.00  0.00    +0.002 A 
ATOM      8  C   UNL     1      -7.049  -0.729  -3.086  0.00  0.00    +0.001 A 
ATOM      9  C   UNL     1      -7.153  -0.923  -1.726  0.00  0.00    +0.015 A 
ATOM     10  C   UNL     1      -6.088  -1.487  -1.019  0.00  0.00    +0.058 A 
BRANCH  10  11
ATOM     11  C   UNL     1      -6.195  -1.703   0.436  0.00  0.00    +0.246 C 
ATOM     12  O   UNL     1      -5.232  -2.098   1.065  0.00  0.00    -0.270 OA
ATOM     13  N   UNL     1      -7.360  -1.462   1.070  0.00  0.00    -0.307 N 
ATOM     14  H   UNL     1      -8.128  -1.147   0.569  0.00  0.00    +0.150 HD
BRANCH  13  15
ATOM     15  C   UNL     1      -7.466  -1.676   2.515  0.00  0.00    +0.026 C 
ATOM     16  C   UNL     1      -6.460  -0.779   3.239  0.00  0.00    +0.031 C 
ATOM     17  C   UNL     1      -8.882  -1.332   2.979  0.00  0.00    +0.031 C 
ATOM     18  C   UNL     1      -7.166  -3.142   2.837  0.00  0.00    +0.031 C 
ENDBRANCH  13  15
ENDBRANCH  10  11
ENDBRANCH   3   5
BRANCH   1  19
ATOM     19  C   UNL     1      -1.422  -2.641  -0.567  0.00  0.00    +0.123 C 
BRANCH  19  20
ATOM     20  C   UNL     1      -0.107  -2.178  -1.198  0.00  0.00    +0.112 C 
BRANCH  20  21
ATOM     21  C   UNL     1       1.050  -2.801  -0.461  0.00  0.00    -0.027 A 
ATOM     22  C   UNL     1       1.407  -2.332   0.789  0.00  0.00    +0.005 A 
ATOM     23  C   UNL     1       2.469  -2.904   1.465  0.00  0.00    +0.000 A 
ATOM     24  C   UNL     1       3.174  -3.945   0.890  0.00  0.00    +0.000 A 
ATOM     25  C   UNL     1       2.817  -4.414  -0.360  0.00  0.00    +0.000 A 
ATOM     26  C   UNL     1       1.752  -3.845  -1.034  0.00  0.00    +0.005 A 
ENDBRANCH  20  21
BRANCH  20  30
ATOM     27  C   UNL     1       0.674   1.475  -2.026  0.00  0.00    +0.109 C 
ATOM     28  C   UNL     1       0.671  -0.032  -2.050  0.00  0.00    +0.210 C 
ATOM     29  O   UNL     1       1.282  -0.626  -2.912  0.00  0.00    -0.276 OA
ATOM     30  N   UNL     1      -0.012  -0.719  -1.112  0.00  0.00    -0.308 N 
ATOM     31  H   UNL     1      -0.440  -0.247  -0.381  0.00  0.00    +0.149 HD
ENDBRANCH  20  30
ENDBRANCH  19  20
ENDBRANCH   1  19
TORSDOF 7
