REMARK  Name = ZINC36050710
REMARK  12 active torsions:
REMARK  status: ('A' for Active; 'I' for Inactive)
REMARK    1  A    between atoms: C_1  and  C_2
REMARK    2  A    between atoms: C_2  and  C_3
REMARK    3  A    between atoms: C_3  and  C_5
REMARK    4  A    between atoms: C_3  and  N_6
REMARK    5  A    between atoms: N_6  and  C_7
REMARK    6  A    between atoms: C_9  and  C_10
REMARK    7  A    between atoms: C_15  and  C_33
REMARK    8  A    between atoms: C_16  and  C_29
REMARK    9  A    between atoms: C_17  and  C_20
REMARK   10  A    between atoms: C_24  and  N_26
REMARK   11  A    between atoms: C_29  and  O_31
REMARK   12  A    between atoms: O_31  and  C_32
REMARK                            x       y       z     vdW  Elec       q    Type
REMARK                         _______ _______ _______ _____ _____    ______ ____
ROOT
ATOM      1  C   UNL     1      -5.099   0.291   2.210  0.00  0.00    +0.048 C 
ATOM      2  C   UNL     1      -5.601   0.837   3.340  0.00  0.00    +0.072 C 
ATOM      3  S   UNL     1      -7.300   1.127   2.885  0.00  0.00    -0.060 S 
ATOM      4  C   UNL     1      -7.249   0.540   1.314  0.00  0.00    +0.166 C 
ATOM      5  N   UNL     1      -8.179   0.451   0.385  0.00  0.00    -0.230 NA
ATOM      6  C   UNL     1      -7.990  -0.042  -0.828  0.00  0.00    +0.053 C 
ATOM      7  C   UNL     1      -6.748  -0.513  -1.206  0.00  0.00    +0.082 C 
ATOM      8  C   UNL     1      -5.628  -0.443  -0.192  0.00  0.00    +0.150 C 
ATOM      9  N   UNL     1      -5.955   0.136   1.138  0.00  0.00    -0.267 N 
ATOM     10  C   UNL     1      -9.138  -0.090  -1.803  0.00  0.00    +0.066 C 
ENDROOT
BRANCH   8  11
ATOM     11  C   UNL     1      -4.513   0.377  -0.787  0.00  0.00    -0.020 A 
ATOM     12  C   UNL     1      -4.624   1.754  -0.848  0.00  0.00    +0.006 A 
ATOM     13  C   UNL     1      -3.601   2.506  -1.394  0.00  0.00    +0.003 A 
ATOM     14  C   UNL     1      -2.467   1.882  -1.879  0.00  0.00    +0.033 A 
ATOM     15  C   UNL     1      -2.355   0.506  -1.817  0.00  0.00    +0.127 A 
ATOM     16  C   UNL     1      -3.377  -0.246  -1.267  0.00  0.00    +0.038 A 
BRANCH  15  17
ATOM     17  N   UNL     1      -1.141  -0.162  -2.337  0.00  0.00    +0.056 N 
ATOM     18  O   UNL     1      -0.208   0.499  -2.728  0.00  0.00    -0.126 OA
ATOM     19  O   UNL     1      -1.082  -1.369  -2.369  0.00  0.00    -0.126 OA
ENDBRANCH  15  17
ENDBRANCH   8  11
BRANCH   1  22
ATOM     20  C   UNL     1      -2.905  -0.063   3.217  0.00  0.00    +0.239 C 
ATOM     21  O   UNL     1      -3.442   0.243   4.423  0.00  0.00    -0.271 OA
ATOM     22  C   UNL     1      -3.690  -0.118   2.124  0.00  0.00    +0.091 C 
BRANCH  20  23
ATOM     23  N   UNL     1      -1.548  -0.319   3.109  0.00  0.00    -0.309 N 
ATOM     24  H   UNL     1      -1.176  -0.610   2.262  0.00  0.00    +0.149 HD
BRANCH  23  25
ATOM     25  C   UNL     1      -0.676  -0.151   4.274  0.00  0.00    +0.070 C 
ATOM     26  C   UNL     1      -0.291   1.323   4.414  0.00  0.00    +0.028 C 
BRANCH  25  28
ATOM     27  C   UNL     1       0.214  -2.476   4.061  0.00  0.00    +0.005 C 
ATOM     28  C   UNL     1       0.589  -0.993   4.089  0.00  0.00    +0.018 C 
ENDBRANCH  25  28
ENDBRANCH  23  25
ENDBRANCH  20  23
ENDBRANCH   1  22
BRANCH   7  29
ATOM     29  C   UNL     1      -6.532  -1.038  -2.486  0.00  0.00    +0.339 C 
ATOM     30  O   UNL     1      -7.449  -1.084  -3.288  0.00  0.00    -0.245 OA
BRANCH  29  31
ATOM     31  O   UNL     1      -5.308  -1.492  -2.833  0.00  0.00    -0.465 OA
ATOM     32  C   UNL     1      -5.160  -2.014  -4.155  0.00  0.00    +0.280 C 
ENDBRANCH  29  31
ENDBRANCH   7  29
TORSDOF 8
