REMARK  Name = ZINC00885733
REMARK  7 active torsions:
REMARK  status: ('A' for Active; 'I' for Inactive)
REMARK    1  A    between atoms: C_1  and  O_2
REMARK    2  A    between atoms: O_2  and  C_3
REMARK    3  A    between atoms: C_7  and  C_9
REMARK    4  A    between atoms: C_12  and  C_20
REMARK    5  A    between atoms: C_12  and  O_29
REMARK    6  A    between atoms: C_14  and  C_16
REMARK    7  A    between atoms: C_24  and  N_26
REMARK                            x       y       z     vdW  Elec       q    Type
REMARK                         _______ _______ _______ _____ _____    ______ ____
ROOT
ATOM      1  C   UNL     1      -0.621  -2.525  -1.658  0.00  0.00    +0.269 C 
ATOM      2  O   UNL     1      -0.454  -1.686  -2.523  0.00  0.00    -0.268 OA
ATOM      3  N   UNL     1      -1.058  -2.157  -0.438  0.00  0.00    -0.153 N 
ATOM      4  C   UNL     1      -1.264  -0.772   0.018  0.00  0.00    +0.187 C 
ATOM      5  C   UNL     1      -1.762  -0.947   1.467  0.00  0.00    +0.123 C 
ATOM      6  C   UNL     1      -1.778  -2.446   1.664  0.00  0.00    +0.144 C 
ATOM      7  N   UNL     1      -1.388  -3.023   0.602  0.00  0.00    -0.174 NA
ENDROOT
BRANCH   1  12
ATOM      8  C   UNL     1      -0.390  -6.258  -1.276  0.00  0.00    +0.121 A 
ATOM      9  C   UNL     1       0.177  -6.616  -2.492  0.00  0.00    +0.045 A 
ATOM     10  C   UNL     1       0.482  -5.648  -3.431  0.00  0.00    +0.004 A 
ATOM     11  C   UNL     1       0.225  -4.319  -3.166  0.00  0.00    +0.013 A 
ATOM     12  C   UNL     1      -0.344  -3.948  -1.946  0.00  0.00    +0.042 A 
ATOM     13  C   UNL     1      -0.647  -4.926  -0.998  0.00  0.00    +0.058 A 
BRANCH   8  15
ATOM     14  C   UNL     1      -0.391  -8.566  -0.709  0.00  0.00    +0.277 C 
ATOM     15  O   UNL     1      -0.688  -7.213  -0.357  0.00  0.00    -0.495 OA
ENDBRANCH   8  15
ENDBRANCH   1  12
BRANCH   4  16
ATOM     16  C   UNL     1       0.032  -0.003  -0.010  0.00  0.00    +0.006 A 
ATOM     17  C   UNL     1       0.016   1.379  -0.004  0.00  0.00    +0.008 A 
ATOM     18  C   UNL     1       1.204   2.084  -0.030  0.00  0.00    +0.003 A 
ATOM     19  C   UNL     1       2.409   1.406  -0.062  0.00  0.00    +0.033 A 
ATOM     20  C   UNL     1       2.425   0.024  -0.069  0.00  0.00    +0.127 A 
ATOM     21  C   UNL     1       1.236  -0.681  -0.043  0.00  0.00    +0.041 A 
BRANCH  20  22
ATOM     22  N   UNL     1       3.715  -0.701  -0.104  0.00  0.00    +0.056 N 
ATOM     23  O   UNL     1       3.729  -1.919  -0.109  0.00  0.00    -0.126 OA
ATOM     24  O   UNL     1       4.762  -0.080  -0.127  0.00  0.00    -0.126 OA
ENDBRANCH  20  22
ENDBRANCH   4  16
BRANCH   6  25
ATOM     25  C   UNL     1      -2.193  -3.150   2.930  0.00  0.00    +0.432 C 
ATOM     26  F   UNL     1      -2.083  -4.533   2.753  0.00  0.00    -0.165 F 
ATOM     27  F   UNL     1      -1.363  -2.747   3.982  0.00  0.00    -0.165 F 
ATOM     28  F   UNL     1      -3.520  -2.823   3.231  0.00  0.00    -0.165 F 
ENDBRANCH   6  25
BRANCH   4  29
ATOM     29  O   UNL     1      -2.254  -0.118  -0.779  0.00  0.00    -0.366 OA
ATOM     30  H   UNL     1      -2.005  -0.014  -1.708  0.00  0.00    +0.212 HD
ENDBRANCH   4  29
TORSDOF 6
