REMARK  Name = ZINC04274663
REMARK  6 active torsions:
REMARK  status: ('A' for Active; 'I' for Inactive)
REMARK    1  A    between atoms: C_1  and  O_2
REMARK    2  A    between atoms: O_2  and  C_3
REMARK    3  A    between atoms: C_11  and  S_13
REMARK    4  A    between atoms: S_13  and  C_14
REMARK    5  A    between atoms: C_14  and  C_15
REMARK    6  A    between atoms: C_15  and  C_17
REMARK                            x       y       z     vdW  Elec       q    Type
REMARK                         _______ _______ _______ _____ _____    ______ ____
ROOT
ATOM      1  C   UNL     1       1.756   2.096  -0.004  0.00  0.00    +0.156 C 
ENDROOT
BRANCH   1   2
ATOM      2  C   UNL     1       1.984   3.586   0.002  0.00  0.00    +0.173 C 
ATOM      3  O   UNL     1       1.037   4.344   0.015  0.00  0.00    -0.291 OA
BRANCH   2   4
ATOM      4  C   UNL     1       3.352   4.120  -0.008  0.00  0.00    +0.020 A 
ATOM      5  C   UNL     1       4.446   3.246  -0.017  0.00  0.00    +0.015 A 
ATOM      6  C   UNL     1       5.729   3.746  -0.032  0.00  0.00    +0.048 A 
ATOM      7  C   UNL     1       5.942   5.118  -0.027  0.00  0.00    +0.142 A 
ATOM      8  C   UNL     1       4.855   5.996  -0.012  0.00  0.00    +0.076 A 
ATOM      9  C   UNL     1       3.566   5.504  -0.002  0.00  0.00    +0.038 A 
ATOM     10  N   UNL     1       5.092   7.379  -0.006  0.00  0.00    -0.280 N 
ATOM     11  C   UNL     1       6.321   7.833  -0.332  0.00  0.00    +0.255 C 
ATOM     12  O   UNL     1       6.558   9.023  -0.305  0.00  0.00    -0.272 OA
ATOM     13  C   UNL     1       7.398   6.856  -0.729  0.00  0.00    +0.325 C 
ATOM     14  O   UNL     1       7.204   5.620  -0.038  0.00  0.00    -0.481 OA
ATOM     15  H   UNL     1       4.383   7.999   0.228  0.00  0.00    +0.155 HD
ENDBRANCH   2   4
ENDBRANCH   1   2
BRANCH   1  16
ATOM     16  S   UNL     1      -0.022   1.758   0.012  0.00  0.00    -0.080 S 
BRANCH  16  25
ATOM     17  C   UNL     1      -0.560  -4.512  -0.019  0.00  0.00    +0.122 A 
ATOM     18  C   UNL     1       0.830  -4.457  -0.032  0.00  0.00    +0.048 A 
ATOM     19  C   UNL     1       1.480  -3.243  -0.031  0.00  0.00    +0.033 A 
ATOM     20  C   UNL     1       0.739  -2.058  -0.017  0.00  0.00    +0.090 A 
ATOM     21  C   UNL     1      -0.664  -2.118  -0.004  0.00  0.00    +0.070 A 
ATOM     22  C   UNL     1      -1.306  -3.347  -0.005  0.00  0.00    +0.073 A 
ATOM     23  N   UNL     1      -1.106  -0.805   0.008  0.00  0.00    -0.333 N 
ATOM     24  H   UNL     1      -2.058  -0.500   0.019  0.00  0.00    +0.168 HD
ATOM     25  C   UNL     1       0.002  -0.004   0.002  0.00  0.00    +0.168 A 
ATOM     26  N   UNL     1       1.084  -0.742  -0.018  0.00  0.00    -0.222 NA
BRANCH  17  28
ATOM     27  C   UNL     1      -0.359  -6.882  -0.036  0.00  0.00    +0.277 C 
ATOM     28  O   UNL     1      -1.188  -5.718  -0.021  0.00  0.00    -0.495 OA
ENDBRANCH  17  28
ENDBRANCH  16  25
ENDBRANCH   1  16
TORSDOF 5
