REMARK  Name = ZINC59248604
REMARK  10 active torsions:
REMARK  status: ('A' for Active; 'I' for Inactive)
REMARK    1  A    between atoms: C_1  and  C_2
REMARK    2  A    between atoms: C_5  and  N_9
REMARK    3  A    between atoms: C_7  and  C_8
REMARK    4  A    between atoms: C_10  and  C_12
REMARK    5  A    between atoms: C_12  and  C_31
REMARK    6  A    between atoms: C_13  and  C_14
REMARK    7  A    between atoms: C_16  and  C_30
REMARK    8  A    between atoms: N_17  and  C_20
REMARK    9  A    between atoms: C_18  and  C_19
REMARK   10  A    between atoms: C_23  and  C_27
REMARK                            x       y       z     vdW  Elec       q    Type
REMARK                         _______ _______ _______ _____ _____    ______ ____
ROOT
ATOM      1  C   UNL     1      -0.117  -6.195  -3.557  0.00  0.00    -0.003 A 
ATOM      2  C   UNL     1      -0.032  -4.738  -3.741  0.00  0.00    +0.031 A 
ATOM      3  C   UNL     1      -0.090  -4.518  -5.064  0.00  0.00    +0.022 A 
ATOM      4  N   UNL     1      -0.204  -5.716  -5.715  0.00  0.00    -0.317 N 
ATOM      5  C   UNL     1      -0.215  -6.733  -4.829  0.00  0.00    +0.028 A 
ATOM      6  C   UNL     1      -0.320  -8.198  -5.165  0.00  0.00    +0.064 C 
ATOM      7  C   UNL     1      -0.039  -3.166  -5.727  0.00  0.00    +0.064 C 
ENDROOT
BRANCH   4   8
ATOM      8  C   UNL     1      -0.289  -5.865  -7.102  0.00  0.00    +0.048 A 
ATOM      9  C   UNL     1      -1.453  -6.368  -7.675  0.00  0.00    +0.027 A 
ATOM     10  C   UNL     1      -1.542  -6.518  -9.040  0.00  0.00    +0.018 A 
ATOM     11  C   UNL     1      -0.461  -6.162  -9.853  0.00  0.00    +0.082 A 
ATOM     12  C   UNL     1       0.709  -5.656  -9.273  0.00  0.00    +0.057 A 
ATOM     13  C   UNL     1       0.787  -5.505  -7.905  0.00  0.00    +0.047 A 
ATOM     14 CL   UNL     1       2.055  -5.213 -10.275  0.00  0.00    -0.083 Cl
BRANCH  11  15
ATOM     15  C   UNL     1      -0.551  -6.321 -11.313  0.00  0.00    +0.388 C 
ATOM     16  O   UNL     1      -1.574  -6.764 -11.818  0.00  0.00    -0.241 OA
ATOM     17  O   UNL     1       0.396  -6.010 -12.023  0.00  0.00    -0.241 OA
ENDBRANCH  11  15
ENDBRANCH   4   8
BRANCH   1  19
ATOM     18  C   UNL     1       0.811  -6.557  -1.347  0.00  0.00    +0.114 C 
ATOM     19  C   UNL     1      -0.096  -6.904  -2.329  0.00  0.00    +0.033 C 
BRANCH  18  21
ATOM     20  N   UNL     1       2.675  -5.144  -0.649  0.00  0.00    -0.281 N 
ATOM     21  C   UNL     1       1.879  -5.592  -1.641  0.00  0.00    +0.259 C 
ATOM     22  O   UNL     1       2.046  -5.198  -2.780  0.00  0.00    -0.269 OA
ATOM     23  H   UNL     1       2.584  -5.506   0.246  0.00  0.00    +0.155 HD
BRANCH  20  28
ATOM     24  C   UNL     1       6.553  -1.145  -1.713  0.00  0.00    +0.044 C 
ATOM     25  C   UNL     1       5.523  -2.207  -1.431  0.00  0.00    -0.047 A 
ATOM     26  C   UNL     1       5.239  -3.165  -2.387  0.00  0.00    +0.005 A 
ATOM     27  C   UNL     1       4.296  -4.140  -2.131  0.00  0.00    +0.023 A 
ATOM     28  C   UNL     1       3.631  -4.158  -0.912  0.00  0.00    +0.034 A 
ATOM     29  C   UNL     1       3.918  -3.195   0.047  0.00  0.00    +0.027 A 
ATOM     30  C   UNL     1       4.867  -2.225  -0.214  0.00  0.00    -0.046 A 
ATOM     31  C   UNL     1       5.183  -1.183   0.828  0.00  0.00    +0.044 C 
ENDBRANCH  20  28
ENDBRANCH  18  21
BRANCH  18  32
ATOM     32  C   UNL     1       0.710  -7.138  -0.042  0.00  0.00    +0.104 C 
ATOM     33  N   UNL     1       0.630  -7.598   0.994  0.00  0.00    -0.191 NA
ENDBRANCH  18  32
ENDBRANCH   1  19
TORSDOF 6
