REMARK  Name = ZINC63731578
REMARK  9 active torsions:
REMARK  status: ('A' for Active; 'I' for Inactive)
REMARK    1  A    between atoms: C_1  and  C_2
REMARK    2  A    between atoms: C_2  and  C_3
REMARK    3  A    between atoms: C_6  and  N_9
REMARK    4  A    between atoms: C_10  and  S_21
REMARK    5  A    between atoms: C_15  and  C_18
REMARK    6  A    between atoms: S_21  and  C_22
REMARK    7  A    between atoms: C_22  and  C_23
REMARK    8  A    between atoms: N_25  and  C_26
REMARK    9  A    between atoms: C_29  and  C_32
REMARK                            x       y       z     vdW  Elec       q    Type
REMARK                         _______ _______ _______ _____ _____    ______ ____
ROOT
ATOM      1  N   UNL     1       2.680  -1.861  -4.668  0.00  0.00    -0.253 N 
ATOM      2  C   UNL     1       4.140  -1.994  -4.704  0.00  0.00    +0.260 C 
ATOM      3  N   UNL     1       4.575  -3.288  -5.239  0.00  0.00    -0.230 NA
ATOM      4  C   UNL     1       3.838  -3.924  -6.090  0.00  0.00    +0.185 C 
ATOM      5  C   UNL     1       2.473  -3.419  -6.465  0.00  0.00    +0.083 C 
ATOM      6  C   UNL     1       2.004  -4.296  -7.358  0.00  0.00    +0.075 C 
ATOM      7  N   UNL     1       2.930  -5.264  -7.522  0.00  0.00    -0.152 NA
ATOM      8  N   UNL     1       3.979  -5.074  -6.795  0.00  0.00    -0.129 NA
ATOM      9  C   UNL     1       0.672  -4.218  -8.059  0.00  0.00    +0.068 C 
ATOM     10  C   UNL     1       1.954  -2.197  -5.825  0.00  0.00    +0.133 C 
ATOM     11  N   UNL     1       0.942  -1.510  -6.279  0.00  0.00    -0.285 NA
ATOM     12  H   UNL     1       0.483  -1.797  -7.085  0.00  0.00    +0.188 HD
ENDROOT
BRANCH   1  16
ATOM     13  C   UNL     1       0.737  -0.540  -1.229  0.00  0.00    -0.048 A 
ATOM     14  C   UNL     1       0.013  -0.772  -2.385  0.00  0.00    +0.005 A 
ATOM     15  C   UNL     1       0.655  -1.210  -3.527  0.00  0.00    +0.024 A 
ATOM     16  C   UNL     1       2.028  -1.417  -3.514  0.00  0.00    +0.038 A 
ATOM     17  C   UNL     1       2.752  -1.183  -2.352  0.00  0.00    +0.024 A 
ATOM     18  C   UNL     1       2.105  -0.740  -1.215  0.00  0.00    +0.005 A 
BRANCH  13  20
ATOM     19  C   UNL     1      -0.000   1.468   0.026  0.00  0.00    +0.009 C 
ATOM     20  C   UNL     1       0.034  -0.062   0.015  0.00  0.00    +0.032 C 
ENDBRANCH  13  20
ENDBRANCH   1  16
BRANCH   2  21
ATOM     21  S   UNL     1       4.823  -0.674  -5.743  0.00  0.00    -0.106 S 
BRANCH  21  22
ATOM     22  C   UNL     1       4.063  -0.955  -7.366  0.00  0.00    +0.168 C 
BRANCH  22  23
ATOM     23  C   UNL     1       4.553   0.088  -8.338  0.00  0.00    +0.227 C 
ATOM     24  O   UNL     1       5.338   0.937  -7.971  0.00  0.00    -0.275 OA
ATOM     25  N   UNL     1       4.120   0.077  -9.614  0.00  0.00    -0.285 N 
ATOM     26  H   UNL     1       3.433  -0.552  -9.887  0.00  0.00    +0.155 HD
BRANCH  25  27
ATOM     27  C   UNL     1       4.659   0.973 -10.544  0.00  0.00    +0.033 A 
ATOM     28  C   UNL     1       3.855   1.505 -11.543  0.00  0.00    +0.023 A 
ATOM     29  C   UNL     1       4.391   2.389 -12.460  0.00  0.00    +0.005 A 
ATOM     30  C   UNL     1       5.725   2.744 -12.383  0.00  0.00    -0.050 A 
ATOM     31  C   UNL     1       6.528   2.215 -11.389  0.00  0.00    +0.005 A 
ATOM     32  C   UNL     1       5.997   1.335 -10.466  0.00  0.00    +0.023 A 
ATOM     33  C   UNL     1       6.306   3.708 -13.384  0.00  0.00    +0.044 C 
ENDBRANCH  25  27
ENDBRANCH  22  23
ENDBRANCH  21  22
ENDBRANCH   2  21
TORSDOF 6
