REMARK  Name = ZINC41585694
REMARK  8 active torsions:
REMARK  status: ('A' for Active; 'I' for Inactive)
REMARK    1  A    between atoms: C_1  and  C_2
REMARK    2  A    between atoms: C_4  and  O_36
REMARK    3  A    between atoms: C_5  and  C_21
REMARK    4  A    between atoms: C_11  and  C_12
REMARK    5  A    between atoms: C_21  and  N_22
REMARK    6  A    between atoms: N_25  and  C_28
REMARK    7  A    between atoms: C_31  and  O_34
REMARK    8  A    between atoms: O_34  and  C_35
REMARK                            x       y       z     vdW  Elec       q    Type
REMARK                         _______ _______ _______ _____ _____    ______ ____
ROOT
ATOM      1  C   UNL     1      -0.062   1.484   0.035  0.00  0.00    +0.045 C 
ATOM      2  C   UNL     1      -0.032  -0.023   0.017  0.00  0.00    -0.033 A 
ATOM      3  C   UNL     1      -0.016  -0.693  -1.174  0.00  0.00    +0.050 A 
ATOM      4  C   UNL     1       0.012  -2.084  -1.194  0.00  0.00    +0.122 A 
ATOM      5  C   UNL     1       0.023  -2.805  -0.010  0.00  0.00    +0.020 A 
ATOM      6  C   UNL     1       0.007  -2.140   1.209  0.00  0.00    +0.145 A 
ATOM      7  C   UNL     1      -0.015  -0.736   1.216  0.00  0.00    +0.071 A 
ATOM      8  C   UNL     1      -0.021  -0.327   2.632  0.00  0.00    +0.232 C 
ATOM      9  O   UNL     1      -0.043   0.806   3.081  0.00  0.00    -0.283 OA
ATOM     10  C   UNL     1       0.007  -1.592   3.381  0.00  0.00    +0.176 C 
ATOM     11  C   UNL     1       0.012  -1.725   4.732  0.00  0.00    +0.061 C 
ATOM     12  O   UNL     1       0.012  -2.602   2.478  0.00  0.00    -0.451 OA
ENDROOT
BRANCH  11  13
ATOM     13  C   UNL     1       0.040  -3.062   5.338  0.00  0.00    +0.015 A 
ATOM     14  C   UNL     1      -0.865  -4.045   4.919  0.00  0.00    +0.050 A 
ATOM     15  C   UNL     1      -0.830  -5.299   5.494  0.00  0.00    +0.021 A 
ATOM     16  C   UNL     1       0.094  -5.586   6.483  0.00  0.00    +0.003 A 
ATOM     17  C   UNL     1       0.992  -4.621   6.905  0.00  0.00    +0.021 A 
ATOM     18  C   UNL     1       0.976  -3.363   6.336  0.00  0.00    +0.050 A 
ATOM     19 CL   UNL     1       2.109  -2.157   6.861  0.00  0.00    -0.083 Cl
ATOM     20 CL   UNL     1      -2.026  -3.688   3.679  0.00  0.00    -0.083 Cl
ENDBRANCH  11  13
BRANCH   4  21
ATOM     21  O   UNL     1       0.029  -2.740  -2.381  0.00  0.00    -0.506 OA
ATOM     22  H   UNL     1       0.917  -2.913  -2.723  0.00  0.00    +0.292 HD
ENDBRANCH   4  21
BRANCH   5  23
ATOM     23  C   UNL     1       0.052  -4.312  -0.046  0.00  0.00    -0.035 C 
BRANCH  23  24
ATOM     24  N   UNL     1       1.447  -4.774  -0.054  0.00  0.00    +0.385 N 
ATOM     25  C   UNL     1       2.094  -4.393   1.207  0.00  0.00    -0.059 C 
ATOM     26  C   UNL     1       3.578  -4.773   1.154  0.00  0.00    +0.086 C 
ATOM     27  N   UNL     1       3.681  -6.203   0.826  0.00  0.00    -0.333 N 
ATOM     28  C   UNL     1       2.928  -6.705  -0.333  0.00  0.00    +0.086 C 
ATOM     29  C   UNL     1       1.475  -6.234  -0.210  0.00  0.00    -0.059 C 
ATOM     30  H   UNL     1       1.938  -4.345  -0.824  0.00  0.00    -0.081 HD
BRANCH  27  31
ATOM     31  C   UNL     1       4.473  -7.062   1.596  0.00  0.00    +0.030 A 
ATOM     32  C   UNL     1       4.470  -8.427   1.340  0.00  0.00    +0.027 A 
ATOM     33  C   UNL     1       5.253  -9.274   2.100  0.00  0.00    +0.047 A 
ATOM     34  C   UNL     1       6.042  -8.762   3.119  0.00  0.00    +0.120 A 
ATOM     35  C   UNL     1       6.045  -7.399   3.377  0.00  0.00    +0.047 A 
ATOM     36  C   UNL     1       5.268  -6.550   2.614  0.00  0.00    +0.027 A 
BRANCH  34  37
ATOM     37  O   UNL     1       6.812  -9.597   3.867  0.00  0.00    -0.495 OA
ATOM     38  C   UNL     1       7.599  -9.001   4.900  0.00  0.00    +0.277 C 
ENDBRANCH  34  37
ENDBRANCH  27  31
ENDBRANCH  23  24
ENDBRANCH   5  23
TORSDOF 6
