REMARK  Name = ZINC53374664
REMARK  9 active torsions:
REMARK  status: ('A' for Active; 'I' for Inactive)
REMARK    1  A    between atoms: C_1  and  C_2
REMARK    2  A    between atoms: C_2  and  C_3
REMARK    3  A    between atoms: C_3  and  C_5
REMARK    4  A    between atoms: C_3  and  C_6
REMARK    5  A    between atoms: C_6  and  C_8
REMARK    6  A    between atoms: C_6  and  N_21
REMARK    7  A    between atoms: N_10  and  N_11
REMARK    8  A    between atoms: C_12  and  C_14
REMARK    9  A    between atoms: N_18  and  C_19
REMARK                            x       y       z     vdW  Elec       q    Type
REMARK                         _______ _______ _______ _____ _____    ______ ____
ROOT
ATOM      1  C   UNL     1       0.866  -2.182   0.369  0.00  0.00    +0.250 C 
ATOM      2  O   UNL     1       0.165  -2.969   0.969  0.00  0.00    -0.272 OA
ATOM      3  N   UNL     1       2.113  -1.920   0.808  0.00  0.00    -0.233 N 
ATOM      4  H   UNL     1       2.699  -1.348   0.289  0.00  0.00    +0.173 HD
ENDROOT
BRANCH   3   5
ATOM      5  N   UNL     1       2.562  -2.473   2.014  0.00  0.00    -0.229 N 
ATOM      6  C   UNL     1       3.809  -2.212   2.453  0.00  0.00    +0.277 C 
ATOM      7  O   UNL     1       4.510  -1.416   1.855  0.00  0.00    -0.267 OA
ATOM      8  H   UNL     1       1.975  -3.045   2.533  0.00  0.00    +0.173 HD
BRANCH   6   9
ATOM      9  C   UNL     1       4.321  -2.885   3.651  0.00  0.00    +0.107 A 
ATOM     10  C   UNL     1       3.678  -3.870   4.370  0.00  0.00    +0.047 A 
ATOM     11  C   UNL     1       4.522  -4.226   5.426  0.00  0.00    +0.036 A 
ATOM     12  C   UNL     1       5.643  -3.469   5.336  0.00  0.00    +0.101 A 
ATOM     13  N   UNL     1       5.535  -2.654   4.257  0.00  0.00    -0.345 N 
ATOM     14  C   UNL     1       6.541  -1.686   3.814  0.00  0.00    +0.149 C 
ATOM     15 BR   UNL     1       4.164  -5.531   6.747  0.00  0.00    -0.049 Br
ENDBRANCH   6   9
ENDBRANCH   3   5
BRANCH   1  16
ATOM     16  C   UNL     1       0.342  -1.496  -0.867  0.00  0.00    +0.165 C 
BRANCH  16  17
ATOM     17  N   UNL     1      -0.835  -2.214  -1.362  0.00  0.00    -0.288 N 
ATOM     18  C   UNL     1      -1.174  -2.134  -2.664  0.00  0.00    +0.298 C 
ATOM     19  O   UNL     1      -0.504  -1.465  -3.427  0.00  0.00    -0.253 OA
ATOM     20  N   UNL     1      -2.257  -2.795  -3.120  0.00  0.00    -0.313 N 
ATOM     21  H   UNL     1      -1.369  -2.748  -0.754  0.00  0.00    +0.151 HD
ATOM     22  H   UNL     1      -2.791  -3.328  -2.511  0.00  0.00    +0.146 HD
ATOM     23  H   UNL     1      -2.501  -2.737  -4.057  0.00  0.00    +0.146 HD
ENDBRANCH  16  17
BRANCH  16  24
ATOM     24  C   UNL     1      -0.046  -0.056  -0.525  0.00  0.00    +0.015 C 
ATOM     25  C   UNL     1      -1.187  -0.063   0.494  0.00  0.00    +0.010 C 
BRANCH  24  27
ATOM     26  C   UNL     1      -0.770   2.137  -1.478  0.00  0.00    +0.004 C 
ATOM     27  C   UNL     1      -0.501   0.665  -1.796  0.00  0.00    +0.002 C 
ENDBRANCH  24  27
ENDBRANCH  16  24
ENDBRANCH   1  16
TORSDOF 6
