REMARK  Name = ZINC35355909
REMARK  4 active torsions:
REMARK  status: ('A' for Active; 'I' for Inactive)
REMARK    1  A    between atoms: C_1  and  C_2
REMARK    2  A    between atoms: C_7  and  N_8
REMARK    3  A    between atoms: N_8  and  C_9
REMARK    4  A    between atoms: C_14  and  N_15
REMARK                            x       y       z     vdW  Elec       q    Type
REMARK                         _______ _______ _______ _____ _____    ______ ____
ROOT
ATOM      1  C   UNL     1      -0.046  -0.768   3.595  0.00  0.00    +0.054 A 
ATOM      2  C   UNL     1      -0.014  -2.153   3.538  0.00  0.00    +0.048 A 
ATOM      3  C   UNL     1      -0.085  -2.896   4.708  0.00  0.00    +0.038 A 
ATOM      4  C   UNL     1      -0.187  -2.253   5.935  0.00  0.00    -0.024 A 
ATOM      5  C   UNL     1      -0.220  -0.873   5.994  0.00  0.00    +0.030 A 
ATOM      6  C   UNL     1      -0.144  -0.125   4.829  0.00  0.00    +0.046 A 
ATOM      7  C   UNL     1      -0.262  -3.065   7.202  0.00  0.00    +0.046 C 
ATOM      8  C   UNL     1      -1.024  -4.363   6.934  0.00  0.00    +0.101 C 
ATOM      9  C   UNL     1      -0.483  -5.028   5.697  0.00  0.00    +0.218 C 
ATOM     10  O   UNL     1      -0.435  -6.239   5.639  0.00  0.00    -0.275 OA
ATOM     11  N   UNL     1      -0.052  -4.295   4.654  0.00  0.00    -0.285 N 
ATOM     12  H   UNL     1       0.284  -4.739   3.859  0.00  0.00    +0.155 HD
ENDROOT
BRANCH   6  13
ATOM     13  N   UNL     1      -0.171   1.275   4.890  0.00  0.00    -0.357 N 
ATOM     14  H   UNL     1      -0.122   1.798   4.074  0.00  0.00    +0.142 HD
ATOM     15  H   UNL     1      -0.239   1.722   5.748  0.00  0.00    +0.142 HD
ENDBRANCH   6  13
BRANCH   1  16
ATOM     16  N   UNL     1       0.025  -0.016   2.416  0.00  0.00    -0.313 N 
ATOM     17  H   UNL     1      -0.081   0.948   2.448  0.00  0.00    +0.152 HD
BRANCH  16  24
ATOM     18  C   UNL     1      -1.527   0.800   0.175  0.00  0.00    +0.046 C 
ATOM     19  C   UNL     1      -0.487  -0.287   0.072  0.00  0.00    -0.028 A 
ATOM     20  C   UNL     1      -0.261  -0.915  -1.136  0.00  0.00    +0.020 A 
ATOM     21  C   UNL     1       0.693  -1.913  -1.231  0.00  0.00    +0.018 A 
ATOM     22  C   UNL     1       1.423  -2.284  -0.116  0.00  0.00    +0.017 A 
ATOM     23  C   UNL     1       1.201  -1.659   1.096  0.00  0.00    +0.024 A 
ATOM     24  C   UNL     1       0.248  -0.653   1.193  0.00  0.00    +0.034 A 
ATOM     25 BR   UNL     1       0.999  -2.771  -2.888  0.00  0.00    -0.050 Br
ENDBRANCH  16  24
ENDBRANCH   1  16
TORSDOF 3
