REMARK  Name = ZINC17255227
REMARK  3 active torsions:
REMARK  status: ('A' for Active; 'I' for Inactive)
REMARK    1  A    between atoms: N_3  and  C_9
REMARK    2  A    between atoms: C_14  and  C_17
REMARK    3  A    between atoms: C_17  and  O_18
REMARK                            x       y       z     vdW  Elec       q    Type
REMARK                         _______ _______ _______ _____ _____    ______ ____
ROOT
ATOM      1  C   UNL     1      -2.425   0.920   0.019  0.00  0.00    +0.061 A 
ATOM      2  C   UNL     1      -3.593   1.606   0.028  0.00  0.00    +0.095 A 
ATOM      3  N   UNL     1      -3.565   2.968   0.036  0.00  0.00    -0.287 N 
ATOM      4  C   UNL     1      -2.390   3.624   0.035  0.00  0.00    +0.351 A 
ATOM      5  O   UNL     1      -2.385   4.844   0.042  0.00  0.00    -0.244 OA
ATOM      6  N   UNL     1      -1.234   2.964   0.030  0.00  0.00    -0.178 NA
ATOM      7  C   UNL     1      -1.212   1.637   0.017  0.00  0.00    +0.123 A 
ATOM      8  N   UNL     1      -0.011   0.966   0.007  0.00  0.00    -0.343 N 
ATOM      9  H   UNL     1       0.934   1.529   0.006  0.00  0.00    +0.144 HD
ATOM     10  H   UNL     1       0.004  -0.134   0.001  0.00  0.00    +0.144 HD
ENDROOT
BRANCH   3  11
ATOM     11  C   UNL     1      -4.821   3.722   0.047  0.00  0.00    +0.152 C 
ATOM     12  C   UNL     1      -4.874   4.719   1.238  0.00  0.00    +0.074 C 
ATOM     13  C   UNL     1      -5.856   5.851   0.940  0.00  0.00    +0.184 C 
ATOM     14  C   UNL     1      -5.961   6.194  -0.559  0.00  0.00    +0.108 C 
ATOM     15  S   UNL     1      -4.900   4.918  -1.358  0.00  0.00    -0.127 S 
ATOM     16  F   UNL     1      -7.123   5.478   1.401  0.00  0.00    -0.244 F 
BRANCH  14  17
ATOM     17  C   UNL     1      -5.416   7.597  -0.831  0.00  0.00    +0.173 C 
BRANCH  17  18
ATOM     18  O   UNL     1      -4.081   7.695  -0.332  0.00  0.00    -0.394 OA
ATOM     19  H   UNL     1      -3.522   8.636  -0.437  0.00  0.00    +0.209 HD
ENDBRANCH  17  18
ENDBRANCH  14  17
ENDBRANCH   3  11
TORSDOF 3
