REMARK  Name = ZINC42052293
REMARK  13 active torsions:
REMARK  status: ('A' for Active; 'I' for Inactive)
REMARK    1  A    between atoms: C_1  and  C_2
REMARK    2  A    between atoms: C_2  and  C_3
REMARK    3  A    between atoms: N_5  and  C_6
REMARK    4  A    between atoms: C_9  and  C_30
REMARK    5  A    between atoms: C_10  and  N_12
REMARK    6  A    between atoms: C_13  and  C_15
REMARK    7  A    between atoms: N_17  and  C_18
REMARK    8  A    between atoms: C_18  and  C_19
REMARK    9  A    between atoms: C_19  and  C_21
REMARK   10  A    between atoms: C_19  and  C_22
REMARK   11  A    between atoms: C_22  and  N_23
REMARK   12  A    between atoms: C_24  and  C_29
REMARK   13  A    between atoms: C_26  and  C_28
REMARK                            x       y       z     vdW  Elec       q    Type
REMARK                         _______ _______ _______ _____ _____    ______ ____
ROOT
ATOM      1  N   UNL     1       2.072  -5.586  -4.064  0.00  0.00    -0.277 N 
ATOM      2  C   UNL     1       1.471  -6.401  -3.174  0.00  0.00    +0.303 C 
ATOM      3  O   UNL     1       0.969  -5.939  -2.170  0.00  0.00    -0.265 OA
ATOM      4  H   UNL     1       2.530  -5.960  -4.832  0.00  0.00    +0.155 HD
ENDROOT
BRANCH   1   9
ATOM      5  C   UNL     1       2.029  -2.295  -2.418  0.00  0.00    +0.035 A 
ATOM      6  C   UNL     1       1.958  -1.454  -3.522  0.00  0.00    +0.024 A 
ATOM      7  C   UNL     1       1.926  -1.985  -4.797  0.00  0.00    +0.007 A 
ATOM      8  C   UNL     1       1.964  -3.354  -4.979  0.00  0.00    -0.029 A 
ATOM      9  C   UNL     1       2.034  -4.201  -3.879  0.00  0.00    +0.038 A 
ATOM     10  C   UNL     1       2.073  -3.670  -2.597  0.00  0.00    +0.047 A 
ATOM     11  C   UNL     1       1.928  -3.930  -6.371  0.00  0.00    +0.045 C 
BRANCH   5  14
ATOM     12  C   UNL     1       1.359  -0.640  -0.846  0.00  0.00    +0.217 C 
ATOM     13  O   UNL     1       0.766  -0.057  -1.729  0.00  0.00    -0.275 OA
ATOM     14  N   UNL     1       2.061  -1.755  -1.127  0.00  0.00    -0.285 N 
ATOM     15  H   UNL     1       2.588  -2.184  -0.435  0.00  0.00    +0.155 HD
BRANCH  12  17
ATOM     16  C   UNL     1       0.452   1.149   0.613  0.00  0.00    +0.013 C 
ATOM     17  C   UNL     1       1.310  -0.117   0.567  0.00  0.00    +0.093 C 
ENDBRANCH  12  17
ENDBRANCH   5  14
ENDBRANCH   1   9
BRANCH   2  18
ATOM     18  C   UNL     1       1.422  -7.872  -3.424  0.00  0.00    +0.299 C 
ATOM     19  O   UNL     1       1.924  -8.335  -4.427  0.00  0.00    -0.265 OA
ATOM     20  N   UNL     1       0.821  -8.687  -2.534  0.00  0.00    -0.307 N 
ATOM     21  H   UNL     1       0.420  -8.318  -1.732  0.00  0.00    +0.149 HD
BRANCH  20  22
ATOM     22  C   UNL     1       0.773 -10.131  -2.779  0.00  0.00    +0.109 C 
BRANCH  22  23
ATOM     23  C   UNL     1       0.041 -10.820  -1.625  0.00  0.00    +0.024 C 
ATOM     24  C   UNL     1      -1.419 -10.364  -1.604  0.00  0.00    +0.011 C 
BRANCH  23  25
ATOM     25  C   UNL     1       0.100 -12.337  -1.818  0.00  0.00    +0.148 C 
BRANCH  25  26
ATOM     26  N   UNL     1      -0.496 -13.000  -0.655  0.00  0.00    -0.268 N 
ATOM     27  C   UNL     1       0.157 -13.378   0.464  0.00  0.00    +0.036 A 
ATOM     28  C   UNL     1      -0.745 -13.952   1.293  0.00  0.00    +0.047 A 
ATOM     29  C   UNL     1      -1.992 -13.923   0.659  0.00  0.00    +0.060 A 
ATOM     30  N   UNL     1      -1.845 -13.347  -0.506  0.00  0.00    -0.176 NA
ATOM     31  C   UNL     1      -3.283 -14.458   1.224  0.00  0.00    +0.067 C 
ATOM     32  C   UNL     1       1.627 -13.195   0.740  0.00  0.00    +0.065 C 
ENDBRANCH  25  26
ENDBRANCH  23  25
ENDBRANCH  22  23
ENDBRANCH  20  22
ENDBRANCH   2  18
TORSDOF 8
