REMARK  Name = ZINC16663752
REMARK  10 active torsions:
REMARK  status: ('A' for Active; 'I' for Inactive)
REMARK    1  A    between atoms: C_1  and  C_2
REMARK    2  A    between atoms: C_2  and  C_3
REMARK    3  A    between atoms: C_2  and  C_4
REMARK    4  A    between atoms: C_4  and  N_5
REMARK    5  A    between atoms: C_15  and  S_16
REMARK    6  A    between atoms: S_16  and  C_17
REMARK    7  A    between atoms: C_17  and  C_18
REMARK    8  A    between atoms: C_18  and  C_20
REMARK    9  A    between atoms: C_21  and  N_32
REMARK   10  A    between atoms: N_22  and  C_29
REMARK                            x       y       z     vdW  Elec       q    Type
REMARK                         _______ _______ _______ _____ _____    ______ ____
ROOT
ATOM      1  C   UNL     1       1.942   4.718   2.767  0.00  0.00    +0.157 C 
ENDROOT
BRANCH   1   2
ATOM      2  C   UNL     1       2.593   5.851   2.017  0.00  0.00    +0.182 C 
ATOM      3  O   UNL     1       3.148   5.639   0.958  0.00  0.00    -0.291 OA
BRANCH   2   4
ATOM      4  C   UNL     1       2.557   7.159   2.545  0.00  0.00    +0.120 A 
ATOM      5  C   UNL     1       3.274   8.206   1.940  0.00  0.00    +0.116 A 
ATOM      6  N   UNL     1       3.204   9.457   2.485  0.00  0.00    -0.278 N 
ATOM      7  C   UNL     1       2.476   9.697   3.586  0.00  0.00    +0.331 A 
ATOM      8  O   UNL     1       2.450  10.827   4.035  0.00  0.00    -0.246 OA
ATOM      9  N   UNL     1       1.775   8.737   4.211  0.00  0.00    -0.274 N 
ATOM     10  H   UNL     1       1.247   8.964   5.029  0.00  0.00    +0.173 HD
ATOM     11  C   UNL     1       1.774   7.470   3.748  0.00  0.00    +0.266 A 
ATOM     12  O   UNL     1       1.138   6.601   4.316  0.00  0.00    -0.267 OA
BRANCH   6  13
ATOM     13  C   UNL     1       3.942  10.555   1.858  0.00  0.00    +0.094 C 
ATOM     14  C   UNL     1       3.193  11.869   1.627  0.00  0.00    +0.027 C 
ATOM     15  C   UNL     1       3.534  10.964   0.441  0.00  0.00    +0.027 C 
ENDBRANCH   6  13
BRANCH   5  16
ATOM     16  N   UNL     1       4.022   7.978   0.826  0.00  0.00    -0.344 N 
ATOM     17  H   UNL     1       3.787   7.255   0.224  0.00  0.00    +0.144 HD
ATOM     18  H   UNL     1       4.789   8.540   0.634  0.00  0.00    +0.144 HD
ENDBRANCH   5  16
ENDBRANCH   2   4
ENDBRANCH   1   2
BRANCH   1  19
ATOM     19  S   UNL     1       2.157   3.179   1.839  0.00  0.00    -0.080 S 
BRANCH  19  30
ATOM     20  N   UNL     1       1.263   0.739   2.555  0.00  0.00    -0.287 N 
ATOM     21  C   UNL     1       0.639  -0.160   3.351  0.00  0.00    +0.262 A 
ATOM     22  O   UNL     1       0.580  -1.338   3.047  0.00  0.00    -0.267 OA
ATOM     23  C   UNL     1       0.036   0.336   4.595  0.00  0.00    +0.066 A 
ATOM     24  C   UNL     1      -0.627  -0.511   5.481  0.00  0.00    +0.035 A 
ATOM     25  C   UNL     1      -1.174   0.009   6.635  0.00  0.00    +0.042 A 
ATOM     26  C   UNL     1      -1.068   1.366   6.917  0.00  0.00    +0.022 A 
ATOM     27  C   UNL     1      -0.422   2.213   6.063  0.00  0.00    +0.030 A 
ATOM     28  C   UNL     1       0.143   1.716   4.885  0.00  0.00    +0.079 A 
ATOM     29  N   UNL     1       0.791   2.524   4.013  0.00  0.00    -0.223 NA
ATOM     30  C   UNL     1       1.326   2.055   2.912  0.00  0.00    +0.173 A 
ATOM     31 CL   UNL     1      -2.003  -1.039   7.743  0.00  0.00    -0.084 Cl
BRANCH  20  32
ATOM     32  C   UNL     1       1.881   0.295   1.303  0.00  0.00    +0.130 C 
BRANCH  32  34
ATOM     33  C   UNL     1       1.503  -0.080  -1.138  0.00  0.00    +0.009 C 
ATOM     34  C   UNL     1       0.858   0.383   0.170  0.00  0.00    +0.003 C 
ATOM     35  C   UNL     1      -0.339  -0.514   0.493  0.00  0.00    +0.009 C 
ENDBRANCH  32  34
ENDBRANCH  20  32
ENDBRANCH  19  30
ENDBRANCH   1  19
TORSDOF 8
