REMARK  Name = ZINC36089984
REMARK  9 active torsions:
REMARK  status: ('A' for Active; 'I' for Inactive)
REMARK    1  A    between atoms: C_1  and  C_2
REMARK    2  A    between atoms: C_5  and  S_9
REMARK    3  A    between atoms: C_7  and  C_8
REMARK    4  A    between atoms: S_9  and  N_12
REMARK    5  A    between atoms: N_12  and  C_13
REMARK    6  A    between atoms: C_13  and  C_14
REMARK    7  A    between atoms: C_14  and  C_16
REMARK    8  A    between atoms: C_14  and  N_21
REMARK    9  A    between atoms: N_24  and  C_27
REMARK                            x       y       z     vdW  Elec       q    Type
REMARK                         _______ _______ _______ _____ _____    ______ ____
ROOT
ATOM      1  C   UNL     1       2.471  -4.800   1.275  0.00  0.00    +0.130 C 
ENDROOT
BRANCH   1   2
ATOM      2  N   UNL     1       1.548  -5.061   0.168  0.00  0.00    -0.188 NA
ATOM      3  H   UNL     1       1.879  -5.442  -0.660  0.00  0.00    +0.148 HD
BRANCH   2   4
ATOM      4  S   UNL     1      -0.062  -4.706   0.331  0.00  0.00    +0.058 S 
ATOM      5  O   UNL     1      -0.478  -5.267   1.568  0.00  0.00    -0.153 OA
ATOM      6  O   UNL     1      -0.679  -5.044  -0.904  0.00  0.00    -0.153 OA
BRANCH   4  11
ATOM      7  C   UNL     1      -0.522   1.282   0.908  0.00  0.00    +0.044 C 
ATOM      8  C   UNL     1      -0.407  -0.214   0.764  0.00  0.00    -0.047 A 
ATOM      9  C   UNL     1      -0.449  -0.792  -0.491  0.00  0.00    +0.005 A 
ATOM     10  C   UNL     1      -0.344  -2.164  -0.623  0.00  0.00    +0.029 A 
ATOM     11  C   UNL     1      -0.195  -2.958   0.499  0.00  0.00    +0.106 A 
ATOM     12  C   UNL     1      -0.151  -2.379   1.754  0.00  0.00    +0.032 A 
ATOM     13  C   UNL     1      -0.253  -1.006   1.886  0.00  0.00    -0.046 A 
ATOM     14  C   UNL     1      -0.200  -0.375   3.253  0.00  0.00    +0.044 C 
ENDBRANCH   4  11
ENDBRANCH   2   4
ENDBRANCH   1   2
BRANCH   1  15
ATOM     15  C   UNL     1       3.787  -5.540   1.028  0.00  0.00    +0.109 C 
BRANCH  15  16
ATOM     16  N   UNL     1       3.513  -6.968   0.818  0.00  0.00    -0.297 NA
ATOM     17  C   UNL     1       2.680  -7.510   1.902  0.00  0.00    +0.066 C 
ATOM     18  C   UNL     1       2.369  -8.980   1.616  0.00  0.00    -0.064 C 
ATOM     19  N   UNL     1       3.625  -9.736   1.516  0.00  0.00    +0.379 N 
ATOM     20  C   UNL     1       4.434  -9.200   0.413  0.00  0.00    -0.064 C 
ATOM     21  C   UNL     1       4.763  -7.731   0.689  0.00  0.00    +0.066 C 
ATOM     22  C   UNL     1       3.325 -11.151   1.259  0.00  0.00    -0.096 C 
ATOM     23  H   UNL     1       4.137  -9.653   2.381  0.00  0.00    -0.082 HD
ENDBRANCH  15  16
BRANCH  15  24
ATOM     24  C   UNL     1       4.690  -5.372   2.222  0.00  0.00    +0.008 A 
ATOM     25  C   UNL     1       5.829  -4.645   2.335  0.00  0.00    +0.013 A 
ATOM     26  C   UNL     1       6.501  -4.637   3.543  0.00  0.00    +0.008 A 
ATOM     27  C   UNL     1       6.002  -5.356   4.578  0.00  0.00    +0.045 A 
ATOM     28  S   UNL     1       4.535  -6.072   3.857  0.00  0.00    -0.100 S 
ENDBRANCH  15  24
ENDBRANCH   1  15
TORSDOF 6
