REMARK  Name = ZINC02851786
REMARK  9 active torsions:
REMARK  status: ('A' for Active; 'I' for Inactive)
REMARK    1  A    between atoms: C_1  and  C_2
REMARK    2  A    between atoms: C_11  and  N_13
REMARK    3  A    between atoms: N_13  and  C_14
REMARK    4  A    between atoms: C_14  and  N_16
REMARK    5  A    between atoms: N_16  and  N_17
REMARK    6  A    between atoms: C_18  and  C_20
REMARK    7  A    between atoms: C_20  and  C_22
REMARK    8  A    between atoms: C_20  and  S_28
REMARK    9  A    between atoms: S_28  and  C_29
REMARK                            x       y       z     vdW  Elec       q    Type
REMARK                         _______ _______ _______ _____ _____    ______ ____
ROOT
ATOM      1  N   UNL     1      -3.241  -3.850   0.420  0.00  0.00    -0.246 N 
ATOM      2  H   UNL     1      -2.551  -4.395   0.010  0.00  0.00    +0.172 HD
ENDROOT
BRANCH   1   3
ATOM      3  N   UNL     1      -3.052  -2.469   0.562  0.00  0.00    -0.234 N 
ATOM      4  C   UNL     1      -1.911  -1.897   0.128  0.00  0.00    +0.247 C 
ATOM      5  O   UNL     1      -1.049  -2.578  -0.386  0.00  0.00    -0.273 OA
ATOM      6  H   UNL     1      -3.741  -1.925   0.973  0.00  0.00    +0.173 HD
BRANCH   4   7
ATOM      7  C   UNL     1      -1.708  -0.412   0.280  0.00  0.00    +0.168 C 
BRANCH   7   8
ATOM      8  C   UNL     1      -2.444   0.311  -0.818  0.00  0.00    -0.025 A 
ATOM      9  C   UNL     1      -2.124   0.069  -2.141  0.00  0.00    +0.005 A 
ATOM     10  C   UNL     1      -2.803   0.729  -3.148  0.00  0.00    +0.000 A 
ATOM     11  C   UNL     1      -3.795   1.639  -2.832  0.00  0.00    +0.000 A 
ATOM     12  C   UNL     1      -4.111   1.884  -1.509  0.00  0.00    +0.000 A 
ATOM     13  C   UNL     1      -3.436   1.221  -0.502  0.00  0.00    +0.005 A 
ENDBRANCH   7   8
BRANCH   7  14
ATOM     14  S   UNL     1       0.063  -0.030   0.174  0.00  0.00    -0.108 S 
BRANCH  14  15
ATOM     15  C   UNL     1       0.147   1.697   0.515  0.00  0.00    +0.009 A 
ATOM     16  C   UNL     1      -1.015   2.413   0.774  0.00  0.00    +0.015 A 
ATOM     17  C   UNL     1      -0.944   3.765   1.045  0.00  0.00    +0.001 A 
ATOM     18  C   UNL     1       0.281   4.409   1.048  0.00  0.00    +0.000 A 
ATOM     19  C   UNL     1       1.439   3.700   0.786  0.00  0.00    +0.001 A 
ATOM     20  C   UNL     1       1.376   2.346   0.519  0.00  0.00    +0.015 A 
ENDBRANCH  14  15
ENDBRANCH   7  14
ENDBRANCH   4   7
ENDBRANCH   1   3
BRANCH   1  21
ATOM     21  C   UNL     1      -4.381  -4.422   0.855  0.00  0.00    +0.151 C 
ATOM     22  S   UNL     1      -4.612  -6.110   0.681  0.00  0.00    -0.017 S 
BRANCH  21  23
ATOM     23  N   UNL     1      -5.340  -3.666   1.425  0.00  0.00    -0.296 N 
ATOM     24  H   UNL     1      -5.177  -2.725   1.597  0.00  0.00    +0.154 HD
BRANCH  23  35
ATOM     25  C   UNL     1     -10.984  -6.936   1.887  0.00  0.00    +0.045 C 
ATOM     26  C   UNL     1     -10.283  -5.968   2.804  0.00  0.00    -0.033 A 
ATOM     27  C   UNL     1     -10.829  -5.620   4.000  0.00  0.00    +0.096 A 
ATOM     28  C   UNL     1     -10.154  -4.713   4.841  0.00  0.00    +0.337 A 
ATOM     29  O   UNL     1     -10.653  -4.410   5.910  0.00  0.00    -0.245 OA
ATOM     30  O   UNL     1      -8.974  -4.173   4.495  0.00  0.00    -0.422 OA
ATOM     31  C   UNL     1      -8.378  -4.476   3.321  0.00  0.00    +0.141 A 
ATOM     32  C   UNL     1      -8.997  -5.376   2.433  0.00  0.00    +0.021 A 
ATOM     33  C   UNL     1      -8.383  -5.694   1.216  0.00  0.00    +0.013 A 
ATOM     34  C   UNL     1      -7.186  -5.124   0.891  0.00  0.00    +0.024 A 
ATOM     35  C   UNL     1      -6.565  -4.236   1.769  0.00  0.00    +0.036 A 
ATOM     36  C   UNL     1      -7.160  -3.910   2.979  0.00  0.00    +0.070 A 
ENDBRANCH  23  35
ENDBRANCH  21  23
ENDBRANCH   1  21
TORSDOF 8
