REMARK  Name = ZINC02309886
REMARK  9 active torsions:
REMARK  status: ('A' for Active; 'I' for Inactive)
REMARK    1  A    between atoms: C_1  and  C_2
REMARK    2  A    between atoms: C_2  and  O_3
REMARK    3  A    between atoms: O_3  and  C_4
REMARK    4  A    between atoms: C_4  and  C_6
REMARK    5  A    between atoms: C_6  and  S_7
REMARK    6  A    between atoms: S_7  and  C_8
REMARK    7  A    between atoms: C_9  and  C_27
REMARK    8  A    between atoms: C_10  and  C_20
REMARK    9  A    between atoms: C_25  and  C_26
REMARK                            x       y       z     vdW  Elec       q    Type
REMARK                         _______ _______ _______ _____ _____    ______ ____
ROOT
ATOM      1  C   UNL     1       1.847  -5.585   3.127  0.00  0.00    +0.112 C 
ATOM      2  C   UNL     1       2.237  -6.776   3.716  0.00  0.00    +0.073 C 
ATOM      3  C   UNL     1       3.046  -6.686   4.998  0.00  0.00    +0.097 C 
ATOM      4  C   UNL     1       3.342  -5.284   5.496  0.00  0.00    +0.029 C 
ATOM      5  C   UNL     1       4.054  -5.108   6.620  0.00  0.00    +0.162 C 
ATOM      6  C   UNL     1       4.364  -3.730   7.142  0.00  0.00    +0.080 C 
ATOM      7  C   UNL     1       4.442  -2.750   5.968  0.00  0.00    +0.014 C 
ATOM      8  C   UNL     1       3.117  -2.788   5.203  0.00  0.00    +0.056 C 
ATOM      9  C   UNL     1       2.849  -4.202   4.744  0.00  0.00    +0.050 C 
ATOM     10  N   UNL     1       2.163  -4.397   3.645  0.00  0.00    -0.244 NA
ATOM     11  O   UNL     1       4.501  -6.186   7.295  0.00  0.00    -0.292 OA
ENDROOT
BRANCH   3  12
ATOM     12  C   UNL     1       4.361  -7.389   4.775  0.00  0.00    -0.032 A 
ATOM     13  C   UNL     1       5.271  -6.882   3.867  0.00  0.00    +0.005 A 
ATOM     14  C   UNL     1       6.476  -7.527   3.663  0.00  0.00    +0.000 A 
ATOM     15  C   UNL     1       6.772  -8.679   4.368  0.00  0.00    +0.000 A 
ATOM     16  C   UNL     1       5.862  -9.186   5.277  0.00  0.00    +0.003 A 
ATOM     17  C   UNL     1       4.658  -8.538   5.484  0.00  0.00    -0.046 A 
ATOM     18  C   UNL     1       3.668  -9.088   6.479  0.00  0.00    +0.044 C 
ENDBRANCH   3  12
BRANCH   2  19
ATOM     19  C   UNL     1       1.891  -8.041   3.141  0.00  0.00    +0.098 C 
ATOM     20  N   UNL     1       1.617  -9.044   2.684  0.00  0.00    -0.191 NA
ENDBRANCH   2  19
BRANCH   1  21
ATOM     21  S   UNL     1       0.907  -5.641   1.639  0.00  0.00    -0.094 S 
BRANCH  21  22
ATOM     22  C   UNL     1       0.631  -3.896   1.228  0.00  0.00    +0.196 C 
BRANCH  22  23
ATOM     23  C   UNL     1      -0.173  -3.800  -0.043  0.00  0.00    +0.317 C 
ATOM     24  O   UNL     1      -0.524  -4.806  -0.613  0.00  0.00    -0.250 OA
BRANCH  23  25
ATOM     25  O   UNL     1      -0.499  -2.597  -0.542  0.00  0.00    -0.464 OA
BRANCH  25  27
ATOM     26  C   UNL     1      -1.536  -1.133  -2.160  0.00  0.00    +0.048 C 
ATOM     27  C   UNL     1      -1.262  -2.581  -1.750  0.00  0.00    +0.229 C 
ENDBRANCH  25  27
ENDBRANCH  23  25
ENDBRANCH  22  23
ENDBRANCH  21  22
ENDBRANCH   1  21
TORSDOF 7
