REMARK  Name = ZINC38984666
REMARK  3 active torsions:
REMARK  status: ('A' for Active; 'I' for Inactive)
REMARK    1  A    between atoms: C_3  and  C_8
REMARK    2  A    between atoms: N_9  and  N_10
REMARK    3  A    between atoms: C_11  and  C_17
REMARK                            x       y       z     vdW  Elec       q    Type
REMARK                         _______ _______ _______ _____ _____    ______ ____
ROOT
ATOM      1  N   UNL     1       5.987   2.238  -0.150  0.00  0.00    -0.172 N 
ATOM      2  C   UNL     1       7.350   1.692  -0.291  0.00  0.00    +0.264 C 
ATOM      3  N   UNL     1       8.203   2.889  -0.365  0.00  0.00    -0.189 NA
ATOM      4  N   UNL     1       7.477   3.883  -0.284  0.00  0.00    -0.219 N 
ATOM      5  C   UNL     1       6.157   3.579  -0.161  0.00  0.00    +0.174 C 
ATOM      6  S   UNL     1       4.893   4.727  -0.035  0.00  0.00    -0.015 S 
ATOM      7  H   UNL     1       7.813   4.792  -0.310  0.00  0.00    +0.176 HD
ENDROOT
BRANCH   2   8
ATOM      8  C   UNL     1       7.466   0.877  -1.553  0.00  0.00    -0.001 A 
ATOM      9  C   UNL     1       6.359   0.217  -2.053  0.00  0.00    +0.007 A 
ATOM     10  C   UNL     1       6.464  -0.531  -3.210  0.00  0.00    +0.002 A 
ATOM     11  C   UNL     1       7.677  -0.620  -3.868  0.00  0.00    +0.020 A 
ATOM     12  C   UNL     1       8.785   0.040  -3.368  0.00  0.00    +0.041 A 
ATOM     13  C   UNL     1       8.677   0.794  -2.213  0.00  0.00    +0.027 A 
ATOM     14 CL   UNL     1      10.308  -0.071  -4.194  0.00  0.00    -0.084 Cl
ENDBRANCH   2   8
BRANCH   1  16
ATOM     15  C   UNL     1       3.675   2.159   0.189  0.00  0.00    +0.138 C 
ATOM     16  N   UNL     1       4.786   1.526  -0.036  0.00  0.00    -0.183 NA
BRANCH  15  19
ATOM     17  C   UNL     1       0.008   1.408   0.457  0.00  0.00    +0.003 A 
ATOM     18  C   UNL     1       1.200   2.102   0.445  0.00  0.00    +0.009 A 
ATOM     19  C   UNL     1       2.397   1.424   0.203  0.00  0.00    -0.003 A 
ATOM     20  C   UNL     1       2.379   0.046  -0.025  0.00  0.00    +0.047 A 
ATOM     21  C   UNL     1       1.177  -0.636  -0.011  0.00  0.00    +0.124 A 
ATOM     22  C   UNL     1      -0.006   0.044   0.230  0.00  0.00    +0.038 A 
ATOM     23  F   UNL     1       1.156  -1.969  -0.232  0.00  0.00    -0.205 F 
ENDBRANCH  15  19
ENDBRANCH   1  16
TORSDOF 3
