REMARK  Name = ZINC38976687
REMARK  7 active torsions:
REMARK  status: ('A' for Active; 'I' for Inactive)
REMARK    1  A    between atoms: C_1  and  C_2
REMARK    2  A    between atoms: C_5  and  N_9
REMARK    3  A    between atoms: N_9  and  C_10
REMARK    4  A    between atoms: N_13  and  S_14
REMARK    5  A    between atoms: S_14  and  C_17
REMARK    6  A    between atoms: C_20  and  O_23
REMARK    7  A    between atoms: O_23  and  C_24
REMARK                            x       y       z     vdW  Elec       q    Type
REMARK                         _______ _______ _______ _____ _____    ______ ____
ROOT
ATOM      1  C   UNL     1       0.185  -4.907   1.237  0.00  0.00    +0.237 C 
ATOM      2  C   UNL     1      -0.807  -6.047   1.205  0.00  0.00    +0.192 C 
ATOM      3  N   UNL     1      -2.076  -5.812   1.044  0.00  0.00    -0.110 NA
ATOM      4  N   UNL     1      -0.359  -7.305   1.345  0.00  0.00    -0.226 NA
ATOM      5  C   UNL     1       0.920  -7.568   1.508  0.00  0.00    +0.089 A 
ATOM      6  C   UNL     1       1.358  -8.909   1.653  0.00  0.00    +0.030 A 
ATOM      7  C   UNL     1       2.670  -9.185   1.821  0.00  0.00    +0.002 A 
ATOM      8  C   UNL     1       3.657  -8.186   1.863  0.00  0.00    +0.002 A 
ATOM      9  C   UNL     1       3.349  -6.877   1.736  0.00  0.00    +0.027 A 
ATOM     10  C   UNL     1       1.942  -6.492   1.548  0.00  0.00    +0.063 A 
ATOM     11  N   UNL     1       1.607  -5.239   1.421  0.00  0.00    -0.359 N 
ATOM     12  H   UNL     1       2.280  -4.542   1.447  0.00  0.00    +0.162 HD
ENDROOT
BRANCH   3  13
ATOM     13  S   UNL     1      -3.153  -7.070   1.011  0.00  0.00    +0.100 S 
ATOM     14  O   UNL     1      -2.863  -7.822  -0.159  0.00  0.00    -0.146 OA
ATOM     15  O   UNL     1      -3.143  -7.647   2.310  0.00  0.00    -0.146 OA
BRANCH  13  16
ATOM     16  C   UNL     1      -4.756  -6.377   0.780  0.00  0.00    +0.113 A 
ATOM     17  C   UNL     1      -5.517  -6.016   1.877  0.00  0.00    +0.032 A 
ATOM     18  C   UNL     1      -6.775  -5.473   1.698  0.00  0.00    +0.047 A 
ATOM     19  C   UNL     1      -7.274  -5.290   0.417  0.00  0.00    +0.120 A 
ATOM     20  C   UNL     1      -6.509  -5.652  -0.682  0.00  0.00    +0.047 A 
ATOM     21  C   UNL     1      -5.250  -6.190  -0.498  0.00  0.00    +0.032 A 
BRANCH  19  22
ATOM     22  O   UNL     1      -8.511  -4.756   0.239  0.00  0.00    -0.495 OA
ATOM     23  C   UNL     1      -8.961  -4.596  -1.108  0.00  0.00    +0.277 C 
ENDBRANCH  19  22
ENDBRANCH  13  16
ENDBRANCH   3  13
BRANCH   1  24
ATOM     24  N   UNL     1       0.059  -4.168  -0.022  0.00  0.00    -0.318 N 
ATOM     25  H   UNL     1       0.092  -4.642  -0.868  0.00  0.00    +0.148 HD
BRANCH  24  30
ATOM     26  C   UNL     1      -0.625   1.462   0.053  0.00  0.00    +0.045 C 
ATOM     27  C   UNL     1      -0.444  -0.034   0.033  0.00  0.00    -0.032 A 
ATOM     28  C   UNL     1      -0.153  -0.710   1.204  0.00  0.00    +0.006 A 
ATOM     29  C   UNL     1       0.015  -2.081   1.189  0.00  0.00    +0.023 A 
ATOM     30  C   UNL     1      -0.110  -2.782  -0.004  0.00  0.00    +0.030 A 
ATOM     31  C   UNL     1      -0.403  -2.101  -1.179  0.00  0.00    +0.043 A 
ATOM     32  C   UNL     1      -0.574  -0.730  -1.157  0.00  0.00    +0.046 A 
ATOM     33 CL   UNL     1      -0.946   0.122  -2.623  0.00  0.00    -0.083 Cl
ENDBRANCH  24  30
ENDBRANCH   1  24
TORSDOF 5
