REMARK  Name = ZINC20638606
REMARK  8 active torsions:
REMARK  status: ('A' for Active; 'I' for Inactive)
REMARK    1  A    between atoms: C_1  and  C_2
REMARK    2  A    between atoms: C_2  and  C_3
REMARK    3  A    between atoms: C_2  and  N_4
REMARK    4  A    between atoms: C_9  and  C_22
REMARK    5  A    between atoms: C_25  and  O_30
REMARK    6  A    between atoms: C_26  and  O_28
REMARK    7  A    between atoms: O_28  and  C_29
REMARK    8  A    between atoms: O_30  and  C_31
REMARK                            x       y       z     vdW  Elec       q    Type
REMARK                         _______ _______ _______ _____ _____    ______ ____
ROOT
ATOM      1  N   UNL     1      -6.634  -3.156  -2.030  0.00  0.00    -0.268 NA
ATOM      2  C   UNL     1      -6.706  -1.782  -2.556  0.00  0.00    +0.193 C 
ATOM      3  N   UNL     1      -7.279  -0.920  -1.507  0.00  0.00    -0.304 N 
ATOM      4  C   UNL     1      -6.757  -1.032  -0.235  0.00  0.00    +0.189 C 
ATOM      5  N   UNL     1      -6.738  -0.005   0.566  0.00  0.00    -0.225 NA
ATOM      6  C   UNL     1      -6.045  -0.047   1.862  0.00  0.00    +0.241 C 
ATOM      7  N   UNL     1      -6.089  -1.419   2.376  0.00  0.00    -0.284 N 
ATOM      8  C   UNL     1      -6.072  -1.917   3.640  0.00  0.00    +0.072 A 
ATOM      9  C   UNL     1      -6.040  -1.322   4.896  0.00  0.00    +0.028 A 
ATOM     10  C   UNL     1      -6.024  -2.164   5.996  0.00  0.00    +0.002 A 
ATOM     11  C   UNL     1      -6.038  -3.542   5.866  0.00  0.00    +0.002 A 
ATOM     12  C   UNL     1      -6.071  -4.160   4.630  0.00  0.00    +0.030 A 
ATOM     13  C   UNL     1      -6.091  -3.330   3.504  0.00  0.00    +0.091 A 
ATOM     14  N   UNL     1      -6.133  -3.608   2.184  0.00  0.00    -0.214 NA
ATOM     15  C   UNL     1      -6.147  -2.499   1.508  0.00  0.00    +0.209 A 
ATOM     16  N   UNL     1      -6.230  -2.255   0.151  0.00  0.00    -0.230 N 
ATOM     17  C   UNL     1      -5.758  -3.208  -0.848  0.00  0.00    +0.205 C 
ATOM     18  H   UNL     1      -8.092  -0.221  -1.753  0.00  0.00    +0.150 HD
ENDROOT
BRANCH   6  19
ATOM     19  C   UNL     1      -4.611   0.380   1.683  0.00  0.00    +0.001 A 
ATOM     20  C   UNL     1      -3.904  -0.030   0.568  0.00  0.00    +0.011 A 
ATOM     21  C   UNL     1      -2.590   0.365   0.396  0.00  0.00    +0.050 A 
ATOM     22  C   UNL     1      -1.976   1.163   1.348  0.00  0.00    +0.162 A 
ATOM     23  C   UNL     1      -2.688   1.575   2.470  0.00  0.00    +0.162 A 
ATOM     24  C   UNL     1      -4.006   1.181   2.634  0.00  0.00    +0.057 A 
BRANCH  23  25
ATOM     25  O   UNL     1      -2.092   2.363   3.405  0.00  0.00    -0.491 OA
ATOM     26  C   UNL     1      -2.884   2.748   4.530  0.00  0.00    +0.277 C 
ENDBRANCH  23  25
BRANCH  22  27
ATOM     27  O   UNL     1      -0.682   1.547   1.184  0.00  0.00    -0.491 OA
ATOM     28  C   UNL     1      -0.013   1.086   0.008  0.00  0.00    +0.277 C 
ENDBRANCH  22  27
ENDBRANCH   6  19
BRANCH   1  30
ATOM     29  C   UNL     1      -7.178  -4.103  -4.222  0.00  0.00    +0.024 C 
ATOM     30  C   UNL     1      -6.177  -4.093  -3.065  0.00  0.00    +0.053 C 
ATOM     31  C   UNL     1      -4.805  -3.653  -3.581  0.00  0.00    +0.024 C 
ENDBRANCH   1  30
TORSDOF 4
