REMARK  Name = ZINC39404858
REMARK  11 active torsions:
REMARK  status: ('A' for Active; 'I' for Inactive)
REMARK    1  A    between atoms: C_1  and  C_2
REMARK    2  A    between atoms: C_7  and  C_8
REMARK    3  A    between atoms: C_10  and  C_23
REMARK    4  A    between atoms: N_13  and  C_15
REMARK    5  A    between atoms: C_23  and  N_24
REMARK    6  A    between atoms: N_24  and  C_25
REMARK    7  A    between atoms: N_24  and  C_26
REMARK    8  A    between atoms: C_26  and  C_27
REMARK    9  A    between atoms: C_27  and  C_28
REMARK   10  A    between atoms: C_29  and  C_35
REMARK   11  A    between atoms: C_32  and  C_34
REMARK                            x       y       z     vdW  Elec       q    Type
REMARK                         _______ _______ _______ _____ _____    ______ ____
ROOT
ATOM      1  C   UNL     1       0.025   0.045   2.504  0.00  0.00    +0.106 C 
ATOM      2  C   UNL     1       1.474   0.382   2.949  0.00  0.00    +0.014 C 
ATOM      3  C   UNL     1       1.311   0.436   4.487  0.00  0.00    +0.128 C 
ATOM      4  N   UNL     1       0.073  -0.307   4.775  0.00  0.00    -0.263 N 
ATOM      5  N   UNL     1      -0.439  -0.827   3.614  0.00  0.00    -0.232 NA
ATOM      6  H   UNL     1      -0.133  -1.779   3.478  0.00  0.00    +0.145 HD
ENDROOT
BRANCH   4   7
ATOM      7  C   UNL     1      -0.496  -0.461   6.045  0.00  0.00    +0.080 A 
ATOM      8  C   UNL     1      -0.798   0.656   6.811  0.00  0.00    +0.030 A 
ATOM      9  C   UNL     1      -1.360   0.503   8.064  0.00  0.00    +0.040 A 
ATOM     10  C   UNL     1      -1.621  -0.764   8.557  0.00  0.00    +0.126 A 
ATOM     11  C   UNL     1      -1.321  -1.881   7.796  0.00  0.00    +0.078 A 
ATOM     12  C   UNL     1      -0.765  -1.733   6.538  0.00  0.00    +0.148 A 
ATOM     13  F   UNL     1      -0.478  -2.822   5.793  0.00  0.00    -0.203 F 
ATOM     14  F   UNL     1      -2.170  -0.911   9.783  0.00  0.00    -0.205 F 
ENDBRANCH   4   7
BRANCH   1  21
ATOM     15  C   UNL     1      -0.158   1.498   0.014  0.00  0.00    +0.044 C 
ATOM     16  C   UNL     1      -0.065  -0.007   0.004  0.00  0.00    -0.046 A 
ATOM     17  C   UNL     1      -0.061  -0.691  -1.198  0.00  0.00    +0.003 A 
ATOM     18  C   UNL     1       0.025  -2.070  -1.207  0.00  0.00    +0.000 A 
ATOM     19  C   UNL     1       0.107  -2.766  -0.015  0.00  0.00    +0.000 A 
ATOM     20  C   UNL     1       0.104  -2.082   1.186  0.00  0.00    +0.005 A 
ATOM     21  C   UNL     1       0.023  -0.702   1.195  0.00  0.00    -0.026 A 
ENDBRANCH   1  21
BRANCH   2  22
ATOM     22  C   UNL     1       2.448  -0.724   2.537  0.00  0.00    -0.072 C 
BRANCH  22  23
ATOM     23  N   UNL     1       3.820  -0.316   2.867  0.00  0.00    +0.378 N 
ATOM     24  C   UNL     1       4.192   0.851   2.056  0.00  0.00    -0.096 C 
ATOM     25  H   UNL     1       3.874  -0.077   3.845  0.00  0.00    -0.082 HD
BRANCH  23  26
ATOM     26  C   UNL     1       4.742  -1.424   2.582  0.00  0.00    -0.075 C 
BRANCH  26  27
ATOM     27  C   UNL     1       6.152  -1.045   3.041  0.00  0.00    +0.016 C 
BRANCH  27  28
ATOM     28  C   UNL     1       7.097  -2.182   2.748  0.00  0.00    -0.023 C 
ATOM     29  C   UNL     1       7.885  -2.343   1.683  0.00  0.00    +0.061 C 
ATOM     30  N   UNL     1       8.591  -3.491   1.778  0.00  0.00    -0.159 NA
ATOM     31  N   UNL     1       8.374  -4.143   2.802  0.00  0.00    -0.180 NA
ATOM     32  C   UNL     1       7.380  -3.406   3.601  0.00  0.00    +0.153 C 
ATOM     33  C   UNL     1       6.112  -4.241   3.787  0.00  0.00    +0.039 C 
ATOM     34  C   UNL     1       7.974  -1.376   0.531  0.00  0.00    +0.067 C 
ENDBRANCH  27  28
ENDBRANCH  26  27
ENDBRANCH  23  26
ENDBRANCH  22  23
ENDBRANCH   2  22
TORSDOF 7
