REMARK  Name = ZINC36600274
REMARK  15 active torsions:
REMARK  status: ('A' for Active; 'I' for Inactive)
REMARK    1  A    between atoms: C_1  and  C_2
REMARK    2  A    between atoms: C_5  and  C_7
REMARK    3  A    between atoms: C_7  and  N_8
REMARK    4  A    between atoms: N_8  and  C_9
REMARK    5  A    between atoms: C_9  and  C_11
REMARK    6  A    between atoms: C_9  and  C_19
REMARK    7  A    between atoms: C_14  and  O_17
REMARK    8  A    between atoms: O_17  and  C_18
REMARK    9  A    between atoms: N_21  and  C_22
REMARK   10  A    between atoms: C_22  and  C_23
REMARK   11  A    between atoms: C_22  and  C_24
REMARK   12  A    between atoms: C_22  and  C_25
REMARK   13  A    between atoms: C_26  and  C_28
REMARK   14  A    between atoms: C_28  and  C_29
REMARK   15  A    between atoms: C_28  and  C_35
REMARK                            x       y       z     vdW  Elec       q    Type
REMARK                         _______ _______ _______ _____ _____    ______ ____
ROOT
ATOM      1  N   UNL     1       1.011  -3.230  -2.440  0.00  0.00    -0.278 N 
ATOM      2  C   UNL     1       1.164  -4.261  -3.294  0.00  0.00    +0.229 C 
ATOM      3  O   UNL     1       2.251  -4.488  -3.783  0.00  0.00    -0.275 OA
ENDROOT
BRANCH   1   4
ATOM      4  C   UNL     1      -0.273  -3.020  -1.767  0.00  0.00    +0.183 C 
BRANCH   4   9
ATOM      5  C   UNL     1      -2.415   0.947  -4.028  0.00  0.00    +0.086 C 
ATOM      6  C   UNL     1      -2.107  -0.475  -3.635  0.00  0.00    +0.102 A 
ATOM      7  C   UNL     1      -2.725  -1.573  -4.106  0.00  0.00    +0.045 A 
ATOM      8  C   UNL     1      -2.125  -2.685  -3.472  0.00  0.00    +0.046 A 
ATOM      9  C   UNL     1      -1.176  -2.200  -2.652  0.00  0.00    +0.122 A 
ATOM     10  O   UNL     1      -1.166  -0.861  -2.759  0.00  0.00    -0.463 OA
ENDBRANCH   4   9
ENDBRANCH   1   4
BRANCH   1  11
ATOM     11  C   UNL     1       2.130  -2.319  -2.183  0.00  0.00    +0.193 C 
BRANCH  11  12
ATOM     12  C   UNL     1       1.720  -0.911  -2.529  0.00  0.00    -0.018 A 
ATOM     13  C   UNL     1       0.971  -0.170  -1.634  0.00  0.00    +0.009 A 
ATOM     14  C   UNL     1       0.594   1.121  -1.949  0.00  0.00    +0.046 A 
ATOM     15  C   UNL     1       0.968   1.675  -3.164  0.00  0.00    +0.120 A 
ATOM     16  C   UNL     1       1.720   0.930  -4.061  0.00  0.00    +0.046 A 
ATOM     17  C   UNL     1       2.099  -0.359  -3.739  0.00  0.00    +0.009 A 
BRANCH  15  18
ATOM     18  O   UNL     1       0.598   2.944  -3.477  0.00  0.00    -0.495 OA
ATOM     19  C   UNL     1       1.019   3.449  -4.746  0.00  0.00    +0.277 C 
ENDBRANCH  15  18
ENDBRANCH  11  12
BRANCH  11  20
ATOM     20  C   UNL     1       2.510  -2.388  -0.727  0.00  0.00    +0.238 C 
ATOM     21  O   UNL     1       1.907  -3.126   0.023  0.00  0.00    -0.273 OA
ATOM     22  N   UNL     1       3.522  -1.630  -0.258  0.00  0.00    -0.309 N 
ATOM     23  H   UNL     1       4.004  -1.041  -0.858  0.00  0.00    +0.149 HD
BRANCH  22  24
ATOM     24  C   UNL     1       3.892  -1.698   1.158  0.00  0.00    +0.026 C 
ATOM     25  C   UNL     1       4.308  -3.127   1.509  0.00  0.00    +0.031 C 
ATOM     26  C   UNL     1       5.060  -0.746   1.425  0.00  0.00    +0.031 C 
ATOM     27  C   UNL     1       2.694  -1.289   2.018  0.00  0.00    +0.031 C 
ENDBRANCH  22  24
ENDBRANCH  11  20
ENDBRANCH   1  11
BRANCH   2  28
ATOM     28  C   UNL     1      -0.016  -5.131  -3.643  0.00  0.00    +0.135 C 
BRANCH  28  29
ATOM     29  C   UNL     1       0.408  -6.175  -4.644  0.00  0.00    -0.031 A 
ATOM     30  C   UNL     1       1.310  -7.157  -4.279  0.00  0.00    +0.005 A 
ATOM     31  C   UNL     1       1.699  -8.114  -5.197  0.00  0.00    +0.000 A 
ATOM     32  C   UNL     1       1.187  -8.090  -6.480  0.00  0.00    +0.000 A 
ATOM     33  C   UNL     1       0.284  -7.108  -6.846  0.00  0.00    +0.000 A 
ATOM     34  C   UNL     1      -0.108  -6.153  -5.926  0.00  0.00    +0.005 A 
ENDBRANCH  28  29
BRANCH  28  35
ATOM     35  C   UNL     1      -0.527  -5.808  -2.397  0.00  0.00    -0.031 A 
ATOM     36  C   UNL     1      -1.743  -6.465  -2.417  0.00  0.00    +0.005 A 
ATOM     37  C   UNL     1      -2.211  -7.086  -1.274  0.00  0.00    +0.000 A 
ATOM     38  C   UNL     1      -1.463  -7.050  -0.112  0.00  0.00    +0.000 A 
ATOM     39  C   UNL     1      -0.247  -6.394  -0.093  0.00  0.00    +0.000 A 
ATOM     40  C   UNL     1       0.224  -5.777  -1.237  0.00  0.00    +0.005 A 
ENDBRANCH  28  35
ENDBRANCH   2  28
TORSDOF 10
