REMARK  Name = ZINC08748169
REMARK  9 active torsions:
REMARK  status: ('A' for Active; 'I' for Inactive)
REMARK    1  A    between atoms: C_1  and  C_2
REMARK    2  A    between atoms: C_2  and  C_3
REMARK    3  A    between atoms: C_2  and  O_4
REMARK    4  A    between atoms: O_4  and  C_5
REMARK    5  A    between atoms: C_5  and  C_7
REMARK    6  A    between atoms: C_8  and  N_29
REMARK    7  A    between atoms: C_14  and  C_27
REMARK    8  A    between atoms: C_17  and  C_19
REMARK    9  A    between atoms: C_27  and  O_28
REMARK                            x       y       z     vdW  Elec       q    Type
REMARK                         _______ _______ _______ _____ _____    ______ ____
ROOT
ATOM      1  C   UNL     1      -3.249  -1.163  -1.248  0.00  0.00    +0.108 C 
ATOM      2  C   UNL     1      -3.855  -1.301  -2.457  0.00  0.00    +0.196 C 
ATOM      3  O   UNL     1      -5.103  -1.787  -2.558  0.00  0.00    -0.435 OA
ATOM      4  C   UNL     1      -5.631  -2.511  -1.541  0.00  0.00    +0.215 A 
ATOM      5  C   UNL     1      -6.744  -3.362  -1.800  0.00  0.00    +0.228 A 
ATOM      6  O   UNL     1      -7.223  -3.448  -2.920  0.00  0.00    -0.284 OA
ATOM      7  C   UNL     1      -7.276  -4.107  -0.718  0.00  0.00    +0.098 A 
ATOM      8  C   UNL     1      -6.709  -3.977   0.498  0.00  0.00    +0.134 A 
ATOM      9  O   UNL     1      -5.668  -3.172   0.704  0.00  0.00    -0.457 OA
ATOM     10  C   UNL     1      -5.132  -2.445  -0.290  0.00  0.00    +0.163 A 
ATOM     11  C   UNL     1      -3.956  -1.556   0.018  0.00  0.00    +0.132 C 
ENDROOT
BRANCH  11  12
ATOM     12  C   UNL     1      -4.445  -0.316   0.722  0.00  0.00    -0.014 A 
ATOM     13  C   UNL     1      -5.339   0.529   0.091  0.00  0.00    +0.007 A 
ATOM     14  C   UNL     1      -5.788   1.666   0.735  0.00  0.00    +0.020 A 
ATOM     15  C   UNL     1      -5.343   1.960   2.012  0.00  0.00    +0.042 A 
ATOM     16  C   UNL     1      -4.448   1.115   2.643  0.00  0.00    +0.040 A 
ATOM     17  C   UNL     1      -4.003  -0.026   2.000  0.00  0.00    +0.047 A 
ATOM     18 CL   UNL     1      -2.885  -1.091   2.794  0.00  0.00    -0.083 Cl
ATOM     19 CL   UNL     1      -5.906   3.389   2.821  0.00  0.00    -0.083 Cl
ENDBRANCH  11  12
BRANCH   2  20
ATOM     20  N   UNL     1      -3.181  -0.938  -3.592  0.00  0.00    -0.329 N 
ATOM     21  H   UNL     1      -2.249  -0.673  -3.539  0.00  0.00    +0.145 HD
ATOM     22  H   UNL     1      -3.635  -0.946  -4.450  0.00  0.00    +0.145 HD
ENDBRANCH   2  20
BRANCH   1  23
ATOM     23  C   UNL     1      -1.945  -0.654  -1.182  0.00  0.00    +0.341 C 
ATOM     24  O   UNL     1      -1.003  -1.409  -1.021  0.00  0.00    -0.245 OA
BRANCH  23  25
ATOM     25  O   UNL     1      -1.733   0.675  -1.298  0.00  0.00    -0.459 OA
BRANCH  25  27
ATOM     26  C   UNL     1       0.234   1.141  -2.623  0.00  0.00    +0.052 C 
ATOM     27  C   UNL     1      -0.378   1.125  -1.221  0.00  0.00    +0.171 C 
ATOM     28  C   UNL     1      -0.342   2.537  -0.633  0.00  0.00    +0.052 C 
ENDBRANCH  25  27
ENDBRANCH  23  25
ENDBRANCH   1  23
BRANCH   8  29
ATOM     29  C   UNL     1      -7.269  -4.764   1.655  0.00  0.00    +0.230 C 
BRANCH  29  30
ATOM     30  O   UNL     1      -8.373  -5.552   1.206  0.00  0.00    -0.387 OA
ATOM     31  H   UNL     1      -8.783  -6.086   1.900  0.00  0.00    +0.210 HD
ENDBRANCH  29  30
ENDBRANCH   8  29
TORSDOF 7
