REMARK  Name = ZINC08621256
REMARK  10 active torsions:
REMARK  status: ('A' for Active; 'I' for Inactive)
REMARK    1  A    between atoms: C_1  and  C_2
REMARK    2  A    between atoms: C_2  and  C_3
REMARK    3  A    between atoms: C_3  and  C_5
REMARK    4  A    between atoms: C_3  and  N_6
REMARK    5  A    between atoms: C_15  and  S_16
REMARK    6  A    between atoms: S_16  and  C_17
REMARK    7  A    between atoms: C_17  and  C_18
REMARK    8  A    between atoms: N_23  and  C_24
REMARK    9  A    between atoms: C_24  and  C_25
REMARK   10  A    between atoms: C_24  and  C_26
REMARK                            x       y       z     vdW  Elec       q    Type
REMARK                         _______ _______ _______ _____ _____    ______ ____
ROOT
ATOM      1  N   UNL     1       2.098  -0.039   0.947  0.00  0.00    -0.284 N 
ATOM      2  C   UNL     1       2.696   0.819   1.794  0.00  0.00    +0.263 A 
ATOM      3  O   UNL     1       2.119   1.202   2.797  0.00  0.00    -0.267 OA
ATOM      4  C   UNL     1       4.020   1.275   1.500  0.00  0.00    +0.076 A 
ATOM      5  C   UNL     1       4.851   2.202   2.277  0.00  0.00    -0.023 A 
ATOM      6  C   UNL     1       6.072   2.482   1.782  0.00  0.00    -0.004 A 
ATOM      7  S   UNL     1       6.194   1.536   0.286  0.00  0.00    -0.073 S 
ATOM      8  C   UNL     1       4.593   0.772   0.321  0.00  0.00    +0.117 A 
ATOM      9  N   UNL     1       3.949  -0.074  -0.474  0.00  0.00    -0.216 NA
ATOM     10  C   UNL     1       2.732  -0.483  -0.177  0.00  0.00    +0.173 A 
ATOM     11  C   UNL     1       7.108   3.400   2.355  0.00  0.00    +0.043 C 
ATOM     12  C   UNL     1       7.300   3.081   3.843  0.00  0.00    +0.005 C 
ATOM     13  C   UNL     1       6.319   3.928   4.647  0.00  0.00    +0.001 C 
ATOM     14  C   UNL     1       5.033   4.136   3.849  0.00  0.00    +0.005 C 
ATOM     15  C   UNL     1       4.345   2.803   3.586  0.00  0.00    +0.037 C 
ENDROOT
BRANCH   1  16
ATOM     16  C   UNL     1       0.742  -0.511   1.242  0.00  0.00    +0.089 C 
ATOM     17  C   UNL     1      -0.206   0.686   1.333  0.00  0.00    +0.031 C 
BRANCH  16  19
ATOM     18  C   UNL     1       1.622  -2.510   2.454  0.00  0.00    +0.006 C 
ATOM     19  C   UNL     1       0.742  -1.264   2.573  0.00  0.00    +0.021 C 
ENDBRANCH  16  19
ENDBRANCH   1  16
BRANCH  10  20
ATOM     20  S   UNL     1       1.908  -1.612  -1.250  0.00  0.00    -0.078 S 
BRANCH  20  21
ATOM     21  C   UNL     1       3.109  -1.911  -2.576  0.00  0.00    +0.173 C 
BRANCH  21  22
ATOM     22  C   UNL     1       2.523  -2.874  -3.577  0.00  0.00    +0.231 C 
ATOM     23  O   UNL     1       1.406  -3.314  -3.412  0.00  0.00    -0.274 OA
ATOM     24  N   UNL     1       3.241  -3.245  -4.655  0.00  0.00    -0.239 N 
ATOM     25  C   UNL     1       2.717  -4.106  -5.550  0.00  0.00    +0.306 C 
ATOM     26  O   UNL     1       1.597  -4.548  -5.385  0.00  0.00    -0.252 OA
ATOM     27  N   UNL     1       3.435  -4.478  -6.628  0.00  0.00    -0.297 N 
ATOM     28  H   UNL     1       4.135  -2.893  -4.788  0.00  0.00    +0.159 HD
ATOM     29  H   UNL     1       4.329  -4.125  -6.761  0.00  0.00    +0.151 HD
BRANCH  27  30
ATOM     30  C   UNL     1       2.865  -5.414  -7.601  0.00  0.00    +0.068 C 
ATOM     31  C   UNL     1       2.017  -4.643  -8.614  0.00  0.00    +0.027 C 
ATOM     32  C   UNL     1       3.996  -6.141  -8.332  0.00  0.00    +0.027 C 
ENDBRANCH  27  30
ENDBRANCH  21  22
ENDBRANCH  20  21
ENDBRANCH  10  20
TORSDOF 6
