REMARK  Name = ZINC59304787
REMARK  10 active torsions:
REMARK  status: ('A' for Active; 'I' for Inactive)
REMARK    1  A    between atoms: C_1  and  C_2
REMARK    2  A    between atoms: C_5  and  C_28
REMARK    3  A    between atoms: N_6  and  C_7
REMARK    4  A    between atoms: C_10  and  C_13
REMARK    5  A    between atoms: N_15  and  N_16
REMARK    6  A    between atoms: C_17  and  C_18
REMARK    7  A    between atoms: C_21  and  O_26
REMARK    8  A    between atoms: C_22  and  O_24
REMARK    9  A    between atoms: O_24  and  C_25
REMARK   10  A    between atoms: O_26  and  C_27
REMARK                            x       y       z     vdW  Elec       q    Type
REMARK                         _______ _______ _______ _____ _____    ______ ____
ROOT
ATOM      1  C   UNL     1      -0.232  -0.295   2.394  0.00  0.00    +0.047 A 
ATOM      2  C   UNL     1       0.844  -0.361   3.272  0.00  0.00    +0.027 A 
ATOM      3  C   UNL     1       0.714   0.109   4.560  0.00  0.00    +0.015 A 
ATOM      4  C   UNL     1      -0.501   0.654   4.983  0.00  0.00    +0.038 A 
ATOM      5  C   UNL     1      -1.579   0.720   4.098  0.00  0.00    +0.015 A 
ATOM      6  C   UNL     1      -1.441   0.253   2.810  0.00  0.00    +0.027 A 
ENDROOT
BRANCH   1  12
ATOM      7  C   UNL     1      -0.259   1.487  -0.099  0.00  0.00    +0.064 C 
ATOM      8  C   UNL     1      -0.103  -0.011  -0.046  0.00  0.00    +0.021 A 
ATOM      9  C   UNL     1       0.059  -0.826  -1.110  0.00  0.00    +0.023 A 
ATOM     10  C   UNL     1       0.165  -2.142  -0.630  0.00  0.00    +0.028 A 
ATOM     11  C   UNL     1       0.064  -2.090   0.728  0.00  0.00    +0.054 A 
ATOM     12  N   UNL     1      -0.096  -0.773   1.088  0.00  0.00    -0.313 N 
BRANCH  11  13
ATOM     13  C   UNL     1       0.121  -3.243   1.650  0.00  0.00    -0.001 A 
ATOM     14  C   UNL     1      -0.390  -3.132   2.944  0.00  0.00    +0.010 A 
ATOM     15  C   UNL     1      -0.334  -4.213   3.800  0.00  0.00    +0.001 A 
ATOM     16  C   UNL     1       0.229  -5.405   3.378  0.00  0.00    +0.000 A 
ATOM     17  C   UNL     1       0.738  -5.521   2.096  0.00  0.00    +0.001 A 
ATOM     18  C   UNL     1       0.682  -4.450   1.229  0.00  0.00    +0.010 A 
ENDBRANCH  11  13
ENDBRANCH   1  12
BRANCH   4  19
ATOM     19  C   UNL     1      -0.644   1.159   6.363  0.00  0.00    +0.263 C 
ATOM     20  O   UNL     1       0.296   1.101   7.132  0.00  0.00    -0.268 OA
ATOM     21  N   UNL     1      -1.817   1.685   6.769  0.00  0.00    -0.203 N 
ATOM     22  H   UNL     1      -2.566   1.732   6.155  0.00  0.00    +0.178 HD
BRANCH  21  23
ATOM     23  N   UNL     1      -1.953   2.164   8.079  0.00  0.00    -0.187 NA
ATOM     24  C   UNL     1      -3.082   2.671   8.470  0.00  0.00    +0.138 C 
BRANCH  24  25
ATOM     25  C   UNL     1      -3.225   3.175   9.848  0.00  0.00    -0.002 A 
ATOM     26  C   UNL     1      -2.145   3.114  10.732  0.00  0.00    +0.013 A 
ATOM     27  C   UNL     1      -2.281   3.586  12.021  0.00  0.00    +0.050 A 
ATOM     28  C   UNL     1      -3.489   4.122  12.443  0.00  0.00    +0.162 A 
ATOM     29  C   UNL     1      -4.570   4.186  11.566  0.00  0.00    +0.162 A 
ATOM     30  C   UNL     1      -4.440   3.720  10.272  0.00  0.00    +0.059 A 
BRANCH  29  31
ATOM     31  O   UNL     1      -5.753   4.712  11.984  0.00  0.00    -0.491 OA
ATOM     32  C   UNL     1      -6.819   4.747  11.033  0.00  0.00    +0.277 C 
ENDBRANCH  29  31
BRANCH  28  33
ATOM     33  O   UNL     1      -3.618   4.586  13.714  0.00  0.00    -0.491 OA
ATOM     34  C   UNL     1      -2.470   4.489  14.559  0.00  0.00    +0.277 C 
ENDBRANCH  28  33
ENDBRANCH  24  25
ENDBRANCH  21  23
ENDBRANCH   4  19
TORSDOF 7
