REMARK  Name = ZINC01244495
REMARK  8 active torsions:
REMARK  status: ('A' for Active; 'I' for Inactive)
REMARK    1  A    between atoms: C_1  and  O_2
REMARK    2  A    between atoms: O_2  and  C_3
REMARK    3  A    between atoms: C_5  and  C_10
REMARK    4  A    between atoms: C_8  and  O_9
REMARK    5  A    between atoms: C_12  and  C_31
REMARK    6  A    between atoms: C_13  and  S_22
REMARK    7  A    between atoms: S_22  and  C_23
REMARK    8  A    between atoms: C_23  and  C_24
REMARK                            x       y       z     vdW  Elec       q    Type
REMARK                         _______ _______ _______ _____ _____    ______ ____
ROOT
ATOM      1  C   UNL     1       2.462   0.334   4.204  0.00  0.00    +0.097 C 
ATOM      2  C   UNL     1       3.933   0.046   4.256  0.00  0.00    +0.069 C 
ATOM      3  C   UNL     1       4.457  -0.764   5.214  0.00  0.00    +0.080 C 
ATOM      4  N   UNL     1       3.636  -1.330   6.162  0.00  0.00    -0.311 N 
ATOM      5  C   UNL     1       2.400  -0.801   6.418  0.00  0.00    +0.016 C 
ATOM      6  C   UNL     1       1.796  -0.001   5.515  0.00  0.00    +0.024 C 
ATOM      7  C   UNL     1       0.525   0.544   5.769  0.00  0.00    +0.162 C 
ATOM      8  O   UNL     1       0.013   1.273   4.942  0.00  0.00    -0.292 OA
ATOM      9  C   UNL     1      -0.213   0.240   7.044  0.00  0.00    +0.080 C 
ATOM     10  C   UNL     1       0.220  -1.138   7.554  0.00  0.00    +0.014 C 
ATOM     11  C   UNL     1       1.737  -1.132   7.732  0.00  0.00    +0.051 C 
ATOM     12  H   UNL     1       3.937  -2.110   6.654  0.00  0.00    +0.152 HD
ENDROOT
BRANCH   1  15
ATOM     13  C   UNL     1       0.626  -0.619   1.042  0.00  0.00    +0.162 A 
ATOM     14  C   UNL     1       1.202   0.137   2.051  0.00  0.00    +0.054 A 
ATOM     15  C   UNL     1       1.836  -0.490   3.108  0.00  0.00    -0.031 A 
ATOM     16  C   UNL     1       1.897  -1.870   3.161  0.00  0.00    +0.008 A 
ATOM     17  C   UNL     1       1.325  -2.630   2.158  0.00  0.00    +0.049 A 
ATOM     18  C   UNL     1       0.683  -2.008   1.099  0.00  0.00    +0.158 A 
BRANCH  13  20
ATOM     19  C   UNL     1      -0.017   1.425   0.010  0.00  0.00    +0.277 C 
ATOM     20  O   UNL     1       0.002  -0.004   0.002  0.00  0.00    -0.491 OA
ENDBRANCH  13  20
BRANCH  18  21
ATOM     21  O   UNL     1       0.115  -2.754   0.114  0.00  0.00    -0.503 OA
ATOM     22  H   UNL     1       0.711  -2.957  -0.620  0.00  0.00    +0.292 HD
ENDBRANCH  18  21
ENDBRANCH   1  15
BRANCH   2  23
ATOM     23  C   UNL     1       4.801   0.635   3.280  0.00  0.00    +0.098 C 
ATOM     24  N   UNL     1       5.489   1.102   2.506  0.00  0.00    -0.191 NA
ENDBRANCH   2  23
BRANCH   3  25
ATOM     25  S   UNL     1       6.188  -1.091   5.241  0.00  0.00    -0.104 S 
BRANCH  25  26
ATOM     26  C   UNL     1       6.405  -2.195   6.664  0.00  0.00    +0.112 C 
BRANCH  26  27
ATOM     27  C   UNL     1       7.861  -2.556   6.802  0.00  0.00    -0.019 A 
ATOM     28  C   UNL     1       8.363  -3.667   6.151  0.00  0.00    +0.006 A 
ATOM     29  C   UNL     1       9.699  -3.998   6.277  0.00  0.00    +0.000 A 
ATOM     30  C   UNL     1      10.534  -3.219   7.056  0.00  0.00    +0.001 A 
ATOM     31  C   UNL     1      10.034  -2.108   7.708  0.00  0.00    +0.020 A 
ATOM     32  C   UNL     1       8.698  -1.773   7.577  0.00  0.00    +0.045 A 
ATOM     33 CL   UNL     1       8.070  -0.373   8.390  0.00  0.00    -0.083 Cl
ENDBRANCH  26  27
ENDBRANCH  25  26
ENDBRANCH   3  25
TORSDOF 7
