REMARK  Name = ZINC15776430
REMARK  6 active torsions:
REMARK  status: ('A' for Active; 'I' for Inactive)
REMARK    1  A    between atoms: C_4  and  C_7
REMARK    2  A    between atoms: C_8  and  C_9
REMARK    3  A    between atoms: C_9  and  C_11
REMARK    4  A    between atoms: C_12  and  C_23
REMARK    5  A    between atoms: C_13  and  O_22
REMARK    6  A    between atoms: C_20  and  O_21
REMARK                            x       y       z     vdW  Elec       q    Type
REMARK                         _______ _______ _______ _____ _____    ______ ____
ROOT
ATOM      1  C   UNL     1       2.331   5.288   0.009  0.00  0.00    +0.075 A 
ATOM      2  C   UNL     1       1.048   5.990   0.024  0.00  0.00    +0.038 A 
ATOM      3  C   UNL     1      -0.131   5.268   0.031  0.00  0.00    +0.133 A 
ATOM      4  C   UNL     1      -0.096   3.858   0.023  0.00  0.00    +0.028 A 
ATOM      5  C   UNL     1      -1.289   3.116   0.030  0.00  0.00    +0.012 A 
ATOM      6  C   UNL     1      -1.242   1.756   0.017  0.00  0.00    +0.001 A 
ATOM      7  C   UNL     1      -0.022   1.083   0.007  0.00  0.00    +0.001 A 
ATOM      8  C   UNL     1       1.155   1.768   0.000  0.00  0.00    +0.012 A 
ATOM      9  C   UNL     1       1.144   3.174   0.008  0.00  0.00    +0.028 A 
ATOM     10  C   UNL     1       2.355   3.897   0.001  0.00  0.00    +0.136 A 
ENDROOT
BRANCH   2  11
ATOM     11  C   UNL     1       1.012   7.471   0.032  0.00  0.00    -0.014 A 
ATOM     12  C   UNL     1       1.500   8.189  -1.060  0.00  0.00    +0.008 A 
ATOM     13  C   UNL     1       1.458   9.568  -1.050  0.00  0.00    +0.001 A 
ATOM     14  C   UNL     1       0.945  10.239   0.046  0.00  0.00    +0.000 A 
ATOM     15  C   UNL     1       0.465   9.533   1.135  0.00  0.00    +0.001 A 
ATOM     16  C   UNL     1       0.496   8.153   1.133  0.00  0.00    +0.008 A 
ENDBRANCH   2  11
BRANCH   1  17
ATOM     17  C   UNL     1       3.591   6.050   0.001  0.00  0.00    +0.190 C 
ATOM     18  O   UNL     1       4.150   6.291  -1.054  0.00  0.00    -0.287 OA
BRANCH  17  20
ATOM     19  C   UNL     1       5.269   7.302   1.248  0.00  0.00    +0.012 C 
ATOM     20  C   UNL     1       4.171   6.517   1.261  0.00  0.00    +0.052 C 
BRANCH  19  24
ATOM     21  C   UNL     1       6.950   8.657   4.899  0.00  0.00    +0.000 A 
ATOM     22  C   UNL     1       7.530   9.022   3.696  0.00  0.00    +0.001 A 
ATOM     23  C   UNL     1       6.989   8.586   2.505  0.00  0.00    +0.008 A 
ATOM     24  C   UNL     1       5.852   7.772   2.514  0.00  0.00    -0.025 A 
ATOM     25  C   UNL     1       5.269   7.412   3.733  0.00  0.00    +0.008 A 
ATOM     26  C   UNL     1       5.825   7.851   4.916  0.00  0.00    +0.001 A 
ENDBRANCH  19  24
ENDBRANCH  17  20
ENDBRANCH   1  17
BRANCH  10  27
ATOM     27  O   UNL     1       3.539   3.238  -0.014  0.00  0.00    -0.505 OA
ATOM     28  H   UNL     1       3.875   3.052  -0.901  0.00  0.00    +0.292 HD
ENDBRANCH  10  27
BRANCH   3  29
ATOM     29  O   UNL     1      -1.324   5.917   0.046  0.00  0.00    -0.506 OA
ATOM     30  H   UNL     1      -1.662   6.100   0.933  0.00  0.00    +0.292 HD
ENDBRANCH   3  29
TORSDOF 6
