REMARK  Name = ZINC66739573
REMARK  9 active torsions:
REMARK  status: ('A' for Active; 'I' for Inactive)
REMARK    1  A    between atoms: C_1  and  C_2
REMARK    2  A    between atoms: C_2  and  C_4
REMARK    3  A    between atoms: C_2  and  O_6
REMARK    4  A    between atoms: O_6  and  C_7
REMARK    5  A    between atoms: C_10  and  C_13
REMARK    6  A    between atoms: C_18  and  O_27
REMARK    7  A    between atoms: C_19  and  O_25
REMARK    8  A    between atoms: O_25  and  C_26
REMARK    9  A    between atoms: O_27  and  C_28
REMARK                            x       y       z     vdW  Elec       q    Type
REMARK                         _______ _______ _______ _____ _____    ______ ____
ROOT
ATOM      1  C   UNL     1      -2.433  -0.916  -5.852  0.00  0.00    +0.190 C 
ATOM      2  N   UNL     1      -1.576  -0.711  -7.026  0.00  0.00    -0.322 N 
ATOM      3  C   UNL     1      -1.179   0.586  -7.341  0.00  0.00    +0.045 A 
ATOM      4  C   UNL     1       0.020   0.849  -7.976  0.00  0.00    +0.073 A 
ATOM      5  C   UNL     1       0.372   2.159  -8.264  0.00  0.00    +0.163 A 
ATOM      6  C   UNL     1      -0.476   3.212  -7.915  0.00  0.00    +0.162 A 
ATOM      7  C   UNL     1      -1.677   2.960  -7.282  0.00  0.00    +0.064 A 
ATOM      8  C   UNL     1      -2.040   1.644  -6.993  0.00  0.00    +0.061 A 
ATOM      9  C   UNL     1      -3.313   1.321  -6.329  0.00  0.00    +0.248 C 
ATOM     10  O   UNL     1      -4.188   2.161  -6.237  0.00  0.00    -0.270 OA
ATOM     11  N   UNL     1      -3.498   0.087  -5.825  0.00  0.00    -0.289 N 
ATOM     12  H   UNL     1      -1.291  -1.463  -7.569  0.00  0.00    +0.148 HD
ATOM     13  H   UNL     1      -4.356  -0.141  -5.436  0.00  0.00    +0.151 HD
ENDROOT
BRANCH   1  17
ATOM     14  C   UNL     1      -0.078  -0.574  -2.303  0.00  0.00    +0.122 A 
ATOM     15  C   UNL     1      -1.422  -0.230  -2.281  0.00  0.00    +0.046 A 
ATOM     16  C   UNL     1      -2.181  -0.341  -3.429  0.00  0.00    +0.010 A 
ATOM     17  C   UNL     1      -1.603  -0.795  -4.600  0.00  0.00    -0.009 A 
ATOM     18  C   UNL     1      -0.264  -1.139  -4.625  0.00  0.00    +0.010 A 
ATOM     19  C   UNL     1       0.501  -1.024  -3.480  0.00  0.00    +0.046 A 
BRANCH  14  20
ATOM     20  O   UNL     1       0.671  -0.465  -1.174  0.00  0.00    -0.475 OA
BRANCH  20  22
ATOM     21  C   UNL     1       2.331  -2.221  -1.185  0.00  0.00    +0.068 C 
ATOM     22  C   UNL     1       2.072  -0.717  -1.298  0.00  0.00    +0.271 C 
BRANCH  22  23
ATOM     23  C   UNL     1       2.794  -0.013  -0.226  0.00  0.00    +0.107 C 
ATOM     24  N   UNL     1       3.352   0.530   0.602  0.00  0.00    -0.193 NA
ENDBRANCH  22  23
ENDBRANCH  20  22
ENDBRANCH  14  20
ENDBRANCH   1  17
BRANCH   6  25
ATOM     25  O   UNL     1      -0.117   4.493  -8.199  0.00  0.00    -0.491 OA
ATOM     26  C   UNL     1      -1.031   5.523  -7.815  0.00  0.00    +0.277 C 
ENDBRANCH   6  25
BRANCH   5  27
ATOM     27  O   UNL     1       1.549   2.420  -8.888  0.00  0.00    -0.491 OA
ATOM     28  C   UNL     1       2.372   1.299  -9.217  0.00  0.00    +0.277 C 
ENDBRANCH   5  27
TORSDOF 6
