REMARK  Name = ZINC13177752
REMARK  9 active torsions:
REMARK  status: ('A' for Active; 'I' for Inactive)
REMARK    1  A    between atoms: C_1  and  O_2
REMARK    2  A    between atoms: O_2  and  C_3
REMARK    3  A    between atoms: C_5  and  C_13
REMARK    4  A    between atoms: C_6  and  O_11
REMARK    5  A    between atoms: C_8  and  O_9
REMARK    6  A    between atoms: O_9  and  C_10
REMARK    7  A    between atoms: O_11  and  C_12
REMARK    8  A    between atoms: N_15  and  C_16
REMARK    9  A    between atoms: C_21  and  C_22
REMARK                            x       y       z     vdW  Elec       q    Type
REMARK                         _______ _______ _______ _____ _____    ______ ____
ROOT
ATOM      1  C   UNL     1      -2.333  -0.290   0.086  0.00  0.00    +0.252 C 
ATOM      2  O   UNL     1      -1.271  -0.859   0.250  0.00  0.00    -0.270 OA
ATOM      3  N   UNL     1      -2.372   1.055   0.008  0.00  0.00    -0.281 N 
ATOM      4  H   UNL     1      -3.225   1.513  -0.045  0.00  0.00    +0.155 HD
ENDROOT
BRANCH   3   5
ATOM      5  C   UNL     1      -1.188   1.786   0.004  0.00  0.00    +0.048 A 
ATOM      6  C   UNL     1      -0.056   1.278  -0.620  0.00  0.00    +0.025 A 
ATOM      7  C   UNL     1       1.115   2.007  -0.628  0.00  0.00    +0.017 A 
ATOM      8  C   UNL     1       1.175   3.247  -0.010  0.00  0.00    +0.019 A 
ATOM      9  C   UNL     1       0.063   3.765   0.619  0.00  0.00    +0.032 A 
ATOM     10  C   UNL     1      -1.130   3.038   0.635  0.00  0.00    +0.085 A 
ATOM     11 BR   UNL     1       2.789   4.232  -0.030  0.00  0.00    -0.050 Br
BRANCH  10  12
ATOM     12  C   UNL     1      -2.323   3.586   1.306  0.00  0.00    +0.388 C 
ATOM     13  O   UNL     1      -3.382   2.994   1.241  0.00  0.00    -0.241 OA
ATOM     14  O   UNL     1      -2.239   4.744   1.991  0.00  0.00    -0.241 OA
ENDBRANCH  10  12
ENDBRANCH   3   5
BRANCH   1  17
ATOM     15  C   UNL     1      -5.963  -1.153  -0.319  0.00  0.00    +0.162 A 
ATOM     16  C   UNL     1      -4.801  -0.418  -0.209  0.00  0.00    +0.066 A 
ATOM     17  C   UNL     1      -3.577  -1.070  -0.026  0.00  0.00    +0.082 A 
ATOM     18  C   UNL     1      -3.540  -2.470   0.054  0.00  0.00    +0.136 A 
ATOM     19  C   UNL     1      -4.712  -3.198  -0.052  0.00  0.00    +0.095 A 
ATOM     20  C   UNL     1      -5.921  -2.546  -0.238  0.00  0.00    +0.165 A 
BRANCH  15  22
ATOM     21  C   UNL     1      -7.123   0.907  -0.576  0.00  0.00    +0.277 C 
ATOM     22  O   UNL     1      -7.153  -0.520  -0.502  0.00  0.00    -0.491 OA
ENDBRANCH  15  22
BRANCH  20  23
ATOM     23  O   UNL     1      -7.069  -3.264  -0.342  0.00  0.00    -0.491 OA
ATOM     24  C   UNL     1      -6.955  -4.686  -0.251  0.00  0.00    +0.277 C 
ENDBRANCH  20  23
BRANCH  18  25
ATOM     25  O   UNL     1      -2.356  -3.110   0.236  0.00  0.00    -0.494 OA
ATOM     26  C   UNL     1      -2.394  -4.536   0.309  0.00  0.00    +0.277 C 
ENDBRANCH  18  25
ENDBRANCH   1  17
TORSDOF 6
