REMARK  Name = ZINC64528542
REMARK  5 active torsions:
REMARK  status: ('A' for Active; 'I' for Inactive)
REMARK    1  A    between atoms: C_3  and  N_10
REMARK    2  A    between atoms: C_6  and  C_7
REMARK    3  A    between atoms: C_7  and  C_8
REMARK    4  A    between atoms: N_13  and  C_14
REMARK    5  A    between atoms: C_14  and  C_15
REMARK                            x       y       z     vdW  Elec       q    Type
REMARK                         _______ _______ _______ _____ _____    ______ ____
ROOT
ATOM      1  N   UNL     1       3.584   2.124  -0.021  0.00  0.00    -0.269 N 
ATOM      2  C   UNL     1       4.758   1.468   0.066  0.00  0.00    +0.304 C 
ATOM      3  O   UNL     1       4.777   0.252   0.060  0.00  0.00    -0.252 OA
ATOM      4  N   UNL     1       5.911   2.159   0.160  0.00  0.00    -0.295 N 
ATOM      5  H   UNL     1       3.573   3.091  -0.094  0.00  0.00    +0.156 HD
ATOM      6  H   UNL     1       5.896   3.129   0.165  0.00  0.00    +0.151 HD
ENDROOT
BRANCH   1   9
ATOM      7  C   UNL     1       1.084  -0.460   0.752  0.00  0.00    +0.006 A 
ATOM      8  C   UNL     1       2.273   0.243   0.739  0.00  0.00    +0.023 A 
ATOM      9  C   UNL     1       2.381   1.409  -0.006  0.00  0.00    +0.035 A 
ATOM     10  C   UNL     1       1.292   1.866  -0.737  0.00  0.00    +0.023 A 
ATOM     11  C   UNL     1       0.105   1.159  -0.720  0.00  0.00    +0.006 A 
ATOM     12  C   UNL     1       0.001  -0.002   0.024  0.00  0.00    -0.034 A 
BRANCH  12  13
ATOM     13  C   UNL     1      -1.295  -0.771   0.040  0.00  0.00    +0.153 C 
BRANCH  13  14
ATOM     14  C   UNL     1      -2.142  -0.283   1.140  0.00  0.00    +0.067 C 
ATOM     15  N   UNL     1      -2.795   0.094   1.990  0.00  0.00    -0.196 NA
ENDBRANCH  13  14
ENDBRANCH  12  13
ENDBRANCH   1   9
BRANCH   4  16
ATOM     16  C   UNL     1       7.187   1.446   0.254  0.00  0.00    +0.141 C 
BRANCH  16  17
ATOM     17  C   UNL     1       8.314   2.442   0.348  0.00  0.00    -0.026 A 
ATOM     18  C   UNL     1       8.919   2.910  -0.804  0.00  0.00    +0.054 A 
ATOM     19  C   UNL     1       9.954   3.826  -0.721  0.00  0.00    +0.168 A 
ATOM     20  C   UNL     1      10.385   4.274   0.525  0.00  0.00    +0.180 A 
ATOM     21  C   UNL     1       9.775   3.801   1.676  0.00  0.00    +0.064 A 
ATOM     22  C   UNL     1       8.737   2.891   1.585  0.00  0.00    +0.024 A 
ATOM     23 BR   UNL     1      10.355   4.407   3.371  0.00  0.00    -0.046 Br
ATOM     24  O   UNL     1      11.405   5.163   0.341  0.00  0.00    -0.451 OA
ATOM     25  C   UNL     1      11.866   4.944  -1.005  0.00  0.00    +0.466 C 
ATOM     26  O   UNL     1      10.705   4.434  -1.686  0.00  0.00    -0.453 OA
ENDBRANCH  16  17
ENDBRANCH   4  16
TORSDOF 5
