REMARK  Name = ZINC38859781
REMARK  6 active torsions:
REMARK  status: ('A' for Active; 'I' for Inactive)
REMARK    1  A    between atoms: C_1  and  C_2
REMARK    2  A    between atoms: C_5  and  N_27
REMARK    3  A    between atoms: C_7  and  N_8
REMARK    4  A    between atoms: C_9  and  C_11
REMARK    5  A    between atoms: N_14  and  S_23
REMARK    6  A    between atoms: S_23  and  C_26
REMARK                            x       y       z     vdW  Elec       q    Type
REMARK                         _______ _______ _______ _____ _____    ______ ____
ROOT
ATOM      1  C   UNL     1      -0.438   0.113   5.059  0.00  0.00    +0.278 C 
ATOM      2  C   UNL     1       0.856   0.939   5.087  0.00  0.00    +0.185 C 
ATOM      3  N   UNL     1       0.983   1.521   6.434  0.00  0.00    -0.200 N 
ATOM      4  C   UNL     1       0.671   0.702   7.531  0.00  0.00    +0.094 A 
ATOM      5  C   UNL     1       1.038   1.086   8.811  0.00  0.00    +0.048 A 
ATOM      6  C   UNL     1       0.726   0.277   9.889  0.00  0.00    +0.043 A 
ATOM      7  C   UNL     1       0.047  -0.912   9.689  0.00  0.00    +0.024 A 
ATOM      8  C   UNL     1      -0.320  -1.299   8.414  0.00  0.00    +0.049 A 
ATOM      9  C   UNL     1      -0.009  -0.495   7.328  0.00  0.00    +0.144 A 
ATOM     10  O   UNL     1      -0.371  -0.888   6.077  0.00  0.00    -0.476 OA
ATOM     11 CL   UNL     1       1.185   0.755  11.494  0.00  0.00    -0.083 Cl
ENDROOT
BRANCH   1  13
ATOM     12  N   UNL     1      -0.766   0.209   2.609  0.00  0.00    -0.282 N 
ATOM     13  C   UNL     1      -0.587  -0.545   3.711  0.00  0.00    +0.260 C 
ATOM     14  O   UNL     1      -0.546  -1.754   3.619  0.00  0.00    -0.271 OA
ATOM     15  H   UNL     1      -0.739   1.176   2.673  0.00  0.00    +0.155 HD
BRANCH  12  22
ATOM     16  C   UNL     1      -2.299   1.620   0.670  0.00  0.00    +0.045 C 
ATOM     17  C   UNL     1      -1.735   0.249   0.397  0.00  0.00    -0.029 A 
ATOM     18  C   UNL     1      -1.951  -0.356  -0.826  0.00  0.00    +0.007 A 
ATOM     19  C   UNL     1      -1.434  -1.613  -1.078  0.00  0.00    +0.033 A 
ATOM     20  C   UNL     1      -0.698  -2.269  -0.107  0.00  0.00    +0.128 A 
ATOM     21  C   UNL     1      -0.478  -1.669   1.117  0.00  0.00    +0.056 A 
ATOM     22  C   UNL     1      -0.992  -0.404   1.371  0.00  0.00    +0.039 A 
BRANCH  20  23
ATOM     23  N   UNL     1      -0.147  -3.615  -0.381  0.00  0.00    +0.056 N 
ATOM     24  O   UNL     1      -0.340  -4.141  -1.452  0.00  0.00    -0.126 OA
ATOM     25  O   UNL     1       0.496  -4.188   0.467  0.00  0.00    -0.126 OA
ENDBRANCH  20  23
ENDBRANCH  12  22
ENDBRANCH   1  13
BRANCH   3  26
ATOM     26  S   UNL     1       1.477   3.087   6.648  0.00  0.00    +0.043 S 
ATOM     27  O   UNL     1       1.281   3.705   5.383  0.00  0.00    -0.155 OA
ATOM     28  O   UNL     1       0.767   3.539   7.793  0.00  0.00    -0.155 OA
ATOM     29  C   UNL     1       3.249   2.970   7.018  0.00  0.00    +0.218 C 
ENDBRANCH   3  26
TORSDOF 4
