REMARK  Name = ZINC02712466
REMARK  8 active torsions:
REMARK  status: ('A' for Active; 'I' for Inactive)
REMARK    1  A    between atoms: C_3  and  C_6
REMARK    2  A    between atoms: N_8  and  C_9
REMARK    3  A    between atoms: C_10  and  N_29
REMARK    4  A    between atoms: C_12  and  S_17
REMARK    5  A    between atoms: S_17  and  C_18
REMARK    6  A    between atoms: C_18  and  C_19
REMARK    7  A    between atoms: N_21  and  C_22
REMARK    8  A    between atoms: C_22  and  C_23
REMARK                            x       y       z     vdW  Elec       q    Type
REMARK                         _______ _______ _______ _____ _____    ______ ____
ROOT
ATOM      1  C   UNL     1       6.024   1.225  -0.113  0.00  0.00    +0.139 A 
ATOM      2  C   UNL     1       7.096   0.345  -0.218  0.00  0.00    +0.146 A 
ATOM      3  N   UNL     1       8.343   0.824  -0.287  0.00  0.00    -0.207 NA
ATOM      4  C   UNL     1       8.579   2.119  -0.256  0.00  0.00    +0.171 A 
ATOM      5  N   UNL     1       7.566   3.023  -0.153  0.00  0.00    -0.300 N 
ATOM      6  H   UNL     1       7.765   3.973  -0.132  0.00  0.00    +0.171 HD
ATOM      7  C   UNL     1       6.285   2.603  -0.086  0.00  0.00    +0.275 A 
ATOM      8  O   UNL     1       5.371   3.407   0.001  0.00  0.00    -0.266 OA
ENDROOT
BRANCH   1  11
ATOM      9  C   UNL     1       3.931   1.050   1.022  0.00  0.00    +0.255 C 
ATOM     10  O   UNL     1       4.403   1.667   1.959  0.00  0.00    -0.269 OA
ATOM     11  N   UNL     1       4.703   0.743  -0.039  0.00  0.00    -0.274 N 
ATOM     12  H   UNL     1       4.348   0.189  -0.753  0.00  0.00    +0.155 HD
BRANCH   9  15
ATOM     13  C   UNL     1       0.319   0.347   1.769  0.00  0.00    +0.008 A 
ATOM     14  C   UNL     1       1.569   0.854   2.031  0.00  0.00    +0.021 A 
ATOM     15  C   UNL     1       2.524   0.641   1.048  0.00  0.00    +0.074 A 
ATOM     16  S   UNL     1       1.592  -0.259  -0.178  0.00  0.00    -0.092 S 
ATOM     17  C   UNL     1       0.105  -0.309   0.602  0.00  0.00    +0.046 A 
ENDBRANCH   9  15
ENDBRANCH   1  11
BRANCH   2  18
ATOM     18  N   UNL     1       6.874  -1.020  -0.253  0.00  0.00    -0.341 N 
ATOM     19  H   UNL     1       5.969  -1.365  -0.203  0.00  0.00    +0.144 HD
ATOM     20  H   UNL     1       7.623  -1.632  -0.327  0.00  0.00    +0.144 HD
ENDBRANCH   2  18
BRANCH   4  21
ATOM     21  S   UNL     1      10.242   2.694  -0.348  0.00  0.00    -0.078 S 
BRANCH  21  22
ATOM     22  C   UNL     1      11.226   1.175  -0.471  0.00  0.00    +0.173 C 
BRANCH  22  23
ATOM     23  C   UNL     1      12.688   1.530  -0.558  0.00  0.00    +0.223 C 
ATOM     24  O   UNL     1      13.033   2.692  -0.539  0.00  0.00    -0.275 OA
ATOM     25  N   UNL     1      13.613   0.554  -0.657  0.00  0.00    -0.312 N 
ATOM     26  H   UNL     1      13.338  -0.376  -0.672  0.00  0.00    +0.149 HD
BRANCH  25  27
ATOM     27  C   UNL     1      15.035   0.899  -0.741  0.00  0.00    +0.135 C 
BRANCH  27  28
ATOM     28  C   UNL     1      15.864  -0.383  -0.845  0.00  0.00    +0.135 C 
ATOM     29  C   UNL     1      17.375  -0.042  -0.900  0.00  0.00    +0.035 C 
ATOM     30  C   UNL     1      17.994  -1.359  -0.358  0.00  0.00    +0.031 C 
ATOM     31  C   UNL     1      16.941  -1.815   0.674  0.00  0.00    +0.160 C 
ATOM     32  O   UNL     1      15.701  -1.180   0.339  0.00  0.00    -0.375 OA
ENDBRANCH  27  28
ENDBRANCH  25  27
ENDBRANCH  22  23
ENDBRANCH  21  22
ENDBRANCH   4  21
TORSDOF 8
