REMARK  Name = ZINC22924953
REMARK  11 active torsions:
REMARK  status: ('A' for Active; 'I' for Inactive)
REMARK    1  A    between atoms: C_1  and  C_2
REMARK    2  A    between atoms: C_2  and  O_3
REMARK    3  A    between atoms: O_3  and  C_4
REMARK    4  A    between atoms: C_11  and  C_16
REMARK    5  A    between atoms: C_16  and  C_18
REMARK    6  A    between atoms: C_16  and  N_27
REMARK    7  A    between atoms: N_22  and  C_23
REMARK    8  A    between atoms: C_23  and  C_24
REMARK    9  A    between atoms: C_23  and  C_25
REMARK   10  A    between atoms: C_23  and  C_26
REMARK   11  A    between atoms: N_30  and  C_33
REMARK                            x       y       z     vdW  Elec       q    Type
REMARK                         _______ _______ _______ _____ _____    ______ ____
ROOT
ATOM      1  C   UNL     1       3.033  -6.353   5.058  0.00  0.00    +0.162 C 
ENDROOT
BRANCH   1   9
ATOM      2  C   UNL     1       0.028  -2.584   1.160  0.00  0.00    +0.121 A 
ATOM      3  C   UNL     1      -0.554  -3.593   0.395  0.00  0.00    +0.047 A 
ATOM      4  C   UNL     1      -0.323  -4.918   0.690  0.00  0.00    +0.030 A 
ATOM      5  C   UNL     1       0.498  -5.260   1.759  0.00  0.00    +0.049 A 
ATOM      6  C   UNL     1       1.088  -4.244   2.535  0.00  0.00    +0.002 A 
ATOM      7  C   UNL     1       0.850  -2.901   2.222  0.00  0.00    +0.055 A 
ATOM      8  C   UNL     1       1.950  -4.618   3.657  0.00  0.00    +0.021 A 
ATOM      9  C   UNL     1       2.150  -5.935   3.910  0.00  0.00    +0.042 A 
ATOM     10  C   UNL     1       1.535  -6.915   3.103  0.00  0.00    +0.254 A 
ATOM     11  O   UNL     1       1.728  -8.093   3.348  0.00  0.00    -0.268 OA
ATOM     12  N   UNL     1       0.742  -6.582   2.070  0.00  0.00    -0.322 N 
ATOM     13  H   UNL     1       0.335  -7.282   1.535  0.00  0.00    +0.169 HD
BRANCH   2  14
ATOM     14  O   UNL     1      -0.211  -1.281   0.855  0.00  0.00    -0.492 OA
BRANCH  14  16
ATOM     15  C   UNL     1      -1.220   0.489  -0.444  0.00  0.00    +0.048 C 
ATOM     16  C   UNL     1      -1.071  -1.022  -0.256  0.00  0.00    +0.225 C 
ENDBRANCH  14  16
ENDBRANCH   2  14
ENDBRANCH   1   9
BRANCH   1  17
ATOM     17  N   UNL     1       2.287  -7.256   5.945  0.00  0.00    -0.292 NA
ATOM     18  C   UNL     1       1.046  -6.625   6.417  0.00  0.00    +0.067 C 
ATOM     19  C   UNL     1       0.272  -7.617   7.288  0.00  0.00    -0.063 C 
ATOM     20  N   UNL     1       1.103  -8.018   8.431  0.00  0.00    +0.383 N 
ATOM     21  C   UNL     1       2.327  -8.669   7.944  0.00  0.00    -0.063 C 
ATOM     22  C   UNL     1       3.118  -7.685   7.079  0.00  0.00    +0.067 C 
ATOM     23  H   UNL     1       1.348  -7.202   8.971  0.00  0.00    -0.081 HD
BRANCH  20  24
ATOM     24  C   UNL     1       0.353  -8.957   9.276  0.00  0.00    -0.068 C 
ATOM     25  C   UNL     1      -0.921  -8.279   9.784  0.00  0.00    -0.015 C 
ATOM     26  C   UNL     1      -1.702  -9.256  10.664  0.00  0.00    -0.002 C 
ATOM     27  C   UNL     1      -0.837  -9.674  11.855  0.00  0.00    -0.000 C 
ATOM     28  C   UNL     1       0.437 -10.352  11.346  0.00  0.00    -0.002 C 
ATOM     29  C   UNL     1       1.218  -9.375  10.466  0.00  0.00    -0.015 C 
ENDBRANCH  20  24
ENDBRANCH   1  17
BRANCH   1  30
ATOM     30  C   UNL     1       4.248  -7.065   4.524  0.00  0.00    +0.174 A 
ATOM     31  N   UNL     1       4.277  -8.244   3.952  0.00  0.00    -0.111 NA
ATOM     32  N   UNL     1       5.498  -8.503   3.634  0.00  0.00    -0.023 NA
ATOM     33  N   UNL     1       6.250  -7.519   3.987  0.00  0.00    -0.043 NA
ATOM     34  N   UNL     1       5.515  -6.611   4.535  0.00  0.00    -0.222 N 
BRANCH  34  35
ATOM     35  C   UNL     1       5.975  -5.327   5.071  0.00  0.00    +0.059 C 
ATOM     36  C   UNL     1       5.698  -5.274   6.575  0.00  0.00    +0.036 C 
ATOM     37  C   UNL     1       7.478  -5.179   4.824  0.00  0.00    +0.036 C 
ATOM     38  C   UNL     1       5.229  -4.187   4.375  0.00  0.00    +0.036 C 
ENDBRANCH  34  35
ENDBRANCH   1  30
TORSDOF 7
