REMARK  Name = ZINC27029958
REMARK  5 active torsions:
REMARK  status: ('A' for Active; 'I' for Inactive)
REMARK    1  A    between atoms: C_1  and  C_2
REMARK    2  A    between atoms: C_4  and  C_20
REMARK    3  A    between atoms: C_7  and  C_11
REMARK    4  A    between atoms: C_11  and  S_12
REMARK    5  A    between atoms: S_12  and  C_13
REMARK                            x       y       z     vdW  Elec       q    Type
REMARK                         _______ _______ _______ _____ _____    ______ ____
ROOT
ATOM      1  C   UNL     1      -1.841  -3.199   0.003  0.00  0.00    +0.066 C 
ATOM      2  C   UNL     1      -0.715  -2.198  -0.003  0.00  0.00    +0.044 A 
ATOM      3  C   UNL     1       0.615  -2.645  -0.018  0.00  0.00    +0.044 A 
ATOM      4  C   UNL     1       1.621  -1.737  -0.023  0.00  0.00    +0.026 A 
ATOM      5  N   UNL     1       1.313  -0.407  -0.013  0.00  0.00    -0.275 N 
ATOM      6  C   UNL     1       2.084   0.724  -0.014  0.00  0.00    +0.115 A 
ATOM      7  C   UNL     1       1.240   1.779  -0.000  0.00  0.00    +0.086 A 
ATOM      8  N   UNL     1      -0.016   1.321   0.009  0.00  0.00    -0.213 NA
ATOM      9  C   UNL     1       0.002  -0.004   0.002  0.00  0.00    +0.236 A 
ATOM     10  N   UNL     1      -0.983  -0.914   0.006  0.00  0.00    -0.217 NA
ATOM     11 BR   UNL     1       3.973   0.797  -0.031  0.00  0.00    -0.028 Br
ATOM     12  C   UNL     1       3.058  -2.189  -0.039  0.00  0.00    +0.064 C 
ENDROOT
BRANCH   7  13
ATOM     13  C   UNL     1       1.647   3.230   0.003  0.00  0.00    +0.134 C 
BRANCH  13  14
ATOM     14  S   UNL     1       1.827   3.803   1.715  0.00  0.00    -0.091 S 
BRANCH  14  15
ATOM     15  C   UNL     1       2.298   5.493   1.551  0.00  0.00    +0.160 A 
ATOM     16  N   UNL     1       2.485   6.207   0.457  0.00  0.00    -0.133 NA
ATOM     17  N   UNL     1       2.856   7.528   0.557  0.00  0.00    -0.125 NA
ATOM     18  C   UNL     1       3.022   8.075   1.745  0.00  0.00    +0.180 A 
ATOM     19  S   UNL     1       2.643   6.700   2.821  0.00  0.00    -0.025 S 
ATOM     20  N   UNL     1       3.389   9.375   2.072  0.00  0.00    -0.336 N 
ATOM     21  H   UNL     1       3.484   9.670   3.128  0.00  0.00    +0.144 HD
ATOM     22  H   UNL     1       3.585  10.108   1.276  0.00  0.00    +0.144 HD
ENDBRANCH  14  15
ENDBRANCH  13  14
ENDBRANCH   7  13
TORSDOF 3
