REMARK  Name = ZINC24929156
REMARK  9 active torsions:
REMARK  status: ('A' for Active; 'I' for Inactive)
REMARK    1  A    between atoms: C_1  and  C_2
REMARK    2  A    between atoms: C_2  and  C_3
REMARK    3  A    between atoms: C_3  and  C_5
REMARK    4  A    between atoms: C_3  and  C_6
REMARK    5  A    between atoms: C_6  and  C_8
REMARK    6  A    between atoms: C_6  and  N_21
REMARK    7  A    between atoms: N_10  and  N_11
REMARK    8  A    between atoms: C_12  and  C_14
REMARK    9  A    between atoms: C_14  and  C_15
REMARK                            x       y       z     vdW  Elec       q    Type
REMARK                         _______ _______ _______ _____ _____    ______ ____
ROOT
ATOM      1  C   UNL     1      -1.456   2.058  -0.154  0.00  0.00    +0.162 C 
ENDROOT
BRANCH   1   2
ATOM      2  N   UNL     1      -0.145   1.421  -0.013  0.00  0.00    -0.316 N 
ATOM      3  C   UNL     1       0.998   2.190  -0.011  0.00  0.00    +0.150 C 
ATOM      4  N   UNL     1       0.926   3.471  -0.189  0.00  0.00    -0.113 NA
ATOM      5  S   UNL     1       2.501   4.032  -0.119  0.00  0.00    +0.101 S 
ATOM      6  O   UNL     1       2.854   4.492  -1.417  0.00  0.00    -0.146 OA
ATOM      7  O   UNL     1       2.628   4.823   1.054  0.00  0.00    -0.146 OA
ATOM      8  C   UNL     1       3.355   2.505   0.163  0.00  0.00    +0.123 A 
ATOM      9  C   UNL     1       2.314   1.567   0.199  0.00  0.00    +0.043 A 
ATOM     10  C   UNL     1       2.663   0.224   0.404  0.00  0.00    +0.013 A 
ATOM     11  C   UNL     1       3.982  -0.134   0.572  0.00  0.00    +0.001 A 
ATOM     12  C   UNL     1       4.987   0.816   0.537  0.00  0.00    +0.002 A 
ATOM     13  C   UNL     1       4.661   2.149   0.330  0.00  0.00    +0.030 A 
ATOM     14  H   UNL     1      -0.072   0.328   0.092  0.00  0.00    +0.148 HD
ENDBRANCH   1   2
BRANCH   1  15
ATOM     15  C   UNL     1      -2.353   1.181  -0.991  0.00  0.00    +0.250 C 
ATOM     16  O   UNL     1      -1.938   0.127  -1.423  0.00  0.00    -0.272 OA
ATOM     17  N   UNL     1      -3.616   1.569  -1.257  0.00  0.00    -0.233 N 
ATOM     18  H   UNL     1      -3.966   2.560  -0.935  0.00  0.00    +0.173 HD
BRANCH  17  19
ATOM     19  N   UNL     1      -4.482   0.709  -1.945  0.00  0.00    -0.234 N 
ATOM     20  C   UNL     1      -5.745   1.097  -2.212  0.00  0.00    +0.233 C 
ATOM     21  O   UNL     1      -6.131   2.190  -1.857  0.00  0.00    -0.274 OA
ATOM     22  H   UNL     1      -4.131  -0.282  -2.268  0.00  0.00    +0.173 HD
BRANCH  20  23
ATOM     23  C   UNL     1      -6.676   0.172  -2.952  0.00  0.00    +0.132 C 
BRANCH  23  24
ATOM     24  C   UNL     1      -8.017   0.839  -3.121  0.00  0.00    -0.039 A 
ATOM     25  C   UNL     1      -8.997   0.673  -2.160  0.00  0.00    +0.004 A 
ATOM     26  C   UNL     1     -10.225   1.289  -2.312  0.00  0.00    +0.000 A 
ATOM     27  C   UNL     1     -10.477   2.063  -3.430  0.00  0.00    +0.000 A 
ATOM     28  C   UNL     1      -9.499   2.224  -4.394  0.00  0.00    +0.000 A 
ATOM     29  C   UNL     1      -8.269   1.612  -4.239  0.00  0.00    +0.004 A 
ENDBRANCH  23  24
ENDBRANCH  20  23
ENDBRANCH  17  19
ENDBRANCH   1  15
BRANCH   1  30
ATOM     30  C   UNL     1      -2.080   2.253   1.229  0.00  0.00    +0.015 C 
ATOM     31  C   UNL     1      -1.253   3.265   2.023  0.00  0.00    +0.010 C 
BRANCH  30  33
ATOM     32  C   UNL     1      -3.075  -0.039   1.278  0.00  0.00    +0.004 C 
ATOM     33  C   UNL     1      -2.101   0.916   1.972  0.00  0.00    +0.002 C 
ENDBRANCH  30  33
ENDBRANCH   1  30
TORSDOF 7
