REMARK  Name = ZINC12181940
REMARK  8 active torsions:
REMARK  status: ('A' for Active; 'I' for Inactive)
REMARK    1  A    between atoms: C_1  and  C_2
REMARK    2  A    between atoms: C_3  and  N_9
REMARK    3  A    between atoms: C_4  and  C_8
REMARK    4  A    between atoms: N_5  and  C_7
REMARK    5  A    between atoms: C_10  and  C_12
REMARK    6  A    between atoms: C_12  and  N_13
REMARK    7  A    between atoms: C_17  and  C_27
REMARK    8  A    between atoms: C_27  and  C_28
REMARK                            x       y       z     vdW  Elec       q    Type
REMARK                         _______ _______ _______ _____ _____    ______ ____
ROOT
ATOM      1  N   UNL     1      -4.313   5.998  -3.678  0.00  0.00    -0.203 N 
ATOM      2  C   UNL     1      -2.989   6.203  -3.527  0.00  0.00    +0.353 A 
ATOM      3  O   UNL     1      -2.408   6.391  -2.473  0.00  0.00    -0.244 OA
ATOM      4  N   UNL     1      -2.422   6.162  -4.749  0.00  0.00    -0.230 N 
ATOM      5  C   UNL     1      -1.127   6.306  -5.174  0.00  0.00    +0.124 A 
ATOM      6  N   UNL     1      -0.780   6.238  -6.419  0.00  0.00    -0.233 NA
ATOM      7  C   UNL     1      -1.675   6.003  -7.416  0.00  0.00    +0.077 A 
ATOM      8  C   UNL     1      -1.274   5.927  -8.750  0.00  0.00    +0.028 A 
ATOM      9  C   UNL     1      -2.211   5.694  -9.734  0.00  0.00    +0.002 A 
ATOM     10  C   UNL     1      -3.551   5.534  -9.415  0.00  0.00    +0.001 A 
ATOM     11  C   UNL     1      -3.970   5.605  -8.101  0.00  0.00    +0.014 A 
ATOM     12  C   UNL     1      -3.040   5.840  -7.096  0.00  0.00    +0.045 A 
ATOM     13  C   UNL     1      -3.428   5.926  -5.677  0.00  0.00    +0.172 A 
ATOM     14  N   UNL     1      -4.562   5.825  -5.047  0.00  0.00    -0.148 NA
ENDROOT
BRANCH   1  15
ATOM     15  C   UNL     1      -5.311   5.962  -2.606  0.00  0.00    +0.244 C 
BRANCH  15  17
ATOM     16  N   UNL     1      -6.791   7.559  -1.433  0.00  0.00    -0.281 N 
ATOM     17  C   UNL     1      -5.854   7.349  -2.378  0.00  0.00    +0.239 C 
ATOM     18  O   UNL     1      -5.447   8.276  -3.046  0.00  0.00    -0.273 OA
ATOM     19  H   UNL     1      -7.169   6.808  -0.949  0.00  0.00    +0.155 HD
BRANCH  16  22
ATOM     20  C   UNL     1      -4.925   9.866  -0.486  0.00  0.00    +0.069 C 
ATOM     21  C   UNL     1      -6.412   9.930  -0.721  0.00  0.00    +0.081 A 
ATOM     22  C   UNL     1      -7.223   8.868  -1.148  0.00  0.00    +0.077 A 
ATOM     23  C   UNL     1      -8.498   9.326  -1.233  0.00  0.00    +0.057 A 
ATOM     24  N   UNL     1      -8.488  10.636  -0.875  0.00  0.00    -0.270 N 
ATOM     25  N   UNL     1      -7.168  10.987  -0.564  0.00  0.00    -0.175 NA
ATOM     26  C   UNL     1      -9.651  11.525  -0.825  0.00  0.00    +0.172 C 
ATOM     27  C   UNL     1      -9.706   8.526  -1.648  0.00  0.00    +0.067 C 
ENDBRANCH  16  22
ENDBRANCH  15  17
ENDBRANCH   1  15
BRANCH   5  28
ATOM     28  C   UNL     1      -0.058   6.562  -4.144  0.00  0.00    +0.110 C 
BRANCH  28  29
ATOM     29  C   UNL     1       0.500   5.248  -3.661  0.00  0.00    -0.040 A 
ATOM     30  C   UNL     1       1.582   4.678  -4.306  0.00  0.00    +0.004 A 
ATOM     31  C   UNL     1       2.093   3.472  -3.863  0.00  0.00    +0.000 A 
ATOM     32  C   UNL     1       1.522   2.837  -2.777  0.00  0.00    +0.000 A 
ATOM     33  C   UNL     1       0.437   3.404  -2.136  0.00  0.00    +0.000 A 
ATOM     34  C   UNL     1      -0.071   4.612  -2.575  0.00  0.00    +0.004 A 
ENDBRANCH  28  29
ENDBRANCH   5  28
TORSDOF 5
