REMARK  Name = ZINC66793710
REMARK  6 active torsions:
REMARK  status: ('A' for Active; 'I' for Inactive)
REMARK    1  A    between atoms: C_1  and  C_2
REMARK    2  A    between atoms: C_2  and  N_3
REMARK    3  A    between atoms: N_3  and  C_4
REMARK    4  A    between atoms: N_3  and  C_15
REMARK    5  A    between atoms: C_4  and  N_5
REMARK    6  A    between atoms: C_21  and  C_23
REMARK                            x       y       z     vdW  Elec       q    Type
REMARK                         _______ _______ _______ _____ _____    ______ ____
ROOT
ATOM      1  N   UNL     1       0.657  -0.684  -1.460  0.00  0.00    +0.393 N 
ATOM      2  H   UNL     1       0.220  -0.243  -2.255  0.00  0.00    -0.079 HD
ENDROOT
BRANCH   1   3
ATOM      3  C   UNL     1       0.803  -2.123  -1.717  0.00  0.00    -0.063 C 
ATOM      4  C   UNL     1       1.529  -2.332  -3.047  0.00  0.00    -0.015 C 
ATOM      5  C   UNL     1       1.682  -3.830  -3.314  0.00  0.00    -0.002 C 
ATOM      6  C   UNL     1       0.298  -4.480  -3.381  0.00  0.00    +0.000 C 
ATOM      7  C   UNL     1      -0.428  -4.271  -2.050  0.00  0.00    +0.002 C 
ATOM      8  C   UNL     1      -0.581  -2.772  -1.783  0.00  0.00    -0.028 C 
ATOM      9  C   UNL     1      -1.391  -2.132  -2.912  0.00  0.00    +0.006 C 
ENDBRANCH   1   3
BRANCH   1  11
ATOM     10  C   UNL     1      -0.647   0.974  -0.215  0.00  0.00    -0.017 C 
ATOM     11  C   UNL     1      -0.179  -0.481  -0.268  0.00  0.00    -0.079 C 
ENDBRANCH   1  11
BRANCH   1  12
ATOM     12  C   UNL     1       1.981  -0.089  -1.236  0.00  0.00    +0.051 C 
BRANCH  12  13
ATOM     13  N   UNL     1       2.659  -0.802  -0.150  0.00  0.00    -0.322 N 
ATOM     14  C   UNL     1       2.623  -0.302   1.129  0.00  0.00    +0.030 A 
ATOM     15  C   UNL     1       3.276  -1.034   2.042  0.00  0.00    +0.014 A 
ATOM     16  S   UNL     1       3.919  -2.391   1.104  0.00  0.00    -0.031 S 
ATOM     17  C   UNL     1       3.315  -1.952  -0.404  0.00  0.00    +0.289 A 
ATOM     18  O   UNL     1       3.442  -2.531  -1.468  0.00  0.00    -0.260 OA
ATOM     19  C   UNL     1       3.417  -0.754   3.503  0.00  0.00    +0.044 C 
ATOM     20  C   UNL     1       3.010   0.705   3.757  0.00  0.00    +0.006 C 
ATOM     21  C   UNL     1       1.686   0.979   3.037  0.00  0.00    +0.006 C 
ATOM     22  C   UNL     1       1.907   0.982   1.523  0.00  0.00    +0.054 C 
ENDBRANCH  12  13
ENDBRANCH   1  12
TORSDOF 4
