REMARK  Name = ZINC35606436
REMARK  6 active torsions:
REMARK  status: ('A' for Active; 'I' for Inactive)
REMARK    1  A    between atoms: C_1  and  C_2
REMARK    2  A    between atoms: C_7  and  C_22
REMARK    3  A    between atoms: C_8  and  N_11
REMARK    4  A    between atoms: N_11  and  C_12
REMARK    5  A    between atoms: C_25  and  O_29
REMARK    6  A    between atoms: C_26  and  O_28
REMARK                            x       y       z     vdW  Elec       q    Type
REMARK                         _______ _______ _______ _____ _____    ______ ____
ROOT
ATOM      1  C   UNL     1       3.819  -0.180   0.445  0.00  0.00    +0.045 C 
ATOM      2  C   UNL     1       2.684  -1.161   0.302  0.00  0.00    -0.034 A 
ATOM      3  C   UNL     1       2.371  -1.688  -0.964  0.00  0.00    +0.008 A 
ATOM      4  C   UNL     1       1.347  -2.573  -1.093  0.00  0.00    +0.045 A 
ATOM      5  C   UNL     1       0.612  -2.952   0.050  0.00  0.00    +0.117 A 
ATOM      6  N   UNL     1      -0.411  -3.776   0.210  0.00  0.00    -0.338 N 
ATOM      7  C   UNL     1      -0.763  -3.800   1.508  0.00  0.00    +0.087 A 
ATOM      8  C   UNL     1       0.079  -2.951   2.195  0.00  0.00    +0.133 A 
ATOM      9  N   UNL     1       0.942  -2.420   1.276  0.00  0.00    -0.289 N 
ATOM     10  C   UNL     1       1.978  -1.534   1.388  0.00  0.00    +0.097 A 
ATOM     11  H   UNL     1      -0.840  -4.282  -0.497  0.00  0.00    +0.167 HD
ENDROOT
BRANCH   7  12
ATOM     12  C   UNL     1      -1.864  -4.599   2.097  0.00  0.00    +0.005 A 
ATOM     13  C   UNL     1      -2.743  -4.012   3.007  0.00  0.00    +0.014 A 
ATOM     14  C   UNL     1      -3.768  -4.757   3.555  0.00  0.00    +0.050 A 
ATOM     15  C   UNL     1      -3.926  -6.089   3.203  0.00  0.00    +0.158 A 
ATOM     16  C   UNL     1      -3.051  -6.680   2.295  0.00  0.00    +0.159 A 
ATOM     17  C   UNL     1      -2.026  -5.936   1.739  0.00  0.00    +0.059 A 
BRANCH  16  18
ATOM     18  O   UNL     1      -3.208  -7.986   1.952  0.00  0.00    -0.503 OA
ATOM     19  H   UNL     1      -3.782  -8.126   1.187  0.00  0.00    +0.292 HD
ENDBRANCH  16  18
BRANCH  15  20
ATOM     20  O   UNL     1      -4.937  -6.819   3.745  0.00  0.00    -0.503 OA
ATOM     21  H   UNL     1      -5.759  -6.791   3.236  0.00  0.00    +0.292 HD
ENDBRANCH  15  20
ENDBRANCH   7  12
BRANCH   8  22
ATOM     22  N   UNL     1       0.055  -2.684   3.565  0.00  0.00    -0.299 N 
ATOM     23  H   UNL     1       0.404  -3.336   4.192  0.00  0.00    +0.154 HD
BRANCH  22  24
ATOM     24  C   UNL     1      -0.471  -1.475   4.032  0.00  0.00    +0.036 A 
ATOM     25  C   UNL     1      -1.094  -0.601   3.151  0.00  0.00    +0.027 A 
ATOM     26  C   UNL     1      -1.613   0.593   3.613  0.00  0.00    +0.051 A 
ATOM     27  C   UNL     1      -1.514   0.922   4.957  0.00  0.00    +0.162 A 
ATOM     28  C   UNL     1      -0.894   0.049   5.842  0.00  0.00    +0.164 A 
ATOM     29  C   UNL     1      -0.376  -1.151   5.379  0.00  0.00    +0.072 A 
ATOM     30  O   UNL     1      -0.795   0.351   7.165  0.00  0.00    -0.485 OA
ATOM     31  C   UNL     1      -0.996   1.721   7.529  0.00  0.00    +0.270 C 
ATOM     32  C   UNL     1      -2.247   2.233   6.802  0.00  0.00    +0.270 C 
ATOM     33  O   UNL     1      -2.029   2.106   5.393  0.00  0.00    -0.485 OA
ENDBRANCH  22  24
ENDBRANCH   8  22
TORSDOF 5
