REMARK  Name = ZINC59147816
REMARK  7 active torsions:
REMARK  status: ('A' for Active; 'I' for Inactive)
REMARK    1  A    between atoms: C_1  and  C_2
REMARK    2  A    between atoms: C_2  and  C_3
REMARK    3  A    between atoms: C_2  and  C_4
REMARK    4  A    between atoms: N_11  and  N_12
REMARK    5  A    between atoms: C_13  and  C_15
REMARK    6  A    between atoms: C_15  and  O_16
REMARK    7  A    between atoms: O_16  and  C_17
REMARK                            x       y       z     vdW  Elec       q    Type
REMARK                         _______ _______ _______ _____ _____    ______ ____
ROOT
ATOM      1  C   UNL     1       0.731  -0.503   1.223  0.00  0.00    -0.044 A 
ATOM      2  C   UNL     1       2.052  -0.147   1.433  0.00  0.00    +0.006 A 
ATOM      3  C   UNL     1       2.733  -0.596   2.547  0.00  0.00    +0.024 A 
ATOM      4  C   UNL     1       2.095  -1.416   3.472  0.00  0.00    +0.043 A 
ATOM      5  C   UNL     1       0.758  -1.774   3.255  0.00  0.00    +0.028 A 
ATOM      6  C   UNL     1       0.079  -1.311   2.133  0.00  0.00    +0.016 A 
ATOM      7  C   UNL     1       0.366  -2.636   4.394  0.00  0.00    +0.153 C 
ATOM      8  N   UNL     1      -0.799  -3.200   4.604  0.00  0.00    -0.174 NA
ATOM      9  C   UNL     1       1.573  -2.723   5.240  0.00  0.00    +0.269 C 
ATOM     10  O   UNL     1       1.675  -3.342   6.282  0.00  0.00    -0.268 OA
ATOM     11  N   UNL     1       2.540  -1.996   4.654  0.00  0.00    -0.280 N 
ATOM     12  H   UNL     1       3.436  -1.889   5.012  0.00  0.00    +0.155 HD
ENDROOT
BRANCH   8  13
ATOM     13  N   UNL     1      -0.998  -3.991   5.743  0.00  0.00    -0.203 N 
ATOM     14  C   UNL     1      -2.196  -4.571   5.960  0.00  0.00    +0.270 C 
ATOM     15  O   UNL     1      -3.100  -4.407   5.169  0.00  0.00    -0.270 OA
ATOM     16  H   UNL     1      -0.275  -4.122   6.376  0.00  0.00    +0.177 HD
BRANCH  14  17
ATOM     17  C   UNL     1      -2.410  -5.422   7.185  0.00  0.00    +0.326 C 
BRANCH  17  18
ATOM     18  O   UNL     1      -3.749  -5.920   7.190  0.00  0.00    -0.483 OA
BRANCH  18  19
ATOM     19  C   UNL     1      -4.109  -6.712   8.234  0.00  0.00    +0.121 A 
ATOM     20  C   UNL     1      -3.194  -6.997   9.237  0.00  0.00    +0.045 A 
ATOM     21  C   UNL     1      -3.563  -7.802  10.298  0.00  0.00    +0.004 A 
ATOM     22  C   UNL     1      -4.842  -8.322  10.361  0.00  0.00    +0.000 A 
ATOM     23  C   UNL     1      -5.756  -8.039   9.363  0.00  0.00    +0.004 A 
ATOM     24  C   UNL     1      -5.394  -7.230   8.303  0.00  0.00    +0.045 A 
ENDBRANCH  18  19
ENDBRANCH  17  18
ENDBRANCH  14  17
ENDBRANCH   8  13
BRANCH   1  26
ATOM     25  C   UNL     1      -0.019   1.526   0.010  0.00  0.00    +0.012 C 
ATOM     26  C   UNL     1       0.002  -0.004   0.002  0.00  0.00    +0.013 C 
ATOM     27  C   UNL     1       0.718  -0.497  -1.257  0.00  0.00    +0.012 C 
ENDBRANCH   1  26
TORSDOF 5
