REMARK  Name = ZINC38610068
REMARK  5 active torsions:
REMARK  status: ('A' for Active; 'I' for Inactive)
REMARK    1  A    between atoms: C_1  and  C_2
REMARK    2  A    between atoms: C_4  and  C_24
REMARK    3  A    between atoms: N_8  and  N_9
REMARK    4  A    between atoms: C_10  and  C_11
REMARK    5  A    between atoms: C_16  and  C_17
REMARK                            x       y       z     vdW  Elec       q    Type
REMARK                         _______ _______ _______ _____ _____    ______ ____
ROOT
ATOM      1  N   UNL     1       0.046  -1.962   3.552  0.00  0.00    -0.191 NA
ATOM      2  C   UNL     1       0.060  -2.587   4.669  0.00  0.00    +0.118 C 
ENDROOT
BRANCH   1  10
ATOM      3  C   UNL     1      -0.018   1.503   0.010  0.00  0.00    +0.066 C 
ATOM      4  C   UNL     1       0.002  -0.004   0.002  0.00  0.00    +0.044 A 
ATOM      5  C   UNL     1       0.006  -0.699  -1.198  0.00  0.00    +0.046 A 
ATOM      6  C   UNL     1       0.025  -2.085  -1.161  0.00  0.00    +0.044 A 
ATOM      7  N   UNL     1       0.040  -2.699   0.011  0.00  0.00    -0.218 NA
ATOM      8  C   UNL     1       0.035  -2.005   1.140  0.00  0.00    +0.235 A 
ATOM      9  N   UNL     1       0.022  -0.679   1.139  0.00  0.00    -0.218 NA
ATOM     10  N   UNL     1       0.050  -2.680   2.349  0.00  0.00    -0.205 N 
ATOM     11  C   UNL     1       0.030  -2.882  -2.439  0.00  0.00    +0.066 C 
ATOM     12  H   UNL     1       0.063  -3.650   2.362  0.00  0.00    +0.177 HD
ENDBRANCH   1  10
BRANCH   2  13
ATOM     13  C   UNL     1       0.055  -1.815   5.964  0.00  0.00    +0.125 C 
ATOM     14  C   UNL     1       1.245  -2.200   6.819  0.00  0.00    +0.123 C 
ATOM     15  N   UNL     1       0.758  -2.699   7.908  0.00  0.00    -0.161 NA
ATOM     16  N   UNL     1      -0.633  -2.709   7.914  0.00  0.00    -0.153 NA
ATOM     17  C   UNL     1      -1.136  -2.207   6.816  0.00  0.00    +0.084 C 
BRANCH  17  18
ATOM     18  C   UNL     1      -2.559  -2.056   6.475  0.00  0.00    -0.001 A 
ATOM     19  C   UNL     1      -2.932  -1.501   5.246  0.00  0.00    +0.012 A 
ATOM     20  C   UNL     1      -4.267  -1.363   4.933  0.00  0.00    +0.039 A 
ATOM     21  C   UNL     1      -5.239  -1.770   5.834  0.00  0.00    +0.123 A 
ATOM     22  C   UNL     1      -4.876  -2.320   7.054  0.00  0.00    +0.039 A 
ATOM     23  C   UNL     1      -3.545  -2.470   7.377  0.00  0.00    +0.012 A 
ATOM     24  F   UNL     1      -6.546  -1.631   5.521  0.00  0.00    -0.205 F 
ENDBRANCH  17  18
ENDBRANCH   2  13
TORSDOF 3
