REMARK  Name = ZINC14232626
REMARK  9 active torsions:
REMARK  status: ('A' for Active; 'I' for Inactive)
REMARK    1  A    between atoms: C_1  and  C_2
REMARK    2  A    between atoms: C_2  and  C_4
REMARK    3  A    between atoms: C_2  and  N_19
REMARK    4  A    between atoms: N_6  and  C_7
REMARK    5  A    between atoms: C_7  and  C_8
REMARK    6  A    between atoms: N_19  and  S_20
REMARK    7  A    between atoms: S_20  and  C_23
REMARK    8  A    between atoms: C_26  and  N_29
REMARK    9  A    between atoms: C_30  and  C_32
REMARK                            x       y       z     vdW  Elec       q    Type
REMARK                         _______ _______ _______ _____ _____    ______ ____
ROOT
ATOM      1  C   UNL     1       1.235   3.134   0.889  0.00  0.00    +0.035 C 
ATOM      2  C   UNL     1       1.235   2.186  -0.311  0.00  0.00    +0.159 C 
ENDROOT
BRANCH   2   3
ATOM      3  C   UNL     1      -0.104   1.499  -0.409  0.00  0.00    +0.232 C 
ATOM      4  O   UNL     1      -0.171   0.290  -0.342  0.00  0.00    -0.274 OA
ATOM      5  N   UNL     1      -1.224   2.229  -0.576  0.00  0.00    -0.310 N 
ATOM      6  H   UNL     1      -1.170   3.196  -0.629  0.00  0.00    +0.149 HD
BRANCH   5   7
ATOM      7  C   UNL     1      -2.525   1.562  -0.676  0.00  0.00    +0.152 C 
BRANCH   7   8
ATOM      8  C   UNL     1      -3.623   2.610  -0.861  0.00  0.00    +0.228 C 
ATOM      9  C   UNL     1      -4.998   1.928  -0.842  0.00  0.00    +0.275 C 
ATOM     10  O   UNL     1      -6.000   2.934  -1.029  0.00  0.00    -0.485 OA
ATOM     11  C   UNL     1      -5.782   3.837  -2.024  0.00  0.00    +0.162 A 
ATOM     12  C   UNL     1      -6.840   4.600  -2.495  0.00  0.00    +0.049 A 
ATOM     13  C   UNL     1      -6.634   5.523  -3.502  0.00  0.00    +0.004 A 
ATOM     14  C   UNL     1      -5.373   5.688  -4.044  0.00  0.00    +0.004 A 
ATOM     15  C   UNL     1      -4.314   4.930  -3.581  0.00  0.00    +0.049 A 
ATOM     16  C   UNL     1      -4.515   4.002  -2.570  0.00  0.00    +0.163 A 
ATOM     17  O   UNL     1      -3.463   3.260  -2.126  0.00  0.00    -0.480 OA
ENDBRANCH   7   8
ENDBRANCH   5   7
ENDBRANCH   2   3
BRANCH   2  18
ATOM     18  N   UNL     1       2.287   1.181  -0.140  0.00  0.00    -0.178 NA
ATOM     19  H   UNL     1       2.112   0.379   0.376  0.00  0.00    +0.149 HD
BRANCH  18  20
ATOM     20  S   UNL     1       3.775   1.415  -0.828  0.00  0.00    +0.059 S 
ATOM     21  O   UNL     1       4.572   0.296  -0.464  0.00  0.00    -0.153 OA
ATOM     22  O   UNL     1       3.544   1.778  -2.183  0.00  0.00    -0.153 OA
BRANCH  20  23
ATOM     23  C   UNL     1       4.495   2.821  -0.047  0.00  0.00    +0.105 A 
ATOM     24  C   UNL     1       4.287   4.084  -0.571  0.00  0.00    +0.030 A 
ATOM     25  C   UNL     1       4.846   5.188   0.042  0.00  0.00    +0.025 A 
ATOM     26  C   UNL     1       5.625   5.029   1.180  0.00  0.00    +0.033 A 
ATOM     27  C   UNL     1       5.837   3.759   1.701  0.00  0.00    +0.025 A 
ATOM     28  C   UNL     1       5.271   2.659   1.086  0.00  0.00    +0.030 A 
BRANCH  26  29
ATOM     29  N   UNL     1       6.196   6.145   1.801  0.00  0.00    -0.286 N 
ATOM     30  C   UNL     1       7.395   6.039   2.407  0.00  0.00    +0.214 C 
ATOM     31  O   UNL     1       8.023   5.004   2.333  0.00  0.00    -0.276 OA
ATOM     32  C   UNL     1       7.956   7.207   3.177  0.00  0.00    +0.109 C 
ATOM     33  H   UNL     1       5.729   6.995   1.795  0.00  0.00    +0.155 HD
ENDBRANCH  26  29
ENDBRANCH  20  23
ENDBRANCH  18  20
ENDBRANCH   2  18
TORSDOF 7
