REMARK  Name = ZINC05732021
REMARK  4 active torsions:
REMARK  status: ('A' for Active; 'I' for Inactive)
REMARK    1  A    between atoms: C_1  and  C_2
REMARK    2  A    between atoms: C_2  and  C_3
REMARK    3  A    between atoms: C_3  and  C_9
REMARK    4  A    between atoms: N_4  and  N_5
REMARK                            x       y       z     vdW  Elec       q    Type
REMARK                         _______ _______ _______ _____ _____    ______ ____
ROOT
ATOM      1  C   UNL     1      -2.143   1.058   1.278  0.00  0.00    +0.047 C 
ATOM      2  N   UNL     1      -2.406  -0.068   1.828  0.00  0.00    -0.187 NA
ENDROOT
BRANCH   2   3
ATOM      3  N   UNL     1      -1.379  -0.814   2.421  0.00  0.00    -0.191 N 
ATOM      4  C   UNL     1      -1.656  -1.999   3.001  0.00  0.00    +0.317 C 
ATOM      5  O   UNL     1      -0.765  -2.647   3.516  0.00  0.00    -0.251 OA
ATOM      6  N   UNL     1      -2.920  -2.465   3.011  0.00  0.00    -0.312 N 
ATOM      7  H   UNL     1      -0.469  -0.478   2.414  0.00  0.00    +0.179 HD
ATOM      8  H   UNL     1      -3.631  -1.948   2.600  0.00  0.00    +0.147 HD
ATOM      9  H   UNL     1      -3.119  -3.318   3.428  0.00  0.00    +0.147 HD
ENDBRANCH   2   3
BRANCH   1  10
ATOM     10  C   UNL     1      -3.247   1.861   0.640  0.00  0.00    +0.086 C 
ATOM     11  C   UNL     1      -3.420   3.154   1.388  0.00  0.00    +0.025 C 
ATOM     12  C   UNL     1      -4.424   3.330   2.214  0.00  0.00    +0.191 C 
ATOM     13  O   UNL     1      -5.343   2.364   2.429  0.00  0.00    -0.472 OA
ATOM     14  C   UNL     1      -5.473   1.354   1.541  0.00  0.00    +0.191 C 
ATOM     15  C   UNL     1      -4.526   1.069   0.678  0.00  0.00    +0.025 C 
ENDBRANCH   1  10
BRANCH   1  17
ATOM     16  C   UNL     1      -0.013   1.086   0.008  0.00  0.00    +0.010 C 
ATOM     17  C   UNL     1      -0.729   1.579   1.267  0.00  0.00    +0.050 C 
ENDBRANCH   1  17
TORSDOF 3
