REMARK  Name = ZINC28048923
REMARK  5 active torsions:
REMARK  status: ('A' for Active; 'I' for Inactive)
REMARK    1  A    between atoms: C_8  and  N_12
REMARK    2  A    between atoms: C_9  and  O_10
REMARK    3  A    between atoms: N_15  and  C_16
REMARK    4  A    between atoms: C_16  and  C_17
REMARK    5  A    between atoms: N_22  and  C_23
REMARK                            x       y       z     vdW  Elec       q    Type
REMARK                         _______ _______ _______ _____ _____    ______ ____
ROOT
ATOM      1  C   UNL     1      -0.928   2.650  -1.243  0.00  0.00    +0.001 A 
ATOM      2  C   UNL     1      -0.866   1.364  -0.726  0.00  0.00    +0.004 A 
ATOM      3  C   UNL     1       0.295   0.894  -0.148  0.00  0.00    +0.047 A 
ATOM      4  C   UNL     1       1.420   1.707  -0.090  0.00  0.00    +0.141 A 
ATOM      5  C   UNL     1       1.359   3.006  -0.619  0.00  0.00    +0.042 A 
ATOM      6  C   UNL     1       0.176   3.472  -1.196  0.00  0.00    +0.013 A 
ATOM      7  C   UNL     1       2.557   3.860  -0.553  0.00  0.00    +0.075 A 
ATOM      8  C   UNL     1       3.694   3.333   0.034  0.00  0.00    +0.140 A 
ATOM      9  C   UNL     1       3.667   2.021   0.539  0.00  0.00    +0.309 A 
ATOM     10  O   UNL     1       2.565   1.258   0.468  0.00  0.00    -0.424 OA
ATOM     11  N   UNL     1       2.546   5.145  -1.060  0.00  0.00    -0.380 N 
ATOM     12  H   UNL     1       2.403   6.002  -0.385  0.00  0.00    +0.160 HD
ENDROOT
BRANCH   8  13
ATOM     13  N   UNL     1       4.867   4.104   0.123  0.00  0.00    -0.262 N 
ATOM     14  C   UNL     1       6.072   3.516  -0.016  0.00  0.00    +0.304 C 
ATOM     15  O   UNL     1       6.144   2.330  -0.276  0.00  0.00    -0.252 OA
ATOM     16  N   UNL     1       7.198   4.243   0.132  0.00  0.00    -0.292 N 
ATOM     17  H   UNL     1       4.801   5.186   0.308  0.00  0.00    +0.157 HD
ATOM     18  H   UNL     1       7.133   5.315   0.367  0.00  0.00    +0.151 HD
BRANCH  16  19
ATOM     19  C   UNL     1       8.507   3.604  -0.021  0.00  0.00    +0.180 C 
BRANCH  19  20
ATOM     20  C   UNL     1       9.593   4.627   0.193  0.00  0.00    +0.122 A 
ATOM     21  C   UNL     1      10.170   4.928   1.370  0.00  0.00    +0.046 A 
ATOM     22  C   UNL     1      11.129   5.934   1.111  0.00  0.00    +0.041 A 
ATOM     23  C   UNL     1      11.081   6.187  -0.209  0.00  0.00    +0.195 A 
ATOM     24  O   UNL     1      10.153   5.388  -0.761  0.00  0.00    -0.466 OA
ENDBRANCH  19  20
ENDBRANCH  16  19
ENDBRANCH   8  13
BRANCH  11  25
ATOM     25  C   UNL     1       2.740   5.138  -2.516  0.00  0.00    +0.079 C 
ATOM     26  C   UNL     1       4.247   5.175  -2.848  0.00  0.00    +0.024 C 
ATOM     27  C   UNL     1       4.335   6.074  -4.107  0.00  0.00    +0.002 C 
ATOM     28  C   UNL     1       3.272   7.165  -3.825  0.00  0.00    +0.002 C 
ATOM     29  C   UNL     1       2.121   6.402  -3.137  0.00  0.00    +0.024 C 
ENDBRANCH  11  25
BRANCH   9  30
ATOM     30  O   UNL     1       4.673   1.563   1.054  0.00  0.00    -0.479 OA
ATOM     31  H   UNL     1       4.668   0.538   1.454  0.00  0.00    +0.295 HD
ENDBRANCH   9  30
TORSDOF 5
