REMARK  Name = ZINC65423536
REMARK  5 active torsions:
REMARK  status: ('A' for Active; 'I' for Inactive)
REMARK    1  A    between atoms: C_4  and  C_7
REMARK    2  A    between atoms: C_7  and  C_8
REMARK    3  A    between atoms: C_8  and  C_9
REMARK    4  A    between atoms: C_12  and  C_22
REMARK    5  A    between atoms: C_27  and  C_28
REMARK                            x       y       z     vdW  Elec       q    Type
REMARK                         _______ _______ _______ _____ _____    ______ ____
ROOT
ATOM      1  C   UNL     1       5.686  -1.788   1.397  0.00  0.00    +0.019 C 
ATOM      2  N   UNL     1       6.069  -2.080   2.806  0.00  0.00    +0.406 N 
ATOM      3  C   UNL     1       7.550  -2.122   2.735  0.00  0.00    +0.069 C 
ATOM      4  N   UNL     1       7.924  -1.370   1.526  0.00  0.00    -0.262 N 
ATOM      5  N   UNL     1       6.774  -0.886   0.944  0.00  0.00    -0.254 NA
ATOM      6  C   UNL     1       9.216  -1.183   1.050  0.00  0.00    +0.134 A 
ATOM      7  C   UNL     1       9.435  -0.347  -0.040  0.00  0.00    +0.045 A 
ATOM      8  C   UNL     1      10.727  -0.170  -0.502  0.00  0.00    +0.005 A 
ATOM      9  C   UNL     1      11.759  -0.838   0.142  0.00  0.00    +0.020 A 
ATOM     10  C   UNL     1      11.470  -1.652   1.218  0.00  0.00    +0.113 A 
ATOM     11  N   UNL     1      10.229  -1.799   1.642  0.00  0.00    -0.239 NA
ATOM     12  H   UNL     1       5.761  -1.342   3.421  0.00  0.00    -0.080 HD
ATOM     13  H   UNL     1       6.848  -0.884  -0.062  0.00  0.00    +0.142 HD
ATOM     14  H   UNL     1       5.699  -2.971   3.100  0.00  0.00    -0.080 HD
ENDROOT
BRANCH   3  15
ATOM     15  C   UNL     1       8.147  -1.472   3.957  0.00  0.00    -0.032 A 
ATOM     16  C   UNL     1       8.530  -0.146   3.917  0.00  0.00    +0.004 A 
ATOM     17  C   UNL     1       9.077   0.452   5.037  0.00  0.00    +0.000 A 
ATOM     18  C   UNL     1       9.244  -0.273   6.203  0.00  0.00    +0.001 A 
ATOM     19  C   UNL     1       8.864  -1.599   6.254  0.00  0.00    +0.012 A 
ATOM     20  C   UNL     1       8.307  -2.205   5.130  0.00  0.00    +0.024 A 
BRANCH  20  21
ATOM     21  C   UNL     1       7.892  -3.630   5.180  0.00  0.00    +0.181 A 
ATOM     22  H   UNL     1       6.824  -6.373   4.149  0.00  0.00    +0.190 HD
ATOM     23  N   UNL     1       7.915  -4.411   6.268  0.00  0.00    -0.215 NA
ATOM     24  C   UNL     1       7.483  -5.606   5.963  0.00  0.00    +0.216 A 
ATOM     25  N   UNL     1       7.170  -5.621   4.654  0.00  0.00    -0.265 N 
ATOM     26  N   UNL     1       7.436  -4.331   4.166  0.00  0.00    -0.152 NA
ENDBRANCH  20  21
ENDBRANCH   3  15
BRANCH   1  27
ATOM     27  C   UNL     1       4.332  -1.078   1.338  0.00  0.00    +0.005 C 
BRANCH  27  28
ATOM     28  C   UNL     1       3.941  -0.846  -0.123  0.00  0.00    +0.035 C 
BRANCH  28  32
ATOM     29  C   UNL     1       0.160   1.137  -0.289  0.00  0.00    +0.000 A 
ATOM     30  C   UNL     1       1.327   1.876  -0.241  0.00  0.00    +0.000 A 
ATOM     31  C   UNL     1       2.550   1.235  -0.187  0.00  0.00    +0.003 A 
ATOM     32  C   UNL     1       2.607  -0.146  -0.181  0.00  0.00    -0.047 A 
ATOM     33  C   UNL     1       1.440  -0.886  -0.228  0.00  0.00    +0.003 A 
ATOM     34  C   UNL     1       0.217  -0.245  -0.284  0.00  0.00    +0.000 A 
ENDBRANCH  28  32
ENDBRANCH  27  28
ENDBRANCH   1  27
TORSDOF 5
