REMARK  Name = ZINC39710288
REMARK  9 active torsions:
REMARK  status: ('A' for Active; 'I' for Inactive)
REMARK    1  A    between atoms: C_1  and  C_2
REMARK    2  A    between atoms: C_9  and  C_14
REMARK    3  A    between atoms: C_14  and  C_16
REMARK    4  A    between atoms: C_14  and  N_27
REMARK    5  A    between atoms: N_21  and  C_22
REMARK    6  A    between atoms: N_27  and  C_28
REMARK    7  A    between atoms: N_27  and  C_36
REMARK    8  A    between atoms: C_28  and  C_29
REMARK    9  A    between atoms: C_36  and  C_37
REMARK                            x       y       z     vdW  Elec       q    Type
REMARK                         _______ _______ _______ _____ _____    ______ ____
ROOT
ATOM      1  C   UNL     1      -0.836  -5.323   3.332  0.00  0.00    -0.008 C 
ENDROOT
BRANCH   1  10
ATOM      2  C   UNL     1       4.084  -4.379   8.422  0.00  0.00    +0.044 C 
ATOM      3  C   UNL     1       3.145  -3.889   7.350  0.00  0.00    -0.050 A 
ATOM      4  C   UNL     1       2.711  -2.564   7.376  0.00  0.00    +0.005 A 
ATOM      5  C   UNL     1       1.865  -2.051   6.445  0.00  0.00    +0.024 A 
ATOM      6  C   UNL     1       1.386  -2.856   5.395  0.00  0.00    +0.040 A 
ATOM      7  N   UNL     1       0.557  -2.341   4.487  0.00  0.00    -0.285 N 
ATOM      8  C   UNL     1       0.069  -3.041   3.476  0.00  0.00    +0.223 C 
ATOM      9  O   UNL     1      -0.684  -2.517   2.677  0.00  0.00    -0.275 OA
ATOM     10  C   UNL     1       0.451  -4.496   3.317  0.00  0.00    +0.088 C 
ATOM     11  C   UNL     1       1.394  -5.085   4.348  0.00  0.00    -0.006 C 
ATOM     12  C   UNL     1       1.828  -4.260   5.343  0.00  0.00    -0.007 A 
ATOM     13  C   UNL     1       2.743  -4.746   6.376  0.00  0.00    +0.012 A 
ATOM     14  H   UNL     1       0.300  -1.410   4.570  0.00  0.00    +0.155 HD
ENDBRANCH   1  10
BRANCH   1  15
ATOM     15  C   UNL     1      -1.484  -5.234   4.714  0.00  0.00    +0.205 C 
ATOM     16  N   UNL     1      -2.821  -5.843   4.694  0.00  0.00    -0.152 NA
ATOM     17  N   UNL     1      -3.655  -4.983   4.983  0.00  0.00    -0.070 NA
ATOM     18  N   UNL     1      -3.085  -3.735   5.232  0.00  0.00    -0.179 N 
ATOM     19  N   UNL     1      -1.723  -3.822   5.082  0.00  0.00    -0.185 NA
ATOM     20  H   UNL     1      -3.572  -2.932   5.473  0.00  0.00    +0.191 HD
BRANCH  19  21
ATOM     21  C   UNL     1      -1.030  -3.480   6.332  0.00  0.00    +0.080 C 
ATOM     22  C   UNL     1      -1.706  -4.191   7.522  0.00  0.00    +0.021 C 
ATOM     23  C   UNL     1      -1.632  -3.158   8.674  0.00  0.00    +0.002 C 
ATOM     24  C   UNL     1      -1.885  -1.815   7.944  0.00  0.00    +0.002 C 
ATOM     25  C   UNL     1      -1.144  -1.969   6.600  0.00  0.00    +0.021 C 
ENDBRANCH  19  21
ENDBRANCH   1  15
BRANCH   1  26
ATOM     26  N   UNL     1      -0.519  -6.726   3.029  0.00  0.00    +0.392 N 
ATOM     27  H   UNL     1       0.260  -7.025   3.596  0.00  0.00    -0.080 HD
BRANCH  26  28
ATOM     28  C   UNL     1      -0.168  -6.852   1.608  0.00  0.00    -0.040 C 
BRANCH  28  29
ATOM     29  C   UNL     1      -1.379  -6.556   0.762  0.00  0.00    -0.046 A 
ATOM     30  C   UNL     1      -2.279  -7.562   0.466  0.00  0.00    +0.003 A 
ATOM     31  C   UNL     1      -3.390  -7.290  -0.310  0.00  0.00    +0.000 A 
ATOM     32  C   UNL     1      -3.602  -6.011  -0.790  0.00  0.00    +0.001 A 
ATOM     33  C   UNL     1      -2.704  -5.004  -0.494  0.00  0.00    +0.020 A 
ATOM     34  C   UNL     1      -1.594  -5.274   0.287  0.00  0.00    +0.042 A 
ATOM     35 CL   UNL     1      -0.468  -4.008   0.665  0.00  0.00    -0.083 Cl
ENDBRANCH  28  29
ENDBRANCH  26  28
BRANCH  26  36
ATOM     36  C   UNL     1      -1.689  -7.565   3.321  0.00  0.00    -0.002 C 
BRANCH  36  37
ATOM     37  C   UNL     1      -1.302  -9.018   3.217  0.00  0.00    +0.089 A 
ATOM     38  C   UNL     1      -0.934  -9.809   4.241  0.00  0.00    +0.042 A 
ATOM     39  C   UNL     1      -0.661 -11.085   3.695  0.00  0.00    +0.041 A 
ATOM     40  C   UNL     1      -0.878 -10.997   2.371  0.00  0.00    +0.195 A 
ATOM     41  O   UNL     1      -1.272  -9.744   2.088  0.00  0.00    -0.470 OA
ENDBRANCH  36  37
ENDBRANCH  26  36
ENDBRANCH   1  26
TORSDOF 8
