REMARK  Name = ZINC36385662
REMARK  8 active torsions:
REMARK  status: ('A' for Active; 'I' for Inactive)
REMARK    1  A    between atoms: C_1  and  C_2
REMARK    2  A    between atoms: C_6  and  C_8
REMARK    3  A    between atoms: C_11  and  C_14
REMARK    4  A    between atoms: C_14  and  N_15
REMARK    5  A    between atoms: N_18  and  C_25
REMARK    6  A    between atoms: C_19  and  C_22
REMARK    7  A    between atoms: C_22  and  C_23
REMARK    8  A    between atoms: C_23  and  O_24
REMARK                            x       y       z     vdW  Elec       q    Type
REMARK                         _______ _______ _______ _____ _____    ______ ____
ROOT
ATOM      1  N   UNL     1      -1.334  -4.945   6.520  0.00  0.00    -0.301 NA
ATOM      2  C   UNL     1      -2.082  -3.778   7.007  0.00  0.00    +0.066 C 
ATOM      3  C   UNL     1      -3.523  -4.192   7.316  0.00  0.00    -0.062 C 
ATOM      4  N   UNL     1      -3.521  -5.252   8.332  0.00  0.00    +0.385 N 
ATOM      5  C   UNL     1      -2.791  -6.420   7.822  0.00  0.00    -0.052 C 
ATOM      6  C   UNL     1      -1.344  -6.025   7.517  0.00  0.00    +0.069 C 
ATOM      7  H   UNL     1      -3.071  -4.914   9.170  0.00  0.00    -0.081 HD
ENDROOT
BRANCH   4   8
ATOM      8  C   UNL     1      -4.904  -5.637   8.642  0.00  0.00    -0.068 C 
ATOM      9  C   UNL     1      -5.610  -6.143   7.366  0.00  0.00    -0.015 C 
ATOM     10  C   UNL     1      -7.060  -5.614   7.499  0.00  0.00    -0.002 C 
ATOM     11  C   UNL     1      -6.856  -4.212   8.126  0.00  0.00    -0.002 C 
ATOM     12  C   UNL     1      -5.697  -4.409   9.125  0.00  0.00    -0.015 C 
ENDBRANCH   4   8
BRANCH   1  13
ATOM     13  C   UNL     1       0.041  -4.576   6.158  0.00  0.00    +0.122 C 
BRANCH  13  17
ATOM     14  C   UNL     1      -0.027  -2.008   2.856  0.00  0.00    +0.160 A 
ATOM     15  N   UNL     1      -0.075  -1.493   4.077  0.00  0.00    -0.235 NA
ATOM     16  C   UNL     1      -0.056  -2.277   5.141  0.00  0.00    +0.119 A 
ATOM     17  C   UNL     1       0.016  -3.651   4.969  0.00  0.00    +0.003 A 
ATOM     18  C   UNL     1       0.065  -4.155   3.678  0.00  0.00    +0.119 A 
ATOM     19  N   UNL     1       0.036  -3.317   2.656  0.00  0.00    -0.235 NA
BRANCH  14  25
ATOM     20  C   UNL     1      -0.214   2.616   0.982  0.00  0.00    +0.044 C 
ATOM     21  C   UNL     1      -0.141   1.125   0.780  0.00  0.00    -0.050 A 
ATOM     22  C   UNL     1      -0.097   0.602  -0.500  0.00  0.00    +0.003 A 
ATOM     23  C   UNL     1      -0.030  -0.766  -0.693  0.00  0.00    +0.001 A 
ATOM     24  C   UNL     1      -0.007  -1.618   0.393  0.00  0.00    +0.011 A 
ATOM     25  C   UNL     1      -0.051  -1.097   1.685  0.00  0.00    +0.019 A 
ATOM     26  C   UNL     1      -0.113   0.283   1.873  0.00  0.00    +0.015 A 
ENDBRANCH  14  25
ENDBRANCH  13  17
ENDBRANCH   1  13
BRANCH   5  27
ATOM     27  C   UNL     1      -2.805  -7.531   8.874  0.00  0.00    +0.014 C 
BRANCH  27  28
ATOM     28  C   UNL     1      -2.121  -8.777   8.310  0.00  0.00    +0.154 C 
BRANCH  28  29
ATOM     29  O   UNL     1      -2.235  -9.849   9.248  0.00  0.00    -0.395 OA
ATOM     30  H   UNL     1      -1.822 -10.673   8.956  0.00  0.00    +0.209 HD
ENDBRANCH  28  29
ENDBRANCH  27  28
ENDBRANCH   5  27
TORSDOF 7
