REMARK  Name = ZINC35426996
REMARK  7 active torsions:
REMARK  status: ('A' for Active; 'I' for Inactive)
REMARK    1  A    between atoms: C_1  and  C_2
REMARK    2  A    between atoms: C_2  and  C_3
REMARK    3  A    between atoms: C_2  and  N_4
REMARK    4  A    between atoms: C_19  and  C_21
REMARK    5  A    between atoms: C_24  and  O_27
REMARK    6  A    between atoms: O_27  and  C_28
REMARK    7  A    between atoms: N_30  and  C_33
REMARK                            x       y       z     vdW  Elec       q    Type
REMARK                         _______ _______ _______ _____ _____    ______ ____
ROOT
ATOM      1  N   UNL     1       1.244  -0.188  -0.271  0.00  0.00    -0.297 N 
ATOM      2  C   UNL     1       2.514  -0.380  -0.682  0.00  0.00    +0.303 C 
ATOM      3  O   UNL     1       3.441  -0.057   0.036  0.00  0.00    -0.253 OA
ATOM      4  N   UNL     1       2.756  -0.929  -1.889  0.00  0.00    -0.269 N 
ATOM      5  C   UNL     1       1.660  -1.327  -2.790  0.00  0.00    +0.148 C 
ATOM      6  C   UNL     1       1.935  -2.631  -3.506  0.00  0.00    +0.004 A 
ATOM      7  C   UNL     1       1.231  -3.820  -3.237  0.00  0.00    -0.034 A 
ATOM      8  C   UNL     1       1.556  -4.927  -3.958  0.00  0.00    -0.021 A 
ATOM      9  S   UNL     1       2.848  -4.366  -5.035  0.00  0.00    -0.077 S 
ATOM     10  C   UNL     1       2.902  -2.696  -4.461  0.00  0.00    +0.090 A 
ATOM     11  N   UNL     1       3.718  -1.629  -4.816  0.00  0.00    -0.312 N 
ATOM     12  C   UNL     1       4.089  -1.148  -6.026  0.00  0.00    +0.092 A 
ATOM     13  C   UNL     1       4.840  -0.042  -5.823  0.00  0.00    +0.020 A 
ATOM     14  C   UNL     1       4.949   0.150  -4.429  0.00  0.00    +0.025 A 
ATOM     15  C   UNL     1       4.276  -0.846  -3.833  0.00  0.00    +0.049 A 
ATOM     16  C   UNL     1       4.138  -1.157  -2.376  0.00  0.00    +0.155 C 
ATOM     17  C   UNL     1       0.948  -6.285  -3.839  0.00  0.00    -0.036 C 
ATOM     18  N   UNL     1       0.196  -6.346  -2.571  0.00  0.00    +0.381 N 
ATOM     19  C   UNL     1      -0.689  -5.178  -2.471  0.00  0.00    -0.074 C 
ATOM     20  C   UNL     1       0.128  -3.914  -2.186  0.00  0.00    +0.018 C 
ATOM     21  C   UNL     1      -0.609  -7.574  -2.537  0.00  0.00    -0.096 C 
ATOM     22  H   UNL     1       0.505  -0.445  -0.844  0.00  0.00    +0.150 HD
ATOM     23  H   UNL     1       0.843  -6.345  -1.796  0.00  0.00    -0.082 HD
ENDROOT
BRANCH  16  24
ATOM     24  C   UNL     1       4.507  -2.600  -2.149  0.00  0.00    -0.021 A 
ATOM     25  C   UNL     1       5.530  -3.174  -2.881  0.00  0.00    +0.009 A 
ATOM     26  C   UNL     1       5.870  -4.497  -2.676  0.00  0.00    +0.046 A 
ATOM     27  C   UNL     1       5.184  -5.250  -1.733  0.00  0.00    +0.120 A 
ATOM     28  C   UNL     1       4.159  -4.671  -1.000  0.00  0.00    +0.046 A 
ATOM     29  C   UNL     1       3.826  -3.346  -1.205  0.00  0.00    +0.009 A 
BRANCH  27  30
ATOM     30  O   UNL     1       5.517  -6.551  -1.529  0.00  0.00    -0.495 OA
ATOM     31  C   UNL     1       4.768  -7.265  -0.543  0.00  0.00    +0.277 C 
ENDBRANCH  27  30
ENDBRANCH  16  24
BRANCH   1  33
ATOM     32  C   UNL     1       1.019   1.935   0.923  0.00  0.00    +0.027 C 
ATOM     33  C   UNL     1       0.982   0.410   1.040  0.00  0.00    +0.068 C 
ATOM     34  C   UNL     1      -0.399  -0.030   1.534  0.00  0.00    +0.027 C 
ENDBRANCH   1  33
TORSDOF 3
