REMARK  Name = ZINC60063940
REMARK  7 active torsions:
REMARK  status: ('A' for Active; 'I' for Inactive)
REMARK    1  A    between atoms: C_4  and  O_25
REMARK    2  A    between atoms: C_5  and  C_7
REMARK    3  A    between atoms: C_7  and  N_8
REMARK    4  A    between atoms: N_8  and  C_9
REMARK    5  A    between atoms: C_9  and  C_10
REMARK    6  A    between atoms: N_17  and  C_18
REMARK    7  A    between atoms: C_18  and  C_19
REMARK                            x       y       z     vdW  Elec       q    Type
REMARK                         _______ _______ _______ _____ _____    ______ ____
ROOT
ATOM      1  N   UNL     1       1.369  -2.683   1.352  0.00  0.00    -0.274 N 
ATOM      2  C   UNL     1       2.592  -2.798   1.905  0.00  0.00    +0.303 C 
ATOM      3  O   UNL     1       3.585  -2.579   1.237  0.00  0.00    -0.253 OA
ATOM      4  N   UNL     1       2.716  -3.156   3.199  0.00  0.00    -0.297 N 
ATOM      5  H   UNL     1       1.925  -3.330   3.731  0.00  0.00    +0.150 HD
ENDROOT
BRANCH   1   6
ATOM      6  C   UNL     1       1.229  -2.189  -0.020  0.00  0.00    +0.148 C 
BRANCH   6  11
ATOM      7  C   UNL     1       2.273   1.429  -0.302  0.00  0.00    +0.001 A 
ATOM      8  C   UNL     1       1.097   2.084   0.010  0.00  0.00    +0.004 A 
ATOM      9  C   UNL     1      -0.039   1.360   0.314  0.00  0.00    +0.046 A 
ATOM     10  C   UNL     1       0.001  -0.027   0.305  0.00  0.00    +0.122 A 
ATOM     11  C   UNL     1       1.182  -0.682  -0.010  0.00  0.00    +0.011 A 
ATOM     12  C   UNL     1       2.316   0.047  -0.312  0.00  0.00    +0.009 A 
BRANCH  10  13
ATOM     13  O   UNL     1      -1.116  -0.742   0.603  0.00  0.00    -0.506 OA
ATOM     14  H   UNL     1      -1.705  -0.884  -0.150  0.00  0.00    +0.292 HD
ENDBRANCH  10  13
ENDBRANCH   6  11
ENDBRANCH   1   6
BRANCH   1  15
ATOM     15  C   UNL     1       0.179  -3.051   2.123  0.00  0.00    +0.183 C 
BRANCH  15  16
ATOM     16  C   UNL     1      -0.134  -4.508   1.898  0.00  0.00    +0.122 A 
ATOM     17  C   UNL     1       0.330  -5.534   2.633  0.00  0.00    +0.046 A 
ATOM     18  C   UNL     1      -0.211  -6.715   2.075  0.00  0.00    +0.041 A 
ATOM     19  C   UNL     1      -0.974  -6.340   1.033  0.00  0.00    +0.195 A 
ATOM     20  O   UNL     1      -0.928  -5.001   0.934  0.00  0.00    -0.466 OA
ENDBRANCH  15  16
ENDBRANCH   1  15
BRANCH   4  21
ATOM     21  C   UNL     1       4.046  -3.282   3.800  0.00  0.00    +0.137 C 
BRANCH  21  22
ATOM     22  C   UNL     1       3.906  -3.696   5.266  0.00  0.00    +0.135 C 
ATOM     23  C   UNL     1       5.294  -3.714   5.940  0.00  0.00    +0.035 C 
ATOM     24  C   UNL     1       5.204  -4.970   6.849  0.00  0.00    +0.031 C 
ATOM     25  C   UNL     1       4.314  -5.897   5.981  0.00  0.00    +0.160 C 
ATOM     26  O   UNL     1       3.367  -5.021   5.347  0.00  0.00    -0.375 OA
ENDBRANCH  21  22
ENDBRANCH   4  21
TORSDOF 7
