REMARK  Name = ZINC56326639
REMARK  9 active torsions:
REMARK  status: ('A' for Active; 'I' for Inactive)
REMARK    1  A    between atoms: C_1  and  C_2
REMARK    2  A    between atoms: C_2  and  C_3
REMARK    3  A    between atoms: C_2  and  C_4
REMARK    4  A    between atoms: C_4  and  C_6
REMARK    5  A    between atoms: C_4  and  N_13
REMARK    6  A    between atoms: C_14  and  C_16
REMARK    7  A    between atoms: C_16  and  N_17
REMARK    8  A    between atoms: N_17  and  C_18
REMARK    9  A    between atoms: N_17  and  C_19
REMARK                            x       y       z     vdW  Elec       q    Type
REMARK                         _______ _______ _______ _____ _____    ______ ____
ROOT
ATOM      1  N   UNL     1      -2.105  -0.148  -1.230  0.00  0.00    -0.307 N 
ATOM      2  C   UNL     1      -1.970  -0.910  -2.334  0.00  0.00    +0.231 C 
ATOM      3  O   UNL     1      -1.291  -1.915  -2.297  0.00  0.00    -0.274 OA
ATOM      4  H   UNL     1      -2.648   0.655  -1.260  0.00  0.00    +0.149 HD
ENDROOT
BRANCH   1   5
ATOM      5  C   UNL     1      -1.433  -0.534   0.013  0.00  0.00    +0.106 C 
BRANCH   5   6
ATOM      6  C   UNL     1      -2.175   0.051   1.187  0.00  0.00    -0.027 A 
ATOM      7  C   UNL     1      -2.691   1.331   1.111  0.00  0.00    +0.008 A 
ATOM      8  C   UNL     1      -3.372   1.868   2.186  0.00  0.00    +0.038 A 
ATOM      9  C   UNL     1      -3.538   1.123   3.341  0.00  0.00    +0.123 A 
ATOM     10  C   UNL     1      -3.022  -0.160   3.417  0.00  0.00    +0.038 A 
ATOM     11  C   UNL     1      -2.346  -0.696   2.338  0.00  0.00    +0.008 A 
ATOM     12  F   UNL     1      -4.204   1.647   4.394  0.00  0.00    -0.205 F 
ENDBRANCH   5   6
BRANCH   5  14
ATOM     13  C   UNL     1      -0.019   1.526   0.010  0.00  0.00    +0.009 C 
ATOM     14  C   UNL     1       0.002  -0.004   0.002  0.00  0.00    +0.008 C 
ATOM     15  C   UNL     1       0.742  -0.511   1.242  0.00  0.00    +0.009 C 
ENDBRANCH   5  14
ENDBRANCH   1   5
BRANCH   2  16
ATOM     16  C   UNL     1      -2.661  -0.514  -3.613  0.00  0.00    +0.201 C 
BRANCH  16  17
ATOM     17  N   UNL     1      -2.359  -1.497  -4.656  0.00  0.00    -0.308 N 
ATOM     18  C   UNL     1      -3.226  -2.664  -4.837  0.00  0.00    +0.131 C 
BRANCH  17  19
ATOM     19  C   UNL     1      -1.254  -1.323  -5.471  0.00  0.00    +0.152 A 
ATOM     20  C   UNL     1      -0.949  -2.256  -6.477  0.00  0.00    +0.147 A 
ATOM     21  C   UNL     1       0.185  -2.025  -7.274  0.00  0.00    +0.163 A 
ATOM     22  N   UNL     1       0.245  -3.072  -8.158  0.00  0.00    -0.329 N 
ATOM     23  C   UNL     1      -0.813  -3.890  -7.896  0.00  0.00    +0.198 A 
ATOM     24  N   UNL     1      -1.512  -3.410  -6.909  0.00  0.00    -0.231 NA
ATOM     25  H   UNL     1       0.917  -3.205  -8.845  0.00  0.00    +0.168 HD
ATOM     26  N   UNL     1       0.923  -0.943  -7.049  0.00  0.00    -0.216 NA
ATOM     27  C   UNL     1       0.599  -0.096  -6.095  0.00  0.00    +0.225 A 
ATOM     28  N   UNL     1      -0.460  -0.268  -5.325  0.00  0.00    -0.218 NA
ENDBRANCH  17  19
ENDBRANCH  16  17
ENDBRANCH   2  16
TORSDOF 6
