REMARK  Name = ZINC02282143
REMARK  8 active torsions:
REMARK  status: ('A' for Active; 'I' for Inactive)
REMARK    1  A    between atoms: C_1  and  C_2
REMARK    2  A    between atoms: C_2  and  O_3
REMARK    3  A    between atoms: O_3  and  C_4
REMARK    4  A    between atoms: C_4  and  C_6
REMARK    5  A    between atoms: C_7  and  C_23
REMARK    6  A    between atoms: N_8  and  C_22
REMARK    7  A    between atoms: C_12  and  C_14
REMARK    8  A    between atoms: C_19  and  O_20
REMARK                            x       y       z     vdW  Elec       q    Type
REMARK                         _______ _______ _______ _____ _____    ______ ____
ROOT
ATOM      1  C   UNL     1       3.982  -1.141   1.287  0.00  0.00    +0.078 C 
ATOM      2  C   UNL     1       5.059  -0.666   1.949  0.00  0.00    +0.024 C 
ATOM      3  N   UNL     1       5.962   0.150   1.331  0.00  0.00    -0.262 N 
ATOM      4  C   UNL     1       5.861   0.536   0.052  0.00  0.00    +0.307 C 
ATOM      5  O   UNL     1       6.716   1.265  -0.411  0.00  0.00    -0.252 OA
ATOM      6  N   UNL     1       4.842   0.143  -0.736  0.00  0.00    -0.288 N 
ATOM      7  C   UNL     1       3.812  -0.740  -0.164  0.00  0.00    +0.147 C 
ATOM      8  C   UNL     1       7.107   0.630   2.109  0.00  0.00    +0.139 C 
ATOM      9  C   UNL     1       5.266  -1.040   3.394  0.00  0.00    +0.061 C 
ATOM     10  H   UNL     1       4.788   0.435  -1.660  0.00  0.00    +0.151 HD
ENDROOT
BRANCH   7  11
ATOM     11  C   UNL     1       2.479  -0.049  -0.301  0.00  0.00    +0.020 A 
ATOM     12  C   UNL     1       2.398   1.325  -0.187  0.00  0.00    +0.009 A 
ATOM     13  C   UNL     1       1.176   1.960  -0.312  0.00  0.00    +0.002 A 
ATOM     14  C   UNL     1       0.033   1.221  -0.553  0.00  0.00    +0.019 A 
ATOM     15  C   UNL     1       0.108  -0.154  -0.669  0.00  0.00    +0.060 A 
ATOM     16  C   UNL     1       1.334  -0.793  -0.543  0.00  0.00    +0.136 A 
ATOM     17 BR   UNL     1      -1.456  -1.163  -0.998  0.00  0.00    -0.047 Br
BRANCH  16  18
ATOM     18  O   UNL     1       1.412  -2.145  -0.656  0.00  0.00    -0.505 OA
ATOM     19  H   UNL     1       1.565  -2.456  -1.559  0.00  0.00    +0.292 HD
ENDBRANCH  16  18
ENDBRANCH   7  11
BRANCH   1  20
ATOM     20  C   UNL     1       3.045  -1.986   1.927  0.00  0.00    +0.339 C 
ATOM     21  O   UNL     1       3.094  -3.189   1.756  0.00  0.00    -0.245 OA
BRANCH  20  22
ATOM     22  O   UNL     1       2.096  -1.456   2.727  0.00  0.00    -0.462 OA
BRANCH  22  24
ATOM     23  C   UNL     1       0.188  -1.589   4.204  0.00  0.00    +0.048 C 
ATOM     24  C   UNL     1       1.182  -2.368   3.341  0.00  0.00    +0.229 C 
ENDBRANCH  22  24
ENDBRANCH  20  22
ENDBRANCH   1  20
TORSDOF 5
