REMARK  Name = ZINC33960083
REMARK  10 active torsions:
REMARK  status: ('A' for Active; 'I' for Inactive)
REMARK    1  A    between atoms: C_1  and  C_2
REMARK    2  A    between atoms: N_5  and  S_11
REMARK    3  A    between atoms: C_7  and  C_10
REMARK    4  A    between atoms: S_11  and  C_14
REMARK    5  A    between atoms: C_18  and  C_20
REMARK    6  A    between atoms: N_25  and  N_26
REMARK    7  A    between atoms: C_27  and  C_28
REMARK    8  A    between atoms: C_31  and  N_34
REMARK    9  A    between atoms: N_34  and  C_35
REMARK   10  A    between atoms: N_34  and  C_36
REMARK                            x       y       z     vdW  Elec       q    Type
REMARK                         _______ _______ _______ _____ _____    ______ ____
ROOT
ATOM      1  C   UNL     1       1.429  -5.996  -3.026  0.00  0.00    +0.080 A 
ATOM      2  C   UNL     1       2.348  -6.242  -4.008  0.00  0.00    +0.077 A 
ATOM      3  S   UNL     1       3.095  -7.747  -3.394  0.00  0.00    -0.059 S 
ATOM      4  C   UNL     1       2.115  -7.891  -1.906  0.00  0.00    +0.178 A 
ATOM      5  N   UNL     1       1.341  -6.825  -1.996  0.00  0.00    -0.224 NA
ATOM      6  N   UNL     1       2.161  -8.860  -0.918  0.00  0.00    -0.215 N 
ATOM      7  H   UNL     1       1.560  -8.807  -0.159  0.00  0.00    +0.176 HD
ENDROOT
BRANCH   1  12
ATOM      8  C   UNL     1      -1.135  -3.394  -2.138  0.00  0.00    +0.106 A 
ATOM      9  C   UNL     1      -1.107  -2.592  -3.265  0.00  0.00    +0.028 A 
ATOM     10  C   UNL     1      -0.257  -2.893  -4.314  0.00  0.00    +0.003 A 
ATOM     11  C   UNL     1       0.568  -3.997  -4.242  0.00  0.00    +0.010 A 
ATOM     12  C   UNL     1       0.545  -4.809  -3.109  0.00  0.00    +0.003 A 
ATOM     13  C   UNL     1      -0.310  -4.497  -2.053  0.00  0.00    +0.038 A 
BRANCH   8  14
ATOM     14  S   UNL     1      -2.220  -3.003  -0.807  0.00  0.00    +0.061 S 
ATOM     15  O   UNL     1      -2.446  -4.214  -0.098  0.00  0.00    -0.153 OA
ATOM     16  O   UNL     1      -3.281  -2.235  -1.360  0.00  0.00    -0.153 OA
BRANCH  14  20
ATOM     17  C   UNL     1      -0.022   1.522   0.075  0.00  0.00    +0.039 C 
ATOM     18  C   UNL     1      -0.002  -0.007   0.055  0.00  0.00    +0.131 C 
ATOM     19  C   UNL     1      -1.439  -0.539   0.050  0.00  0.00    +0.140 C 
ATOM     20  N   UNL     1      -1.395  -2.000   0.220  0.00  0.00    -0.172 NA
ATOM     21  C   UNL     1      -0.595  -2.543   1.329  0.00  0.00    +0.140 C 
ATOM     22  C   UNL     1       0.802  -1.914   1.271  0.00  0.00    +0.131 C 
ATOM     23  O   UNL     1       0.676  -0.491   1.217  0.00  0.00    -0.371 OA
ATOM     24  C   UNL     1       1.593  -2.311   2.519  0.00  0.00    +0.039 C 
ENDBRANCH  14  20
ENDBRANCH   8  14
ENDBRANCH   1  12
BRANCH   6  25
ATOM     25  N   UNL     1       3.075  -9.918  -1.016  0.00  0.00    -0.188 NA
ATOM     26  C   UNL     1       3.117 -10.826  -0.089  0.00  0.00    +0.138 C 
BRANCH  26  27
ATOM     27  C   UNL     1       4.079 -11.939  -0.192  0.00  0.00    -0.005 A 
ATOM     28  C   UNL     1       4.949 -12.014  -1.282  0.00  0.00    +0.011 A 
ATOM     29  C   UNL     1       5.847 -13.055  -1.375  0.00  0.00    +0.024 A 
ATOM     30  C   UNL     1       5.888 -14.030  -0.384  0.00  0.00    +0.029 A 
ATOM     31  C   UNL     1       5.023 -13.959   0.703  0.00  0.00    +0.024 A 
ATOM     32  C   UNL     1       4.126 -12.918   0.804  0.00  0.00    +0.011 A 
BRANCH  30  33
ATOM     33  N   UNL     1       6.798 -15.084  -0.481  0.00  0.00    -0.336 N 
ATOM     34  C   UNL     1       7.622 -15.232  -1.684  0.00  0.00    +0.129 C 
ATOM     35  C   UNL     1       6.930 -16.041   0.619  0.00  0.00    +0.129 C 
ENDBRANCH  30  33
ENDBRANCH  26  27
ENDBRANCH   6  25
TORSDOF 6
