REMARK  Name = ZINC16238218
REMARK  9 active torsions:
REMARK  status: ('A' for Active; 'I' for Inactive)
REMARK    1  A    between atoms: C_1  and  C_2
REMARK    2  A    between atoms: C_2  and  C_3
REMARK    3  A    between atoms: C_2  and  C_4
REMARK    4  A    between atoms: C_9  and  N_10
REMARK    5  A    between atoms: N_10  and  C_11
REMARK    6  A    between atoms: C_11  and  N_13
REMARK    7  A    between atoms: N_13  and  N_14
REMARK    8  A    between atoms: C_15  and  C_17
REMARK    9  A    between atoms: C_26  and  O_27
REMARK                            x       y       z     vdW  Elec       q    Type
REMARK                         _______ _______ _______ _____ _____    ______ ____
ROOT
ATOM      1  N   UNL     1       0.769  -2.029  -4.116  0.00  0.00    -0.231 N 
ATOM      2  C   UNL     1       1.623  -2.330  -5.115  0.00  0.00    +0.264 C 
ATOM      3  O   UNL     1       1.213  -2.874  -6.122  0.00  0.00    -0.269 OA
ATOM      4  H   UNL     1       1.095  -1.595  -3.313  0.00  0.00    +0.173 HD
ENDROOT
BRANCH   2   5
ATOM      5  C   UNL     1       3.055  -1.999  -4.985  0.00  0.00    +0.080 A 
ATOM      6  C   UNL     1       3.518  -1.384  -3.833  0.00  0.00    +0.025 A 
ATOM      7  C   UNL     1       4.880  -1.072  -3.716  0.00  0.00    -0.017 A 
ATOM      8  C   UNL     1       5.385  -0.449  -2.560  0.00  0.00    +0.008 A 
ATOM      9  C   UNL     1       6.711  -0.159  -2.476  0.00  0.00    +0.001 A 
ATOM     10  C   UNL     1       7.582  -0.471  -3.519  0.00  0.00    +0.001 A 
ATOM     11  C   UNL     1       7.130  -1.074  -4.652  0.00  0.00    +0.008 A 
ATOM     12  C   UNL     1       5.766  -1.390  -4.778  0.00  0.00    -0.014 A 
ATOM     13  C   UNL     1       5.271  -2.014  -5.935  0.00  0.00    +0.054 A 
ATOM     14  C   UNL     1       3.945  -2.316  -6.033  0.00  0.00    +0.130 A 
BRANCH  14  15
ATOM     15  O   UNL     1       3.475  -2.923  -7.152  0.00  0.00    -0.506 OA
ATOM     16  H   UNL     1       3.190  -2.309  -7.843  0.00  0.00    +0.292 HD
ENDBRANCH  14  15
ENDBRANCH   2   5
BRANCH   1  17
ATOM     17  N   UNL     1      -0.591  -2.343  -4.239  0.00  0.00    -0.245 N 
ATOM     18  H   UNL     1      -0.918  -2.777  -5.043  0.00  0.00    +0.172 HD
BRANCH  17  19
ATOM     19  C   UNL     1      -1.445  -2.043  -3.241  0.00  0.00    +0.151 C 
ATOM     20  S   UNL     1      -3.107  -2.427  -3.391  0.00  0.00    -0.017 S 
BRANCH  19  21
ATOM     21  N   UNL     1      -0.991  -1.440  -2.124  0.00  0.00    -0.296 N 
ATOM     22  H   UNL     1      -0.063  -1.165  -2.065  0.00  0.00    +0.154 HD
BRANCH  21  28
ATOM     23  C   UNL     1      -1.473  -1.545   0.240  0.00  0.00    -0.024 A 
ATOM     24  C   UNL     1      -2.329  -1.311   1.298  0.00  0.00    +0.006 A 
ATOM     25  C   UNL     1      -3.572  -0.748   1.072  0.00  0.00    +0.000 A 
ATOM     26  C   UNL     1      -3.962  -0.418  -0.214  0.00  0.00    +0.002 A 
ATOM     27  C   UNL     1      -3.110  -0.650  -1.276  0.00  0.00    +0.023 A 
ATOM     28  C   UNL     1      -1.859  -1.209  -1.051  0.00  0.00    +0.036 A 
BRANCH  23  30
ATOM     29  C   UNL     1       0.700  -1.237   1.394  0.00  0.00    +0.012 C 
ATOM     30  C   UNL     1      -0.119  -2.158   0.487  0.00  0.00    +0.015 C 
ATOM     31  C   UNL     1      -0.291  -3.519   1.164  0.00  0.00    +0.012 C 
ENDBRANCH  23  30
ENDBRANCH  21  28
ENDBRANCH  19  21
ENDBRANCH  17  19
ENDBRANCH   1  17
TORSDOF 7
