REMARK  Name = ZINC43670258
REMARK  6 active torsions:
REMARK  status: ('A' for Active; 'I' for Inactive)
REMARK    1  A    between atoms: C_1  and  N_2
REMARK    2  A    between atoms: C_3  and  C_5
REMARK    3  A    between atoms: C_8  and  N_11
REMARK    4  A    between atoms: N_14  and  C_15
REMARK    5  A    between atoms: C_15  and  C_16
REMARK    6  A    between atoms: C_19  and  N_22
REMARK                            x       y       z     vdW  Elec       q    Type
REMARK                         _______ _______ _______ _____ _____    ______ ____
ROOT
ATOM      1  N   UNL     1       0.666  -6.306  -1.047  0.00  0.00    -0.269 N 
ATOM      2  C   UNL     1       1.161  -6.967  -2.112  0.00  0.00    +0.304 C 
ATOM      3  O   UNL     1       1.673  -6.350  -3.026  0.00  0.00    -0.252 OA
ATOM      4  N   UNL     1       1.086  -8.311  -2.164  0.00  0.00    -0.295 N 
ATOM      5  H   UNL     1       0.317  -6.800  -0.289  0.00  0.00    +0.156 HD
ATOM      6  H   UNL     1       0.677  -8.803  -1.435  0.00  0.00    +0.151 HD
ENDROOT
BRANCH   1  10
ATOM      7  C   UNL     1       0.638  -2.140  -1.010  0.00  0.00    +0.037 A 
ATOM      8  C   UNL     1       1.690  -2.828  -1.621  0.00  0.00    +0.015 A 
ATOM      9  C   UNL     1       1.696  -4.205  -1.631  0.00  0.00    +0.024 A 
ATOM     10  C   UNL     1       0.657  -4.911  -1.034  0.00  0.00    +0.035 A 
ATOM     11  C   UNL     1      -0.392  -4.230  -0.425  0.00  0.00    +0.024 A 
ATOM     12  C   UNL     1      -0.402  -2.853  -0.406  0.00  0.00    +0.015 A 
BRANCH   7  15
ATOM     13  C   UNL     1       1.622   1.486  -1.565  0.00  0.00    +0.128 C 
ATOM     14  N   UNL     1       1.631   0.021  -1.579  0.00  0.00    -0.314 N 
ATOM     15  C   UNL     1       0.628  -0.665  -0.996  0.00  0.00    +0.244 C 
ATOM     16  O   UNL     1      -0.285  -0.068  -0.460  0.00  0.00    -0.270 OA
ATOM     17  H   UNL     1       2.360  -0.455  -2.007  0.00  0.00    +0.149 HD
ENDBRANCH   7  15
ENDBRANCH   1  10
BRANCH   4  18
ATOM     18  C   UNL     1       1.624  -9.030  -3.322  0.00  0.00    +0.141 C 
BRANCH  18  19
ATOM     19  C   UNL     1       1.417 -10.511  -3.135  0.00  0.00    -0.030 A 
ATOM     20  C   UNL     1       2.385 -11.268  -2.500  0.00  0.00    +0.007 A 
ATOM     21  C   UNL     1       2.198 -12.625  -2.327  0.00  0.00    +0.023 A 
ATOM     22  C   UNL     1       1.037 -13.230  -2.791  0.00  0.00    +0.030 A 
ATOM     23  C   UNL     1       0.067 -12.467  -3.428  0.00  0.00    +0.023 A 
ATOM     24  C   UNL     1       0.257 -11.109  -3.593  0.00  0.00    +0.007 A 
BRANCH  22  25
ATOM     25  N   UNL     1       0.846 -14.603  -2.617  0.00  0.00    -0.320 N 
ATOM     26  C   UNL     1      -0.317 -15.294  -3.200  0.00  0.00    +0.124 C 
ATOM     27  C   UNL     1       0.196 -16.345  -4.185  0.00  0.00    +0.123 C 
ATOM     28  N   UNL     1       1.280 -17.119  -3.596  0.00  0.00    -0.313 N 
ATOM     29  C   UNL     1       2.037 -16.709  -2.577  0.00  0.00    +0.230 C 
ATOM     30  O   UNL     1       2.962 -17.409  -2.225  0.00  0.00    -0.274 OA
ATOM     31  C   UNL     1       1.800 -15.418  -1.851  0.00  0.00    +0.200 C 
ATOM     32  H   UNL     1       1.464 -17.995  -3.970  0.00  0.00    +0.149 HD
ENDBRANCH  22  25
ENDBRANCH  18  19
ENDBRANCH   4  18
TORSDOF 5
