REMARK  Name = ZINC12869117
REMARK  12 active torsions:
REMARK  status: ('A' for Active; 'I' for Inactive)
REMARK    1  A    between atoms: C_1  and  C_2
REMARK    2  A    between atoms: C_2  and  C_3
REMARK    3  A    between atoms: C_3  and  C_4
REMARK    4  A    between atoms: C_3  and  C_5
REMARK    5  A    between atoms: C_3  and  N_6
REMARK    6  A    between atoms: C_7  and  C_9
REMARK    7  A    between atoms: C_9  and  C_11
REMARK    8  A    between atoms: C_9  and  N_16
REMARK    9  A    between atoms: N_16  and  C_17
REMARK   10  A    between atoms: C_19  and  C_24
REMARK   11  A    between atoms: C_22  and  C_23
REMARK   12  A    between atoms: C_25  and  C_27
REMARK                            x       y       z     vdW  Elec       q    Type
REMARK                         _______ _______ _______ _____ _____    ______ ____
ROOT
ATOM      1  N   UNL     1      -2.456   3.823   0.043  0.00  0.00    -0.249 N 
ATOM      2  C   UNL     1      -3.033   4.148   1.217  0.00  0.00    +0.272 C 
ATOM      3  O   UNL     1      -4.093   4.744   1.229  0.00  0.00    -0.268 OA
ENDROOT
BRANCH   1   4
ATOM      4  C   UNL     1      -1.236   3.138   0.029  0.00  0.00    +0.041 A 
ATOM      5  C   UNL     1      -0.041   3.845   0.021  0.00  0.00    +0.027 A 
ATOM      6  C   UNL     1       1.161   3.166   0.007  0.00  0.00    -0.049 A 
ATOM      7  C   UNL     1       1.176   1.783   0.000  0.00  0.00    +0.004 A 
ATOM      8  C   UNL     1      -0.013   1.076   0.008  0.00  0.00    +0.005 A 
ATOM      9  C   UNL     1      -1.218   1.749   0.017  0.00  0.00    -0.029 A 
ATOM     10  C   UNL     1      -2.513   0.978   0.020  0.00  0.00    +0.045 C 
ATOM     11  C   UNL     1       2.459   3.932  -0.002  0.00  0.00    +0.044 C 
ENDBRANCH   1   4
BRANCH   2  12
ATOM     12  C   UNL     1      -2.378   3.782   2.486  0.00  0.00    +0.157 A 
ATOM     13  C   UNL     1      -2.909   4.082   3.733  0.00  0.00    +0.101 A 
ATOM     14  S   UNL     1      -1.703   3.405   4.777  0.00  0.00    +0.029 S 
ATOM     15  N   UNL     1      -0.706   2.843   3.690  0.00  0.00    -0.110 NA
ATOM     16  N   UNL     1      -1.225   3.128   2.552  0.00  0.00    -0.136 NA
ENDBRANCH   2  12
BRANCH   1  17
ATOM     17  C   UNL     1      -3.106   4.187  -1.218  0.00  0.00    +0.204 C 
BRANCH  17  18
ATOM     18  C   UNL     1      -3.259   5.684  -1.290  0.00  0.00    +0.019 A 
ATOM     19  C   UNL     1      -3.091   6.509  -2.353  0.00  0.00    +0.013 A 
ATOM     20  C   UNL     1      -3.288   7.867  -2.185  0.00  0.00    +0.008 A 
ATOM     21  C   UNL     1      -3.644   8.333  -0.963  0.00  0.00    +0.045 A 
ATOM     22  S   UNL     1      -3.717   6.831  -0.001  0.00  0.00    -0.099 S 
ENDBRANCH  17  18
BRANCH  17  24
ATOM     23  N   UNL     1      -5.250   3.734  -2.366  0.00  0.00    -0.308 N 
ATOM     24  C   UNL     1      -4.465   3.539  -1.288  0.00  0.00    +0.239 C 
ATOM     25  O   UNL     1      -4.852   2.842  -0.374  0.00  0.00    -0.273 OA
ATOM     26  H   UNL     1      -4.940   4.292  -3.097  0.00  0.00    +0.149 HD
BRANCH  23  27
ATOM     27  C   UNL     1      -6.570   3.104  -2.434  0.00  0.00    +0.029 C 
ATOM     28  C   UNL     1      -6.415   1.584  -2.361  0.00  0.00    +0.031 C 
ATOM     29  C   UNL     1      -7.426   3.586  -1.262  0.00  0.00    +0.031 C 
BRANCH  27  31
ATOM     30  C   UNL     1      -8.629   2.826  -3.823  0.00  0.00    +0.006 C 
ATOM     31  C   UNL     1      -7.250   3.484  -3.752  0.00  0.00    +0.022 C 
ENDBRANCH  27  31
ENDBRANCH  23  27
ENDBRANCH  17  24
ENDBRANCH   1  17
TORSDOF 7
