REMARK  Name = ZINC63374053
REMARK  6 active torsions:
REMARK  status: ('A' for Active; 'I' for Inactive)
REMARK    1  A    between atoms: C_1  and  C_2
REMARK    2  A    between atoms: C_2  and  C_3
REMARK    3  A    between atoms: C_3  and  C_4
REMARK    4  A    between atoms: C_4  and  N_5
REMARK    5  A    between atoms: C_8  and  C_15
REMARK    6  A    between atoms: C_22  and  C_27
REMARK                            x       y       z     vdW  Elec       q    Type
REMARK                         _______ _______ _______ _____ _____    ______ ____
ROOT
ATOM      1  C   UNL     1      -5.436  -3.557   2.496  0.00  0.00    -0.003 C 
ATOM      2  C   UNL     1      -4.803  -4.765   3.190  0.00  0.00    +0.097 C 
ATOM      3  C   UNL     1      -3.381  -4.349   3.553  0.00  0.00    -0.041 C 
ATOM      4  C   UNL     1      -2.579  -5.272   3.042  0.00  0.00    -0.001 A 
ATOM      5  C   UNL     1      -1.123  -5.467   3.133  0.00  0.00    +0.013 A 
ATOM      6  C   UNL     1      -0.617  -6.533   2.459  0.00  0.00    -0.050 A 
ATOM      7  C   UNL     1      -1.404  -7.414   1.711  0.00  0.00    +0.005 A 
ATOM      8  C   UNL     1      -2.751  -7.315   1.578  0.00  0.00    +0.026 A 
ATOM      9  C   UNL     1      -3.399  -6.236   2.247  0.00  0.00    +0.043 A 
ATOM     10  N   UNL     1      -4.678  -5.924   2.308  0.00  0.00    -0.379 N 
ATOM     11  C   UNL     1       0.869  -6.778   2.519  0.00  0.00    +0.044 C 
ATOM     12  C   UNL     1      -3.099  -3.050   4.269  0.00  0.00    +0.014 C 
ATOM     13  C   UNL     1      -3.907  -1.970   3.527  0.00  0.00    -0.077 C 
ATOM     14  N   UNL     1      -5.303  -2.390   3.382  0.00  0.00    +0.386 N 
ATOM     15  H   UNL     1      -5.839  -1.625   3.000  0.00  0.00    -0.085 HD
ATOM     16  H   UNL     1      -5.408  -6.372   1.853  0.00  0.00    +0.160 HD
ATOM     17  H   UNL     1      -5.672  -2.625   4.291  0.00  0.00    -0.085 HD
ENDROOT
BRANCH   1  21
ATOM     18  N   UNL     1      -4.790  -2.991  -1.165  0.00  0.00    -0.261 N 
ATOM     19  C   UNL     1      -5.444  -3.232  -0.012  0.00  0.00    +0.262 A 
ATOM     20  O   UNL     1      -6.652  -3.399  -0.015  0.00  0.00    -0.267 OA
ATOM     21  C   UNL     1      -4.725  -3.289   1.194  0.00  0.00    +0.070 A 
ATOM     22  H   UNL     1      -1.788  -2.720  -0.048  0.00  0.00    +0.173 HD
ATOM     23  C   UNL     1      -3.375  -3.099   1.171  0.00  0.00    +0.259 A 
ATOM     24  N   UNL     1      -2.748  -2.857  -0.026  0.00  0.00    -0.275 N 
ATOM     25  C   UNL     1      -3.457  -2.811  -1.169  0.00  0.00    +0.332 A 
ATOM     26  O   UNL     1      -2.884  -2.599  -2.220  0.00  0.00    -0.246 OA
ATOM     27  O   UNL     1      -2.660  -3.149   2.315  0.00  0.00    -0.267 OA
BRANCH  18  28
ATOM     28  C   UNL     1      -5.535  -2.930  -2.425  0.00  0.00    +0.130 C 
BRANCH  28  29
ATOM     29  C   UNL     1      -5.604  -4.327  -3.045  0.00  0.00    +0.022 C 
BRANCH  29  31
ATOM     30  C   UNL     1      -6.451  -5.661  -4.981  0.00  0.00    +0.004 C 
ATOM     31  C   UNL     1      -6.382  -4.264  -4.361  0.00  0.00    -0.002 C 
ENDBRANCH  29  31
ENDBRANCH  28  29
ENDBRANCH  18  28
ENDBRANCH   1  21
TORSDOF 4
