REMARK  Name = ZINC61554846
REMARK  9 active torsions:
REMARK  status: ('A' for Active; 'I' for Inactive)
REMARK    1  A    between atoms: C_1  and  C_2
REMARK    2  A    between atoms: C_5  and  C_22
REMARK    3  A    between atoms: C_7  and  N_8
REMARK    4  A    between atoms: N_11  and  C_12
REMARK    5  A    between atoms: C_12  and  C_13
REMARK    6  A    between atoms: N_19  and  C_20
REMARK    7  A    between atoms: N_19  and  C_21
REMARK    8  A    between atoms: N_24  and  C_25
REMARK    9  A    between atoms: N_24  and  C_26
REMARK                            x       y       z     vdW  Elec       q    Type
REMARK                         _______ _______ _______ _____ _____    ______ ____
ROOT
ATOM      1  N   UNL     1      -0.131  -0.167   1.365  0.00  0.00    -0.269 N 
ATOM      2  C   UNL     1      -0.234  -0.690   2.603  0.00  0.00    +0.304 C 
ATOM      3  O   UNL     1      -0.080  -1.883   2.774  0.00  0.00    -0.252 OA
ATOM      4  N   UNL     1      -0.508   0.111   3.652  0.00  0.00    -0.295 N 
ATOM      5  H   UNL     1      -0.185   0.793   1.238  0.00  0.00    +0.156 HD
ATOM      6  H   UNL     1      -0.631   1.064   3.516  0.00  0.00    +0.151 HD
ENDROOT
BRANCH   1  13
ATOM      7  C   UNL     1      -1.045   0.727  -1.173  0.00  0.00    +0.045 C 
ATOM      8  C   UNL     1      -0.376  -0.612  -0.996  0.00  0.00    -0.029 A 
ATOM      9  C   UNL     1      -0.190  -1.438  -2.089  0.00  0.00    +0.006 A 
ATOM     10  C   UNL     1       0.421  -2.666  -1.935  0.00  0.00    +0.013 A 
ATOM     11  C   UNL     1       0.854  -3.077  -0.673  0.00  0.00    +0.039 A 
ATOM     12  C   UNL     1       0.666  -2.243   0.429  0.00  0.00    +0.036 A 
ATOM     13  C   UNL     1       0.056  -1.010   0.263  0.00  0.00    +0.038 A 
BRANCH  11  14
ATOM     14  C   UNL     1       1.508  -4.392  -0.505  0.00  0.00    +0.246 C 
ATOM     15  O   UNL     1       2.539  -4.481   0.133  0.00  0.00    -0.270 OA
ATOM     16  N   UNL     1       0.962  -5.492  -1.060  0.00  0.00    -0.304 N 
ATOM     17  C   UNL     1       1.556  -6.809  -0.812  0.00  0.00    +0.132 C 
ATOM     18  C   UNL     1      -0.224  -5.372  -1.911  0.00  0.00    +0.132 C 
ENDBRANCH  11  14
ENDBRANCH   1  13
BRANCH   4  19
ATOM     19  C   UNL     1      -0.621  -0.457   4.998  0.00  0.00    +0.141 C 
BRANCH  19  20
ATOM     20  C   UNL     1      -0.930   0.641   5.982  0.00  0.00    -0.026 A 
ATOM     21  C   UNL     1       0.092   1.338   6.613  0.00  0.00    +0.023 A 
ATOM     22  C   UNL     1      -0.225   2.339   7.510  0.00  0.00    +0.084 A 
ATOM     23  N   UNL     1      -1.483   2.639   7.772  0.00  0.00    -0.350 N 
ATOM     24  C   UNL     1      -2.485   1.998   7.191  0.00  0.00    +0.098 A 
ATOM     25  C   UNL     1      -2.239   0.982   6.273  0.00  0.00    +0.047 A 
ATOM     26  N   UNL     1      -3.795   2.346   7.498  0.00  0.00    -0.323 N 
ATOM     27  C   UNL     1      -4.065   3.325   8.554  0.00  0.00    +0.130 C 
ATOM     28  C   UNL     1      -4.907   1.735   6.764  0.00  0.00    +0.130 C 
ATOM     29  H   UNL     1      -1.678   3.347   8.406  0.00  0.00    +0.166 HD
ENDBRANCH  19  20
ENDBRANCH   4  19
TORSDOF 4
