REMARK  Name = ZINC09585458
REMARK  8 active torsions:
REMARK  status: ('A' for Active; 'I' for Inactive)
REMARK    1  A    between atoms: C_1  and  C_2
REMARK    2  A    between atoms: C_2  and  N_3
REMARK    3  A    between atoms: C_4  and  C_21
REMARK    4  A    between atoms: C_7  and  S_8
REMARK    5  A    between atoms: S_8  and  C_9
REMARK    6  A    between atoms: C_9  and  C_10
REMARK    7  A    between atoms: N_12  and  C_13
REMARK    8  A    between atoms: C_14  and  C_18
REMARK                            x       y       z     vdW  Elec       q    Type
REMARK                         _______ _______ _______ _____ _____    ______ ____
ROOT
ATOM      1  S   UNL     1      -1.753   4.950   0.045  0.00  0.00    -0.077 S 
ENDROOT
BRANCH   1   6
ATOM      2  N   UNL     1      -1.118   2.226   0.034  0.00  0.00    -0.302 N 
ATOM      3  C   UNL     1       0.035   1.476   0.018  0.00  0.00    +0.165 A 
ATOM      4  N   UNL     1       1.042   2.318  -0.005  0.00  0.00    -0.128 NA
ATOM      5  N   UNL     1       0.603   3.526   0.001  0.00  0.00    -0.122 NA
ATOM      6  C   UNL     1      -0.711   3.529   0.028  0.00  0.00    +0.192 A 
BRANCH   3   7
ATOM      7  C   UNL     1       0.125   0.000   0.020  0.00  0.00    +0.019 A 
ATOM      8  C   UNL     1      -0.960  -0.766   0.449  0.00  0.00    +0.013 A 
ATOM      9  C   UNL     1      -0.872  -2.143   0.445  0.00  0.00    +0.021 A 
ATOM     10  C   UNL     1       0.292  -2.764   0.025  0.00  0.00    +0.041 A 
ATOM     11  C   UNL     1       1.373  -2.009  -0.396  0.00  0.00    +0.021 A 
ATOM     12  C   UNL     1       1.296  -0.631  -0.401  0.00  0.00    +0.013 A 
ATOM     13 CL   UNL     1       0.397  -4.497   0.029  0.00  0.00    -0.084 Cl
ENDBRANCH   3   7
BRANCH   2  15
ATOM     14  C   UNL     1      -2.995   1.673   1.501  0.00  0.00    +0.027 C 
ATOM     15  C   UNL     1      -2.496   1.729   0.056  0.00  0.00    +0.122 C 
ENDBRANCH   2  15
ENDBRANCH   1   6
BRANCH   1  16
ATOM     16  C   UNL     1      -0.502   6.258   0.016  0.00  0.00    +0.173 C 
BRANCH  16  17
ATOM     17  C   UNL     1      -1.181   7.603   0.026  0.00  0.00    +0.228 C 
ATOM     18  O   UNL     1      -2.392   7.671   0.050  0.00  0.00    -0.275 OA
ATOM     19  N   UNL     1      -0.443   8.730   0.008  0.00  0.00    -0.279 N 
ATOM     20  H   UNL     1       0.525   8.676  -0.012  0.00  0.00    +0.155 HD
BRANCH  19  21
ATOM     21  C   UNL     1      -1.068   9.968   0.017  0.00  0.00    +0.084 A 
ATOM     22  C   UNL     1      -0.485  11.230   0.007  0.00  0.00    +0.065 A 
ATOM     23  C   UNL     1      -1.383  12.360   0.017  0.00  0.00    +0.022 A 
ATOM     24  C   UNL     1      -2.701  12.097   0.045  0.00  0.00    +0.048 A 
ATOM     25  S   UNL     1      -2.764  10.317   0.051  0.00  0.00    -0.081 S 
BRANCH  22  26
ATOM     26  C   UNL     1       0.971  11.404  -0.015  0.00  0.00    +0.244 C 
ATOM     27  O   UNL     1       1.700  10.430  -0.026  0.00  0.00    -0.270 OA
ATOM     28  N   UNL     1       1.501  12.643  -0.024  0.00  0.00    -0.325 N 
ATOM     29  H   UNL     1       0.920  13.420  -0.016  0.00  0.00    +0.145 HD
ATOM     30  H   UNL     1       2.464  12.759  -0.039  0.00  0.00    +0.145 HD
ENDBRANCH  22  26
ENDBRANCH  19  21
ENDBRANCH  16  17
ENDBRANCH   1  16
TORSDOF 7
