REMARK  Name = ZINC43525911
REMARK  7 active torsions:
REMARK  status: ('A' for Active; 'I' for Inactive)
REMARK    1  A    between atoms: C_1  and  N_2
REMARK    2  A    between atoms: C_3  and  C_13
REMARK    3  A    between atoms: C_5  and  C_7
REMARK    4  A    between atoms: C_22  and  C_24
REMARK    5  A    between atoms: C_24  and  N_25
REMARK    6  A    between atoms: N_25  and  C_26
REMARK    7  A    between atoms: C_26  and  C_27
REMARK                            x       y       z     vdW  Elec       q    Type
REMARK                         _______ _______ _______ _____ _____    ______ ____
ROOT
ATOM      1  C   UNL     1      -0.005  -0.323  -2.526  0.00  0.00    +0.055 C 
ATOM      2  C   UNL     1       1.433  -0.149  -3.022  0.00  0.00    +0.094 C 
ATOM      3  N   UNL     1       1.662  -1.036  -4.170  0.00  0.00    -0.301 NA
ATOM      4  C   UNL     1       1.504  -2.446  -3.788  0.00  0.00    +0.085 C 
ATOM      5  C   UNL     1       0.069  -2.685  -3.312  0.00  0.00    +0.019 C 
ATOM      6  C   UNL     1      -0.712  -1.365  -3.401  0.00  0.00    +0.002 C 
ATOM      7  C   UNL     1      -0.686  -0.880  -4.856  0.00  0.00    +0.021 C 
ATOM      8  C   UNL     1       0.774  -0.693  -5.289  0.00  0.00    +0.040 C 
ENDROOT
BRANCH   1  11
ATOM      9  C   UNL     1      -2.056   0.405  -0.317  0.00  0.00    +0.172 C 
ATOM     10  N   UNL     1      -0.892  -0.468  -0.142  0.00  0.00    -0.271 N 
ATOM     11  C   UNL     1       0.008  -0.792  -1.094  0.00  0.00    +0.044 A 
ATOM     12  C   UNL     1       0.924  -1.615  -0.532  0.00  0.00    +0.048 A 
ATOM     13  C   UNL     1       0.572  -1.799   0.809  0.00  0.00    +0.066 A 
ATOM     14  N   UNL     1      -0.513  -1.107   1.046  0.00  0.00    -0.176 NA
BRANCH  13  15
ATOM     15  C   UNL     1       1.317  -2.644   1.810  0.00  0.00    +0.040 C 
ATOM     16  C   UNL     1       2.819  -2.561   1.529  0.00  0.00    +0.010 C 
ATOM     17  C   UNL     1       3.576  -3.418   2.546  0.00  0.00    +0.001 C 
ATOM     18  C   UNL     1       3.115  -4.872   2.430  0.00  0.00    +0.000 C 
ATOM     19  C   UNL     1       1.613  -4.955   2.711  0.00  0.00    +0.001 C 
ATOM     20  C   UNL     1       0.856  -4.098   1.694  0.00  0.00    +0.010 C 
ENDBRANCH  13  15
ENDBRANCH   1  11
BRANCH   8  21
ATOM     21  C   UNL     1       1.076  -1.605  -6.479  0.00  0.00    -0.063 C 
BRANCH  21  22
ATOM     22  N   UNL     1       2.503  -1.516  -6.816  0.00  0.00    +0.384 N 
ATOM     23  H   UNL     1       2.733  -0.563  -7.056  0.00  0.00    -0.085 HD
ATOM     24  H   UNL     1       3.054  -1.805  -6.022  0.00  0.00    -0.085 HD
BRANCH  22  25
ATOM     25  C   UNL     1       2.792  -2.392  -7.959  0.00  0.00    -0.026 C 
BRANCH  25  26
ATOM     26  C   UNL     1       4.257  -2.300  -8.304  0.00  0.00    +0.024 A 
ATOM     27  C   UNL     1       5.139  -3.232  -7.792  0.00  0.00    +0.021 A 
ATOM     28  C   UNL     1       6.484  -3.139  -8.115  0.00  0.00    +0.003 A 
ATOM     29  C   UNL     1       6.893  -2.106  -8.946  0.00  0.00    +0.020 A 
ATOM     30  C   UNL     1       5.952  -1.211  -9.420  0.00  0.00    +0.111 A 
ATOM     31  N   UNL     1       4.680  -1.334  -9.095  0.00  0.00    -0.262 NA
ENDBRANCH  25  26
ENDBRANCH  22  25
ENDBRANCH  21  22
ENDBRANCH   8  21
TORSDOF 6
