REMARK  Name = ZINC36255564
REMARK  6 active torsions:
REMARK  status: ('A' for Active; 'I' for Inactive)
REMARK    1  A    between atoms: C_1  and  C_2
REMARK    2  A    between atoms: C_2  and  C_3
REMARK    3  A    between atoms: C_2  and  C_4
REMARK    4  A    between atoms: C_2  and  C_5
REMARK    5  A    between atoms: C_14  and  C_17
REMARK    6  A    between atoms: C_17  and  C_18
REMARK                            x       y       z     vdW  Elec       q    Type
REMARK                         _______ _______ _______ _____ _____    ______ ____
ROOT
ATOM      1  C   UNL     1       0.718  -0.497  -1.257  0.00  0.00    -0.000 C 
ATOM      2  C   UNL     1       0.749  -2.029  -1.264  0.00  0.00    +0.010 C 
ATOM      3  C   UNL     1       1.247  -2.533  -2.619  0.00  0.00    +0.055 C 
ATOM      4  C   UNL     1       2.573  -1.850  -2.943  0.00  0.00    +0.036 A 
ATOM      5  C   UNL     1       2.927  -0.724  -2.313  0.00  0.00    +0.013 A 
ATOM      6  S   UNL     1       4.507  -0.322  -3.012  0.00  0.00    -0.054 S 
ATOM      7  C   UNL     1       4.615  -1.702  -4.129  0.00  0.00    +0.178 A 
ATOM      8  N   UNL     1       3.446  -2.370  -3.894  0.00  0.00    -0.293 N 
ATOM      9  C   UNL     1       3.483  -3.467  -4.750  0.00  0.00    +0.058 A 
ATOM     10  C   UNL     1       4.636  -3.408  -5.438  0.00  0.00    +0.136 A 
ATOM     11  N   UNL     1       5.311  -2.318  -5.040  0.00  0.00    -0.229 NA
ATOM     12  C   UNL     1       2.163   0.025  -1.267  0.00  0.00    +0.048 C 
ENDROOT
BRANCH   1  14
ATOM     13  C   UNL     1      -0.019   1.526   0.010  0.00  0.00    +0.011 C 
ATOM     14  C   UNL     1       0.002  -0.004   0.002  0.00  0.00    -0.035 C 
ATOM     15  C   UNL     1       0.742  -0.511   1.242  0.00  0.00    +0.011 C 
ATOM     16  C   UNL     1      -1.433  -0.534   0.013  0.00  0.00    +0.011 C 
ENDBRANCH   1  14
BRANCH   9  17
ATOM     17  C   UNL     1       2.422  -4.528  -4.883  0.00  0.00    +0.173 C 
BRANCH  17  18
ATOM     18  C   UNL     1       2.767  -5.676  -4.028  0.00  0.00    +0.069 C 
ATOM     19  N   UNL     1       3.033  -6.562  -3.368  0.00  0.00    -0.196 NA
ENDBRANCH  17  18
ENDBRANCH   9  17
TORSDOF 3
