REMARK  Name = ZINC04944806
REMARK  7 active torsions:
REMARK  status: ('A' for Active; 'I' for Inactive)
REMARK    1  A    between atoms: C_1  and  C_2
REMARK    2  A    between atoms: C_7  and  C_8
REMARK    3  A    between atoms: C_8  and  O_9
REMARK    4  A    between atoms: O_9  and  C_10
REMARK    5  A    between atoms: C_13  and  C_18
REMARK    6  A    between atoms: C_15  and  O_16
REMARK    7  A    between atoms: O_16  and  C_17
REMARK                            x       y       z     vdW  Elec       q    Type
REMARK                         _______ _______ _______ _____ _____    ______ ____
ROOT
ATOM      1  C   UNL     1       0.053  -0.376   4.845  0.00  0.00    +0.162 A 
ATOM      2  C   UNL     1       0.036   0.996   5.036  0.00  0.00    +0.050 A 
ATOM      3  C   UNL     1       0.041   1.516   6.316  0.00  0.00    +0.008 A 
ATOM      4  C   UNL     1       0.063   0.669   7.409  0.00  0.00    -0.036 A 
ATOM      5  C   UNL     1       0.080  -0.701   7.226  0.00  0.00    +0.053 A 
ATOM      6  C   UNL     1       0.069  -1.229   5.945  0.00  0.00    +0.162 A 
ENDROOT
BRANCH   4   7
ATOM      7  C   UNL     1       0.068   1.241   8.803  0.00  0.00    +0.066 C 
ATOM      8  C   UNL     1      -1.191   2.085   9.013  0.00  0.00    +0.109 C 
ATOM      9  C   UNL     1      -1.082   3.366   8.230  0.00  0.00    +0.219 C 
ATOM     10  O   UNL     1      -2.076   3.850   7.733  0.00  0.00    -0.275 OA
ATOM     11  N   UNL     1       0.104   3.981   8.075  0.00  0.00    -0.270 N 
ATOM     12  C   UNL     1       1.257   3.438   8.617  0.00  0.00    +0.137 A 
ATOM     13  C   UNL     1       1.286   2.105   8.987  0.00  0.00    +0.065 A 
ATOM     14  C   UNL     1       2.459   1.575   9.532  0.00  0.00    +0.258 A 
ATOM     15  O   UNL     1       2.517   0.403   9.867  0.00  0.00    -0.267 OA
ATOM     16  N   UNL     1       3.529   2.388   9.679  0.00  0.00    -0.295 N 
ATOM     17  H   UNL     1       4.378   2.030  10.066  0.00  0.00    +0.172 HD
ATOM     18  C   UNL     1       3.450   3.692   9.301  0.00  0.00    +0.195 A 
ATOM     19  N   UNL     1       2.347   4.195   8.787  0.00  0.00    -0.201 NA
ATOM     20  N   UNL     1       4.544   4.501   9.458  0.00  0.00    -0.329 N 
ATOM     21  H   UNL     1       0.153   4.813   7.579  0.00  0.00    +0.156 HD
ATOM     22  H   UNL     1       5.362   4.142   9.835  0.00  0.00    +0.145 HD
ATOM     23  H   UNL     1       4.500   5.433   9.192  0.00  0.00    +0.145 HD
ENDBRANCH   4   7
BRANCH   6  24
ATOM     24  O   UNL     1       0.080  -2.576   5.763  0.00  0.00    -0.491 OA
ATOM     25  C   UNL     1       0.097  -3.389   6.937  0.00  0.00    +0.277 C 
ENDBRANCH   6  24
BRANCH   1  26
ATOM     26  O   UNL     1       0.048  -0.889   3.585  0.00  0.00    -0.484 OA
BRANCH  26  27
ATOM     27  C   UNL     1       0.025   0.045   2.504  0.00  0.00    +0.265 C 
BRANCH  27  34
ATOM     28  C   UNL     1      -0.018   1.503   0.010  0.00  0.00    +0.044 C 
ATOM     29  C   UNL     1       0.002  -0.004   0.002  0.00  0.00    -0.044 A 
ATOM     30  C   UNL     1      -0.006  -0.689  -1.199  0.00  0.00    +0.004 A 
ATOM     31  C   UNL     1       0.018  -2.071  -1.207  0.00  0.00    +0.000 A 
ATOM     32  C   UNL     1       0.039  -2.768  -0.013  0.00  0.00    +0.000 A 
ATOM     33  C   UNL     1       0.041  -2.084   1.188  0.00  0.00    +0.007 A 
ATOM     34  C   UNL     1       0.023  -0.702   1.195  0.00  0.00    -0.007 A 
ENDBRANCH  27  34
ENDBRANCH  26  27
ENDBRANCH   1  26
TORSDOF 5
