REMARK  Name = ZINC39572420
REMARK  7 active torsions:
REMARK  status: ('A' for Active; 'I' for Inactive)
REMARK    1  A    between atoms: C_2  and  C_3
REMARK    2  A    between atoms: C_3  and  N_4
REMARK    3  A    between atoms: C_5  and  C_25
REMARK    4  A    between atoms: C_9  and  S_11
REMARK    5  A    between atoms: S_11  and  C_12
REMARK    6  A    between atoms: C_12  and  C_13
REMARK    7  A    between atoms: C_30  and  O_31
REMARK                            x       y       z     vdW  Elec       q    Type
REMARK                         _______ _______ _______ _____ _____    ______ ____
ROOT
ATOM      1  N   UNL     1       1.534  -1.759   0.961  0.00  0.00    -0.242 NA
ATOM      2  C   UNL     1       2.858  -2.431   0.965  0.00  0.00    +0.205 C 
ATOM      3  N   UNL     1       2.636  -3.700   0.259  0.00  0.00    -0.289 N 
ATOM      4  N   UNL     1       1.432  -3.962   0.178  0.00  0.00    -0.184 NA
ATOM      5  C   UNL     1       0.618  -2.919   0.816  0.00  0.00    +0.257 C 
ATOM      6  H   UNL     1       3.343  -4.259  -0.099  0.00  0.00    +0.184 HD
ENDROOT
BRANCH   2   7
ATOM      7  C   UNL     1       3.312  -2.687   2.378  0.00  0.00    +0.032 A 
ATOM      8  C   UNL     1       2.835  -1.903   3.411  0.00  0.00    +0.010 A 
ATOM      9  C   UNL     1       3.252  -2.137   4.708  0.00  0.00    +0.001 A 
ATOM     10  C   UNL     1       4.147  -3.157   4.976  0.00  0.00    +0.004 A 
ATOM     11  C   UNL     1       4.626  -3.944   3.947  0.00  0.00    +0.046 A 
ATOM     12  C   UNL     1       4.205  -3.714   2.645  0.00  0.00    +0.123 A 
BRANCH  12  13
ATOM     13  O   UNL     1       4.671  -4.491   1.632  0.00  0.00    -0.506 OA
ATOM     14  H   UNL     1       5.482  -4.159   1.223  0.00  0.00    +0.292 HD
ENDBRANCH  12  13
ENDBRANCH   2   7
BRANCH   1  15
ATOM     15  C   UNL     1       1.411  -0.845  -0.182  0.00  0.00    +0.116 C 
BRANCH  15  17
ATOM     16  C   UNL     1       3.168   0.718  -0.841  0.00  0.00    +0.005 C 
ATOM     17  C   UNL     1       2.273   0.369   0.051  0.00  0.00    -0.019 C 
ENDBRANCH  15  17
ENDBRANCH   1  15
BRANCH   5  18
ATOM     18  S   UNL     1      -0.790  -2.482  -0.242  0.00  0.00    -0.109 S 
BRANCH  18  19
ATOM     19  C   UNL     1      -1.990  -3.811   0.054  0.00  0.00    +0.146 C 
BRANCH  19  20
ATOM     20  C   UNL     1      -3.270  -3.505  -0.679  0.00  0.00    +0.120 A 
ATOM     21  N   UNL     1      -4.299  -4.386  -0.576  0.00  0.00    -0.310 N 
ATOM     22  H   UNL     1      -4.193  -5.187  -0.039  0.00  0.00    +0.170 HD
ATOM     23  C   UNL     1      -5.470  -4.156  -1.215  0.00  0.00    +0.259 A 
ATOM     24  O   UNL     1      -6.400  -4.937  -1.130  0.00  0.00    -0.267 OA
ATOM     25  C   UNL     1      -5.575  -2.927  -2.014  0.00  0.00    +0.065 A 
ATOM     26  C   UNL     1      -6.736  -2.598  -2.711  0.00  0.00    +0.015 A 
ATOM     27  C   UNL     1      -6.779  -1.433  -3.446  0.00  0.00    +0.001 A 
ATOM     28  C   UNL     1      -5.678  -0.588  -3.496  0.00  0.00    +0.002 A 
ATOM     29  C   UNL     1      -4.521  -0.896  -2.816  0.00  0.00    +0.028 A 
ATOM     30  C   UNL     1      -4.453  -2.070  -2.064  0.00  0.00    +0.078 A 
ATOM     31  N   UNL     1      -3.335  -2.409  -1.373  0.00  0.00    -0.233 NA
ENDBRANCH  19  20
ENDBRANCH  18  19
ENDBRANCH   5  18
TORSDOF 7
