REMARK  Name = ZINC41078271
REMARK  7 active torsions:
REMARK  status: ('A' for Active; 'I' for Inactive)
REMARK    1  A    between atoms: C_1  and  C_2
REMARK    2  A    between atoms: C_6  and  O_8
REMARK    3  A    between atoms: O_8  and  C_9
REMARK    4  A    between atoms: C_9  and  C_10
REMARK    5  A    between atoms: C_10  and  N_11
REMARK    6  A    between atoms: C_13  and  C_20
REMARK    7  A    between atoms: C_30  and  C_32
REMARK                            x       y       z     vdW  Elec       q    Type
REMARK                         _______ _______ _______ _____ _____    ______ ____
ROOT
ATOM      1  N   UNL     1       0.005  -6.186   3.860  0.00  0.00    -0.343 N 
ATOM      2  C   UNL     1      -1.064  -7.007   3.868  0.00  0.00    +0.095 A 
ATOM      3  C   UNL     1      -0.650  -8.308   3.655  0.00  0.00    +0.001 A 
ATOM      4  C   UNL     1       0.818  -8.252   3.505  0.00  0.00    +0.007 A 
ATOM      5  C   UNL     1       1.166  -6.899   3.637  0.00  0.00    +0.050 A 
ATOM      6  C   UNL     1       2.502  -6.527   3.535  0.00  0.00    +0.026 A 
ATOM      7  C   UNL     1       3.468  -7.483   3.303  0.00  0.00    +0.002 A 
ATOM      8  C   UNL     1       3.121  -8.819   3.170  0.00  0.00    +0.001 A 
ATOM      9  C   UNL     1       1.802  -9.208   3.276  0.00  0.00    +0.010 A 
ENDROOT
BRANCH   3  10
ATOM     10  C   UNL     1      -1.467  -9.460   3.594  0.00  0.00    +0.027 C 
ATOM     11  C   UNL     1      -2.784  -9.353   3.187  0.00  0.00    +0.084 C 
ATOM     12  C   UNL     1      -3.338  -8.088   2.618  0.00  0.00    +0.176 C 
ATOM     13  N   UNL     1      -2.628  -7.232   1.929  0.00  0.00    -0.280 NA
ATOM     14  N   UNL     1      -4.687  -7.918   2.899  0.00  0.00    -0.142 N 
ATOM     15  C   UNL     1      -5.493  -8.986   3.200  0.00  0.00    +0.168 C 
ATOM     16  N   UNL     1      -5.049 -10.231   3.359  0.00  0.00    -0.156 NA
ATOM     17  C   UNL     1      -3.732 -10.487   3.281  0.00  0.00    +0.273 C 
ATOM     18  O   UNL     1      -3.321 -11.637   3.292  0.00  0.00    -0.268 OA
ATOM     19  C   UNL     1      -6.797  -8.482   3.309  0.00  0.00    +0.091 C 
ATOM     20  C   UNL     1      -6.753  -7.144   3.135  0.00  0.00    +0.134 C 
ATOM     21  O   UNL     1      -5.481  -6.763   2.928  0.00  0.00    -0.375 OA
ATOM     22  C   UNL     1      -7.944  -6.221   3.168  0.00  0.00    +0.089 C 
ATOM     23  H   UNL     1      -1.714  -7.446   1.685  0.00  0.00    +0.188 HD
ENDBRANCH   3  10
BRANCH   1  24
ATOM     24  C   UNL     1      -0.058  -4.736   4.054  0.00  0.00    +0.163 C 
BRANCH  24  25
ATOM     25  C   UNL     1      -0.114  -4.040   2.693  0.00  0.00    +0.250 C 
BRANCH  25  26
ATOM     26  O   UNL     1      -0.175  -2.625   2.882  0.00  0.00    -0.490 OA
BRANCH  26  32
ATOM     27  C   UNL     1      -0.414   1.809   0.857  0.00  0.00    +0.044 C 
ATOM     28  C   UNL     1      -0.348   0.308   0.738  0.00  0.00    -0.047 A 
ATOM     29  C   UNL     1      -0.343  -0.286  -0.511  0.00  0.00    +0.003 A 
ATOM     30  C   UNL     1      -0.282  -1.662  -0.624  0.00  0.00    +0.004 A 
ATOM     31  C   UNL     1      -0.226  -2.448   0.511  0.00  0.00    +0.045 A 
ATOM     32  C   UNL     1      -0.230  -1.855   1.764  0.00  0.00    +0.121 A 
ATOM     33  C   UNL     1      -0.286  -0.473   1.875  0.00  0.00    +0.049 A 
ENDBRANCH  26  32
ENDBRANCH  25  26
ENDBRANCH  24  25
ENDBRANCH   1  24
TORSDOF 5
