REMARK  Name = ZINC11854537
REMARK  5 active torsions:
REMARK  status: ('A' for Active; 'I' for Inactive)
REMARK    1  A    between atoms: C_1  and  C_2
REMARK    2  A    between atoms: C_2  and  C_3
REMARK    3  A    between atoms: C_11  and  N_20
REMARK    4  A    between atoms: C_13  and  C_15
REMARK    5  A    between atoms: C_21  and  C_23
REMARK                            x       y       z     vdW  Elec       q    Type
REMARK                         _______ _______ _______ _____ _____    ______ ____
ROOT
ATOM      1  C   UNL     1       6.794   3.430  -0.066  0.00  0.00    +0.024 A 
ATOM      2  C   UNL     1       8.069   3.916  -0.081  0.00  0.00    +0.093 A 
ATOM      3  C   UNL     1       9.142   3.005  -0.095  0.00  0.00    +0.275 A 
ATOM      4  O   UNL     1      10.295   3.403  -0.109  0.00  0.00    -0.266 OA
ATOM      5  N   UNL     1       8.870   1.683  -0.088  0.00  0.00    -0.173 NA
ATOM      6  C   UNL     1       7.578   1.259  -0.078  0.00  0.00    +0.234 A 
ATOM      7  N   UNL     1       6.580   2.116  -0.065  0.00  0.00    -0.328 N 
ATOM      8  N   UNL     1       7.309  -0.096  -0.076  0.00  0.00    -0.185 N 
ATOM      9  C   UNL     1       6.068  -0.668  -0.062  0.00  0.00    +0.132 A 
ATOM     10  C   UNL     1       6.236  -2.015  -0.072  0.00  0.00    +0.074 A 
ATOM     11  C   UNL     1       7.622  -2.277  -0.087  0.00  0.00    +0.102 A 
ATOM     12  N   UNL     1       8.259  -1.124  -0.086  0.00  0.00    -0.162 NA
ATOM     13  H   UNL     1       5.551   1.726  -0.053  0.00  0.00    +0.169 HD
ENDROOT
BRANCH  11  14
ATOM     14  C   UNL     1       8.250  -3.615  -0.103  0.00  0.00    +0.039 A 
ATOM     15  C   UNL     1       9.579  -3.944  -0.118  0.00  0.00    +0.018 A 
ATOM     16  C   UNL     1       9.932  -5.276  -0.130  0.00  0.00    +0.008 A 
ATOM     17  C   UNL     1       8.956  -6.219  -0.126  0.00  0.00    +0.046 A 
ATOM     18  S   UNL     1       7.474  -5.223  -0.098  0.00  0.00    -0.095 S 
ENDBRANCH  11  14
BRANCH   9  19
ATOM     19  N   UNL     1       4.851   0.008  -0.046  0.00  0.00    -0.266 N 
ATOM     20  C   UNL     1       3.695  -0.684  -0.038  0.00  0.00    +0.249 C 
ATOM     21  O   UNL     1       3.715  -1.900  -0.046  0.00  0.00    -0.270 OA
ATOM     22  H   UNL     1       4.834   1.108  -0.039  0.00  0.00    +0.157 HD
BRANCH  20  23
ATOM     23  C   UNL     1       2.404   0.034  -0.021  0.00  0.00    +0.037 A 
ATOM     24  C   UNL     1       1.204  -0.681  -0.014  0.00  0.00    +0.013 A 
ATOM     25  C   UNL     1       0.002  -0.004   0.002  0.00  0.00    +0.001 A 
ATOM     26  C   UNL     1      -0.017   1.379   0.010  0.00  0.00    +0.000 A 
ATOM     27  C   UNL     1       1.168   2.094   0.002  0.00  0.00    +0.001 A 
ATOM     28  C   UNL     1       2.377   1.429  -0.013  0.00  0.00    +0.013 A 
ENDBRANCH  20  23
ENDBRANCH   9  19
BRANCH   1  30
ATOM     29  C   UNL     1       5.133   4.609  -1.481  0.00  0.00    +0.010 C 
ATOM     30  C   UNL     1       5.626   4.383  -0.051  0.00  0.00    +0.050 C 
ENDBRANCH   1  30
TORSDOF 4
