REMARK  Name = ZINC45896306
REMARK  7 active torsions:
REMARK  status: ('A' for Active; 'I' for Inactive)
REMARK    1  A    between atoms: C_1  and  C_2
REMARK    2  A    between atoms: C_2  and  C_3
REMARK    3  A    between atoms: C_3  and  N_4
REMARK    4  A    between atoms: C_13  and  O_14
REMARK    5  A    between atoms: C_15  and  N_16
REMARK    6  A    between atoms: N_19  and  C_20
REMARK    7  A    between atoms: C_24  and  C_26
REMARK                            x       y       z     vdW  Elec       q    Type
REMARK                         _______ _______ _______ _____ _____    ______ ____
ROOT
ATOM      1  N   UNL     1       1.864  -1.680  -2.161  0.00  0.00    -0.382 N 
ATOM      2  C   UNL     1       0.890  -2.464  -2.576  0.00  0.00    +0.075 A 
ATOM      3  C   UNL     1       0.998  -3.938  -2.491  0.00  0.00    +0.042 A 
ATOM      4  C   UNL     1       2.132  -4.552  -1.968  0.00  0.00    +0.013 A 
ATOM      5  C   UNL     1       2.193  -5.928  -1.905  0.00  0.00    +0.001 A 
ATOM      6  C   UNL     1       1.131  -6.696  -2.360  0.00  0.00    +0.004 A 
ATOM      7  C   UNL     1       0.003  -6.097  -2.880  0.00  0.00    +0.047 A 
ATOM      8  C   UNL     1      -0.077  -4.712  -2.951  0.00  0.00    +0.141 A 
ATOM      9  O   UNL     1      -1.174  -4.107  -3.455  0.00  0.00    -0.424 OA
ATOM     10  C   UNL     1      -1.287  -2.772  -3.539  0.00  0.00    +0.309 A 
ATOM     11  C   UNL     1      -0.313  -1.928  -3.121  0.00  0.00    +0.140 A 
ATOM     12  H   UNL     1       2.618  -2.057  -1.680  0.00  0.00    +0.160 HD
ENDROOT
BRANCH  11  13
ATOM     13  N   UNL     1      -0.486  -0.533  -3.227  0.00  0.00    -0.262 N 
ATOM     14  C   UNL     1      -0.703   0.206  -2.121  0.00  0.00    +0.308 C 
ATOM     15  O   UNL     1      -0.823  -0.339  -1.040  0.00  0.00    -0.252 OA
ATOM     16  N   UNL     1      -0.786   1.548  -2.212  0.00  0.00    -0.269 N 
ATOM     17  H   UNL     1      -0.449  -0.105  -4.097  0.00  0.00    +0.157 HD
ATOM     18  H   UNL     1      -0.756   1.978  -3.082  0.00  0.00    +0.156 HD
BRANCH  16  19
ATOM     19  C   UNL     1      -0.917   2.321  -1.053  0.00  0.00    +0.035 A 
ATOM     20  C   UNL     1      -0.304   3.565  -0.974  0.00  0.00    +0.024 A 
ATOM     21  C   UNL     1      -0.434   4.326   0.171  0.00  0.00    +0.017 A 
ATOM     22  C   UNL     1      -1.175   3.851   1.238  0.00  0.00    +0.021 A 
ATOM     23  C   UNL     1      -1.787   2.612   1.162  0.00  0.00    -0.035 A 
ATOM     24  C   UNL     1      -1.665   1.850   0.017  0.00  0.00    +0.027 A 
ATOM     25  C   UNL     1      -2.593   2.098   2.327  0.00  0.00    +0.045 C 
ATOM     26 BR   UNL     1      -1.352   4.896   2.805  0.00  0.00    -0.050 Br
ENDBRANCH  16  19
ENDBRANCH  11  13
BRANCH  10  27
ATOM     27  O   UNL     1      -2.422  -2.248  -4.057  0.00  0.00    -0.479 OA
ATOM     28  H   UNL     1      -3.072  -2.909  -4.330  0.00  0.00    +0.295 HD
ENDBRANCH  10  27
BRANCH   1  29
ATOM     29  C   UNL     1       1.808  -0.240  -2.425  0.00  0.00    +0.112 C 
BRANCH  29  31
ATOM     30  C   UNL     1       3.165   1.844  -2.663  0.00  0.00    +0.005 C 
ATOM     31  C   UNL     1       3.223   0.340  -2.388  0.00  0.00    +0.017 C 
ENDBRANCH  29  31
ENDBRANCH   1  29
TORSDOF 5
