REMARK  Name = ZINC39468796
REMARK  4 active torsions:
REMARK  status: ('A' for Active; 'I' for Inactive)
REMARK    1  A    between atoms: C_4  and  O_33
REMARK    2  A    between atoms: C_5  and  C_7
REMARK    3  A    between atoms: C_24  and  C_25
REMARK    4  A    between atoms: C_30  and  O_31
REMARK                            x       y       z     vdW  Elec       q    Type
REMARK                         _______ _______ _______ _____ _____    ______ ____
ROOT
ATOM      1  C   UNL     1       1.245  -2.165  -0.022  0.00  0.00    -0.011 C 
ATOM      2  C   UNL     1       1.552  -2.831  -1.149  0.00  0.00    -0.014 C 
ATOM      3  C   UNL     1       1.580  -4.334  -1.117  0.00  0.00    +0.016 C 
ATOM      4  C   UNL     1       2.448  -4.901  -2.236  0.00  0.00    -0.003 C 
ATOM      5  C   UNL     1       2.474  -6.433  -2.138  0.00  0.00    -0.020 C 
ATOM      6  C   UNL     1       3.376  -6.946  -3.268  0.00  0.00    +0.159 C 
ATOM      7  O   UNL     1       3.363  -8.385  -3.272  0.00  0.00    -0.297 OA
ATOM      8  P   UNL     1       3.643  -9.148  -1.863  0.00  0.00    +0.421 P 
ATOM      9  O   UNL     1       5.160  -9.202  -1.575  0.00  0.00    -0.239 OA
ATOM     10  N   UNL     1       2.875  -8.240  -0.718  0.00  0.00    -0.267 NA
ATOM     11  N   UNL     1       2.977  -6.869  -0.836  0.00  0.00    +0.399 N 
ATOM     12  C   UNL     1       2.168  -6.316   0.265  0.00  0.00    -0.046 C 
ATOM     13  C   UNL     1       2.174  -4.794   0.220  0.00  0.00    +0.005 C 
ATOM     14  C   UNL     1       1.379  -4.188   1.343  0.00  0.00    -0.016 C 
ATOM     15  C   UNL     1       0.938  -2.926   1.216  0.00  0.00    -0.011 C 
ATOM     16  O   UNL     1       3.055 -10.576  -1.901  0.00  0.00    -0.128 OA
ATOM     17  H   UNL     1       2.384  -8.657   0.007  0.00  0.00    +0.113 HD
ATOM     18  H   UNL     1       3.937  -6.578  -0.731  0.00  0.00    -0.055 HD
ENDROOT
BRANCH   1  23
ATOM     19  C   UNL     1      -0.017   1.376   0.010  0.00  0.00    +0.001 A 
ATOM     20  C   UNL     1       1.169   2.089   0.002  0.00  0.00    +0.004 A 
ATOM     21  C   UNL     1       2.382   1.426  -0.013  0.00  0.00    +0.046 A 
ATOM     22  C   UNL     1       2.416   0.041  -0.021  0.00  0.00    +0.125 A 
ATOM     23  C   UNL     1       1.219  -0.683  -0.013  0.00  0.00    +0.024 A 
ATOM     24  C   UNL     1       0.002  -0.004   0.002  0.00  0.00    +0.012 A 
BRANCH  22  25
ATOM     25  O   UNL     1       3.607  -0.612  -0.036  0.00  0.00    -0.506 OA
ATOM     26  H   UNL     1       3.961  -0.805   0.843  0.00  0.00    +0.292 HD
ENDBRANCH  22  25
ENDBRANCH   1  23
BRANCH  15  27
ATOM     27  C   UNL     1       0.147  -2.301   2.301  0.00  0.00    +0.024 A 
ATOM     28  C   UNL     1       0.729  -1.343   3.130  0.00  0.00    +0.012 A 
ATOM     29  C   UNL     1      -0.012  -0.763   4.139  0.00  0.00    +0.001 A 
ATOM     30  C   UNL     1      -1.333  -1.130   4.333  0.00  0.00    +0.004 A 
ATOM     31  C   UNL     1      -1.920  -2.079   3.518  0.00  0.00    +0.046 A 
ATOM     32  C   UNL     1      -1.190  -2.664   2.496  0.00  0.00    +0.125 A 
BRANCH  32  33
ATOM     33  O   UNL     1      -1.768  -3.593   1.690  0.00  0.00    -0.506 OA
ATOM     34  H   UNL     1      -1.680  -4.501   2.011  0.00  0.00    +0.292 HD
ENDBRANCH  32  33
ENDBRANCH  15  27
TORSDOF 4
