REMARK  Name = ZINC19526387
REMARK  10 active torsions:
REMARK  status: ('A' for Active; 'I' for Inactive)
REMARK    1  A    between atoms: C_1  and  C_2
REMARK    2  A    between atoms: C_2  and  N_3
REMARK    3  A    between atoms: N_3  and  C_4
REMARK    4  A    between atoms: N_3  and  C_6
REMARK    5  A    between atoms: C_4  and  C_5
REMARK    6  A    between atoms: C_6  and  C_7
REMARK    7  A    between atoms: C_7  and  N_8
REMARK    8  A    between atoms: C_18  and  C_34
REMARK    9  A    between atoms: C_26  and  C_28
REMARK   10  A    between atoms: C_31  and  C_33
REMARK                            x       y       z     vdW  Elec       q    Type
REMARK                         _______ _______ _______ _____ _____    ______ ____
ROOT
ATOM      1  N   UNL     1      -3.110   7.107  -0.944  0.00  0.00    -0.272 N 
ATOM      2  C   UNL     1      -3.662   5.933  -1.443  0.00  0.00    +0.048 A 
ATOM      3  C   UNL     1      -2.923   5.088  -2.256  0.00  0.00    +0.024 A 
ATOM      4  C   UNL     1      -3.507   3.952  -2.781  0.00  0.00    +0.002 A 
ATOM      5  C   UNL     1      -4.830   3.651  -2.497  0.00  0.00    +0.001 A 
ATOM      6  C   UNL     1      -5.572   4.475  -1.680  0.00  0.00    +0.015 A 
ATOM      7  C   UNL     1      -4.994   5.627  -1.136  0.00  0.00    +0.058 A 
ATOM      8  C   UNL     1      -5.770   6.490  -0.240  0.00  0.00    +0.246 C 
ATOM      9  O   UNL     1      -6.849   6.928  -0.593  0.00  0.00    -0.270 OA
ATOM     10  N   UNL     1      -5.365   6.761   1.010  0.00  0.00    -0.304 N 
ATOM     11  C   UNL     1      -4.423   5.959   1.767  0.00  0.00    +0.060 C 
ATOM     12  C   UNL     1      -4.623   4.464   1.465  0.00  0.00    +0.134 C 
ATOM     13  N   UNL     1      -3.365   3.913   0.941  0.00  0.00    -0.298 N 
ATOM     14  C   UNL     1      -2.323   4.952   0.976  0.00  0.00    +0.122 C 
ATOM     15  C   UNL     1      -2.963   6.268   1.423  0.00  0.00    +0.117 C 
ATOM     16  C   UNL     1      -2.856   7.315   0.355  0.00  0.00    +0.226 C 
ATOM     17  O   UNL     1      -2.515   8.435   0.697  0.00  0.00    -0.275 OA
ATOM     18  C   UNL     1      -3.186   2.634   0.503  0.00  0.00    +0.219 C 
ATOM     19  O   UNL     1      -4.111   1.849   0.528  0.00  0.00    -0.275 OA
ATOM     20  C   UNL     1      -4.644   6.208   3.267  0.00  0.00    +0.034 C 
ATOM     21  H   UNL     1      -5.803   7.665   1.459  0.00  0.00    +0.150 HD
ENDROOT
BRANCH  18  22
ATOM     22  C   UNL     1      -1.839   2.195  -0.011  0.00  0.00    +0.078 C 
ATOM     23  C   UNL     1      -1.057   1.182   0.830  0.00  0.00    +0.017 C 
ATOM     24  C   UNL     1      -1.702   0.747  -0.488  0.00  0.00    -0.002 C 
ATOM     25  C   UNL     1      -0.774   0.479  -1.674  0.00  0.00    +0.008 C 
ENDBRANCH  18  22
BRANCH   1  26
ATOM     26  C   UNL     1      -2.786   8.185  -1.896  0.00  0.00    +0.095 C 
BRANCH  26  27
ATOM     27  C   UNL     1      -1.351   8.010  -2.397  0.00  0.00    -0.059 C 
BRANCH  27  28
ATOM     28  N   UNL     1      -1.029   9.084  -3.346  0.00  0.00    +0.380 N 
ATOM     29  H   UNL     1      -1.820   9.108  -4.109  0.00  0.00    -0.082 HD
BRANCH  28  31
ATOM     30  C   UNL     1       0.069  10.389  -1.589  0.00  0.00    -0.017 C 
ATOM     31  C   UNL     1      -1.008  10.391  -2.675  0.00  0.00    -0.082 C 
ENDBRANCH  28  31
BRANCH  28  32
ATOM     32  C   UNL     1       0.246   8.820  -4.026  0.00  0.00    -0.082 C 
ATOM     33  C   UNL     1       0.363   9.720  -5.258  0.00  0.00    -0.017 C 
ENDBRANCH  28  32
ENDBRANCH  27  28
ENDBRANCH  26  27
ENDBRANCH   1  26
TORSDOF 6
