REMARK  Name = ZINC49474066
REMARK  3 active torsions:
REMARK  status: ('A' for Active; 'I' for Inactive)
REMARK    1  A    between atoms: C_1  and  C_2
REMARK    2  A    between atoms: C_7  and  C_8
REMARK    3  A    between atoms: C_7  and  C_9
REMARK                            x       y       z     vdW  Elec       q    Type
REMARK                         _______ _______ _______ _____ _____    ______ ____
ROOT
ATOM      1  C   UNL     1      -0.019   1.526   0.010  0.00  0.00    +0.018 C 
ATOM      2  C   UNL     1       0.002  -0.004   0.002  0.00  0.00    +0.014 C 
ATOM      3  C   UNL     1      -1.388  -0.715   0.061  0.00  0.00    +0.014 C 
ATOM      4  C   UNL     1      -1.047  -2.163   0.487  0.00  0.00    +0.010 C 
ATOM      5  C   UNL     1       0.508  -2.155   0.634  0.00  0.00    +0.033 C 
ATOM      6  C   UNL     1       0.727  -0.706   1.210  0.00  0.00    -0.017 C 
ATOM      7  C   UNL     1       2.202  -0.316   1.313  0.00  0.00    +0.012 C 
ATOM      8  C   UNL     1      -0.015  -0.505   2.532  0.00  0.00    +0.012 C 
ATOM      9  C   UNL     1       1.020  -1.972  -0.795  0.00  0.00    +0.040 A 
ATOM     10  C   UNL     1       0.736  -0.665  -1.165  0.00  0.00    +0.033 A 
ATOM     11  N   UNL     1       1.091  -0.213  -2.400  0.00  0.00    -0.338 N 
ATOM     12  C   UNL     1       1.747  -1.021  -3.257  0.00  0.00    +0.158 A 
ATOM     13  N   UNL     1       2.066  -2.284  -2.917  0.00  0.00    -0.303 N 
ATOM     14  C   UNL     1       1.690  -2.835  -1.684  0.00  0.00    +0.256 A 
ATOM     15  O   UNL     1       1.965  -3.974  -1.350  0.00  0.00    -0.267 OA
ATOM     16  S   UNL     1       2.181  -0.430  -4.804  0.00  0.00    -0.013 S 
ATOM     17  H   UNL     1       2.538  -2.848  -3.549  0.00  0.00    +0.171 HD
ATOM     18  H   UNL     1       0.870   0.694  -2.664  0.00  0.00    +0.168 HD
ENDROOT
TORSDOF 0
