REMARK  Name = ZINC02254480
REMARK  8 active torsions:
REMARK  status: ('A' for Active; 'I' for Inactive)
REMARK    1  A    between atoms: C_1  and  C_2
REMARK    2  A    between atoms: C_2  and  C_3
REMARK    3  A    between atoms: C_2  and  C_4
REMARK    4  A    between atoms: C_12  and  N_28
REMARK    5  A    between atoms: C_14  and  S_16
REMARK    6  A    between atoms: S_16  and  C_17
REMARK    7  A    between atoms: C_17  and  C_18
REMARK    8  A    between atoms: N_20  and  C_21
REMARK                            x       y       z     vdW  Elec       q    Type
REMARK                         _______ _______ _______ _____ _____    ______ ____
ROOT
ATOM      1  C   UNL     1       2.077  -0.762  -0.348  0.00  0.00    +0.126 C 
ATOM      2  C   UNL     1       2.223   0.694   0.102  0.00  0.00    +0.068 C 
ATOM      3  C   UNL     1       0.836   1.332   0.108  0.00  0.00    -0.020 A 
ATOM      4  C   UNL     1      -0.260   0.537   0.106  0.00  0.00    +0.021 A 
ATOM      5  S   UNL     1      -1.642   1.648   0.121  0.00  0.00    -0.071 S 
ATOM      6  C   UNL     1      -0.755   3.173   0.122  0.00  0.00    +0.115 A 
ATOM      7  C   UNL     1       0.604   2.765   0.118  0.00  0.00    +0.051 A 
ATOM      8  C   UNL     1       1.587   3.798   0.123  0.00  0.00    +0.129 A 
ATOM      9  N   UNL     1       1.122   5.045   0.131  0.00  0.00    -0.207 NA
ATOM     10  C   UNL     1      -0.166   5.354   0.135  0.00  0.00    +0.191 A 
ATOM     11  N   UNL     1      -1.134   4.435   0.131  0.00  0.00    -0.214 NA
ATOM     12  C   UNL     1      -0.269  -0.959   0.099  0.00  0.00    +0.203 C 
ATOM     13  O   UNL     1       1.057  -1.413   0.415  0.00  0.00    -0.371 OA
ENDROOT
BRANCH   1  15
ATOM     14  C   UNL     1       3.267  -2.943  -0.609  0.00  0.00    +0.010 C 
ATOM     15  C   UNL     1       3.406  -1.492  -0.145  0.00  0.00    +0.012 C 
ATOM     16  C   UNL     1       4.499  -0.798  -0.960  0.00  0.00    +0.010 C 
ENDBRANCH   1  15
BRANCH   8  17
ATOM     17  N   UNL     1       2.942   3.520   0.120  0.00  0.00    -0.343 N 
ATOM     18  H   UNL     1       3.249   2.603   0.195  0.00  0.00    +0.144 HD
ATOM     19  H   UNL     1       3.584   4.242   0.044  0.00  0.00    +0.144 HD
ENDBRANCH   8  17
BRANCH  10  20
ATOM     20  S   UNL     1      -0.622   7.056   0.146  0.00  0.00    -0.077 S 
BRANCH  20  21
ATOM     21  C   UNL     1       1.019   7.821   0.149  0.00  0.00    +0.173 C 
BRANCH  21  22
ATOM     22  C   UNL     1       0.873   9.321   0.158  0.00  0.00    +0.227 C 
ATOM     23  O   UNL     1      -0.231   9.823   0.162  0.00  0.00    -0.275 OA
ATOM     24  N   UNL     1       1.970  10.104   0.161  0.00  0.00    -0.285 N 
ATOM     25  H   UNL     1       2.851   9.706   0.077  0.00  0.00    +0.155 HD
BRANCH  24  26
ATOM     26  C   UNL     1       1.839  11.492   0.286  0.00  0.00    +0.033 A 
ATOM     27  C   UNL     1       2.720  12.336  -0.376  0.00  0.00    +0.025 A 
ATOM     28  C   UNL     1       2.585  13.706  -0.255  0.00  0.00    +0.022 A 
ATOM     29  C   UNL     1       1.579  14.236   0.533  0.00  0.00    +0.041 A 
ATOM     30  C   UNL     1       0.702  13.397   1.197  0.00  0.00    +0.022 A 
ATOM     31  C   UNL     1       0.830  12.027   1.076  0.00  0.00    +0.025 A 
ATOM     32 CL   UNL     1       1.416  15.957   0.687  0.00  0.00    -0.084 Cl
ENDBRANCH  24  26
ENDBRANCH  21  22
ENDBRANCH  20  21
ENDBRANCH  10  20
TORSDOF 6
