REMARK  Name = ZINC08862485
REMARK  9 active torsions:
REMARK  status: ('A' for Active; 'I' for Inactive)
REMARK    1  A    between atoms: C_1  and  C_2
REMARK    2  A    between atoms: C_2  and  C_3
REMARK    3  A    between atoms: C_10  and  C_12
REMARK    4  A    between atoms: C_15  and  S_18
REMARK    5  A    between atoms: N_16  and  C_17
REMARK    6  A    between atoms: S_18  and  C_19
REMARK    7  A    between atoms: C_19  and  C_20
REMARK    8  A    between atoms: N_22  and  C_23
REMARK    9  A    between atoms: C_24  and  C_28
REMARK                            x       y       z     vdW  Elec       q    Type
REMARK                         _______ _______ _______ _____ _____    ______ ____
ROOT
ATOM      1  C   UNL     1      -2.950   8.036   0.061  0.00  0.00    +0.171 A 
ATOM      2  N   UNL     1      -1.666   7.753   0.053  0.00  0.00    -0.128 NA
ATOM      3  N   UNL     1      -1.498   6.479   0.050  0.00  0.00    -0.122 NA
ATOM      4  C   UNL     1      -2.662   5.869   0.047  0.00  0.00    +0.192 A 
ATOM      5  N   UNL     1      -3.627   6.837   0.056  0.00  0.00    -0.305 N 
ATOM      6  C   UNL     1      -5.079   6.639   0.061  0.00  0.00    +0.153 C 
ENDROOT
BRANCH   1  13
ATOM      7  C   UNL     1      -4.298  14.086   0.915  0.00  0.00    -0.007 C 
ATOM      8  C   UNL     1      -5.338  14.041  -0.208  0.00  0.00    +0.009 C 
ATOM      9  C   UNL     1      -6.064  12.689  -0.153  0.00  0.00    +0.043 C 
ATOM     10  C   UNL     1      -5.037  11.609  -0.029  0.00  0.00    -0.006 A 
ATOM     11  C   UNL     1      -3.722  11.748   0.303  0.00  0.00    -0.036 A 
ATOM     12  C   UNL     1      -2.965  10.585   0.356  0.00  0.00    +0.023 A 
ATOM     13  C   UNL     1      -3.550   9.380   0.071  0.00  0.00    +0.057 A 
ATOM     14  S   UNL     1      -5.234   9.865  -0.277  0.00  0.00    -0.090 S 
ATOM     15  C   UNL     1      -3.147  13.130   0.602  0.00  0.00    +0.039 C 
BRANCH   7  17
ATOM     16  C   UNL     1      -2.819  15.589   2.256  0.00  0.00    +0.004 C 
ATOM     17  C   UNL     1      -3.754  15.510   1.047  0.00  0.00    +0.000 C 
ENDBRANCH   7  17
ENDBRANCH   1  13
BRANCH   4  18
ATOM     18  S   UNL     1      -2.928   4.127   0.038  0.00  0.00    -0.077 S 
BRANCH  18  19
ATOM     19  C   UNL     1      -1.213   3.547   0.027  0.00  0.00    +0.173 C 
BRANCH  19  20
ATOM     20  C   UNL     1      -1.193   2.040   0.019  0.00  0.00    +0.228 C 
ATOM     21  O   UNL     1      -2.235   1.420   0.020  0.00  0.00    -0.275 OA
ATOM     22  N   UNL     1      -0.017   1.382   0.010  0.00  0.00    -0.279 N 
ATOM     23  H   UNL     1       0.817   1.879   0.004  0.00  0.00    +0.155 HD
BRANCH  22  24
ATOM     24  C   UNL     1       0.002  -0.004   0.002  0.00  0.00    +0.084 A 
ATOM     25  C   UNL     1       1.103  -0.853  -0.019  0.00  0.00    +0.065 A 
ATOM     26  C   UNL     1       0.830  -2.270  -0.018  0.00  0.00    +0.022 A 
ATOM     27  C   UNL     1      -0.461  -2.647  -0.008  0.00  0.00    +0.048 A 
ATOM     28  S   UNL     1      -1.340  -1.098   0.008  0.00  0.00    -0.081 S 
BRANCH  25  29
ATOM     29  C   UNL     1       2.474  -0.333  -0.037  0.00  0.00    +0.244 C 
ATOM     30  O   UNL     1       2.670   0.868  -0.034  0.00  0.00    -0.270 OA
ATOM     31  N   UNL     1       3.517  -1.186  -0.057  0.00  0.00    -0.325 N 
ATOM     32  H   UNL     1       3.361  -2.143  -0.059  0.00  0.00    +0.145 HD
ATOM     33  H   UNL     1       4.424  -0.843  -0.068  0.00  0.00    +0.145 HD
ENDBRANCH  25  29
ENDBRANCH  22  24
ENDBRANCH  19  20
ENDBRANCH  18  19
ENDBRANCH   4  18
TORSDOF 7
