REMARK  Name = ZINC23154768
REMARK  4 active torsions:
REMARK  status: ('A' for Active; 'I' for Inactive)
REMARK    1  A    between atoms: C_3  and  N_22
REMARK    2  A    between atoms: C_6  and  C_7
REMARK    3  A    between atoms: N_9  and  N_10
REMARK    4  A    between atoms: C_11  and  C_13
REMARK                            x       y       z     vdW  Elec       q    Type
REMARK                         _______ _______ _______ _____ _____    ______ ____
ROOT
ATOM      1  C   UNL     1      -1.266  -0.762   0.011  0.00  0.00    +0.260 C 
ATOM      2  O   UNL     1      -2.328  -0.170   0.024  0.00  0.00    -0.269 OA
ATOM      3  N   UNL     1      -1.246  -2.109   0.003  0.00  0.00    -0.230 N 
ATOM      4  H   UNL     1      -0.399  -2.582  -0.008  0.00  0.00    +0.173 HD
ENDROOT
BRANCH   1  10
ATOM      5  C   UNL     1      -0.017   1.393   0.010  0.00  0.00    +0.015 A 
ATOM      6  C   UNL     1       1.168   2.096   0.002  0.00  0.00    +0.028 A 
ATOM      7  C   UNL     1       2.381   1.417  -0.013  0.00  0.00    +0.069 A 
ATOM      8  C   UNL     1       2.404   0.027  -0.021  0.00  0.00    +0.028 A 
ATOM      9  C   UNL     1       1.223  -0.683  -0.014  0.00  0.00    +0.015 A 
ATOM     10  C   UNL     1       0.002  -0.004   0.002  0.00  0.00    +0.038 A 
BRANCH   7  11
ATOM     11  N   UNL     1       3.582   2.135  -0.022  0.00  0.00    -0.200 N 
ATOM     12  C   UNL     1       4.837   1.635  -0.043  0.00  0.00    +0.250 A 
ATOM     13  N   UNL     1       5.660   2.650  -0.044  0.00  0.00    -0.116 NA
ATOM     14  N   UNL     1       5.012   3.759  -0.025  0.00  0.00    -0.023 NA
ATOM     15  N   UNL     1       3.742   3.532  -0.017  0.00  0.00    -0.039 NA
ENDBRANCH   7  11
ENDBRANCH   1  10
BRANCH   3  16
ATOM     16  N   UNL     1      -2.448  -2.828   0.011  0.00  0.00    -0.230 N 
ATOM     17  C   UNL     1      -2.428  -4.175   0.004  0.00  0.00    +0.262 C 
ATOM     18  O   UNL     1      -1.366  -4.768  -0.010  0.00  0.00    -0.269 OA
ATOM     19  H   UNL     1      -3.295  -2.356   0.022  0.00  0.00    +0.173 HD
BRANCH  17  20
ATOM     20  C   UNL     1      -3.696  -4.933   0.012  0.00  0.00    +0.059 A 
ATOM     21  C   UNL     1      -4.917  -4.255   0.022  0.00  0.00    +0.055 A 
ATOM     22  C   UNL     1      -6.098  -4.968   0.030  0.00  0.00    +0.159 A 
ATOM     23  C   UNL     1      -6.074  -6.357   0.028  0.00  0.00    +0.160 A 
ATOM     24  C   UNL     1      -4.865  -7.033   0.018  0.00  0.00    +0.062 A 
ATOM     25  C   UNL     1      -3.678  -6.330   0.005  0.00  0.00    +0.056 A 
ATOM     26 CL   UNL     1      -2.164  -7.180  -0.015  0.00  0.00    -0.083 Cl
ATOM     27  F   UNL     1      -7.234  -7.050   0.036  0.00  0.00    -0.202 F 
ATOM     28  F   UNL     1      -7.281  -4.314   0.039  0.00  0.00    -0.202 F 
ENDBRANCH  17  20
ENDBRANCH   3  16
TORSDOF 4
