REMARK  Name = ZINC14994227
REMARK  9 active torsions:
REMARK  status: ('A' for Active; 'I' for Inactive)
REMARK    1  A    between atoms: C_1  and  C_2
REMARK    2  A    between atoms: C_2  and  C_29
REMARK    3  A    between atoms: C_3  and  C_4
REMARK    4  A    between atoms: C_4  and  N_62
REMARK    5  A    between atoms: C_7  and  C_10
REMARK    6  A    between atoms: C_10  and  C_21
REMARK    7  A    between atoms: N_13  and  C_17
REMARK    8  A    between atoms: C_17  and  C_18
REMARK    9  A    between atoms: C_21  and  C_22
REMARK                            x       y       z     vdW  Elec       q    Type
REMARK                         _______ _______ _______ _____ _____    ______ ____
ROOT
ATOM      1  C   UNL     1      -0.506   2.817  -0.993  0.00  0.00    +0.119 C 
ATOM      2  C   UNL     1      -2.004   2.851  -1.225  0.00  0.00    +0.247 C 
ATOM      3  O   UNL     1      -2.729   3.822  -1.189  0.00  0.00    -0.273 OA
ATOM      4  N   UNL     1      -2.361   1.578  -1.488  0.00  0.00    -0.224 N 
ATOM      5  C   UNL     1      -1.309   0.752  -1.444  0.00  0.00    +0.309 C 
ATOM      6  O   UNL     1      -1.381  -0.445  -1.643  0.00  0.00    -0.252 OA
ATOM      7  N   UNL     1      -0.162   1.395  -1.161  0.00  0.00    -0.284 N 
ATOM      8  H   UNL     1       0.720   0.999  -1.082  0.00  0.00    +0.151 HD
ENDROOT
BRANCH   1  11
ATOM      9  C   UNL     1       0.412   4.204  -4.464  0.00  0.00    -0.078 C 
ATOM     10  C   UNL     1      -0.272   3.302  -3.434  0.00  0.00    -0.013 C 
ATOM     11  C   UNL     1       0.219   3.673  -2.032  0.00  0.00    +0.018 C 
ATOM     12  C   UNL     1      -0.073   5.153  -1.771  0.00  0.00    -0.013 C 
ATOM     13  C   UNL     1       0.604   6.001  -2.850  0.00  0.00    -0.078 C 
ATOM     14  N   UNL     1       0.070   5.612  -4.173  0.00  0.00    +0.382 N 
ATOM     15  H   UNL     1      -0.952   5.711  -4.161  0.00  0.00    -0.081 HD
BRANCH  14  16
ATOM     16  C   UNL     1       0.625   6.494  -5.220  0.00  0.00    -0.051 C 
BRANCH  16  19
ATOM     17  C   UNL     1       2.869   8.198  -5.325  0.00  0.00    +0.038 C 
ATOM     18  C   UNL     1       1.562   8.702  -4.768  0.00  0.00    -0.081 C 
ATOM     19  C   UNL     1       0.505   7.928  -4.773  0.00  0.00    -0.047 C 
ATOM     20  C   UNL     1       1.471  10.097  -4.204  0.00  0.00    +0.038 C 
ENDBRANCH  16  19
ENDBRANCH  14  16
ENDBRANCH   1  11
BRANCH   4  21
ATOM     21  C   UNL     1      -3.731   1.151  -1.780  0.00  0.00    +0.121 C 
BRANCH  21  22
ATOM     22  C   UNL     1      -4.440   0.782  -0.476  0.00  0.00    +0.007 C 
ATOM     23  C   UNL     1      -4.884  -0.671  -0.300  0.00  0.00    +0.005 C 
ATOM     24  C   UNL     1      -5.925   0.421  -0.556  0.00  0.00    +0.005 C 
ENDBRANCH  21  22
ENDBRANCH   4  21
BRANCH   1  25
ATOM     25  C   UNL     1      -0.168   3.289   0.423  0.00  0.00    +0.072 C 
BRANCH  25  26
ATOM     26  C   UNL     1      -0.838   2.387   1.427  0.00  0.00    -0.027 A 
ATOM     27  C   UNL     1      -2.062   2.740   1.964  0.00  0.00    +0.005 A 
ATOM     28  C   UNL     1      -2.679   1.911   2.882  0.00  0.00    +0.000 A 
ATOM     29  C   UNL     1      -2.067   0.733   3.271  0.00  0.00    +0.001 A 
ATOM     30  C   UNL     1      -0.841   0.383   2.739  0.00  0.00    +0.020 A 
ATOM     31  C   UNL     1      -0.225   1.210   1.816  0.00  0.00    +0.044 A 
ATOM     32 CL   UNL     1       1.316   0.770   1.148  0.00  0.00    -0.083 Cl
ENDBRANCH  25  26
ENDBRANCH   1  25
TORSDOF 7
