REMARK  Name = ZINC62048840
REMARK  12 active torsions:
REMARK  status: ('A' for Active; 'I' for Inactive)
REMARK    1  A    between atoms: C_1  and  C_2
REMARK    2  A    between atoms: C_5  and  C_9
REMARK    3  A    between atoms: C_6  and  C_8
REMARK    4  A    between atoms: C_14  and  N_18
REMARK    5  A    between atoms: N_18  and  C_19
REMARK    6  A    between atoms: C_19  and  C_20
REMARK    7  A    between atoms: C_20  and  C_22
REMARK    8  A    between atoms: C_20  and  N_30
REMARK    9  A    between atoms: C_25  and  O_28
REMARK   10  A    between atoms: O_28  and  C_29
REMARK   11  A    between atoms: N_30  and  C_31
REMARK   12  A    between atoms: N_30  and  C_32
REMARK                            x       y       z     vdW  Elec       q    Type
REMARK                         _______ _______ _______ _____ _____    ______ ____
ROOT
ATOM      1  C   UNL     1       0.368  -4.106   0.363  0.00  0.00    +0.002 A 
ATOM      2  C   UNL     1       1.462  -4.740  -0.119  0.00  0.00    +0.056 A 
ATOM      3  S   UNL     1       0.995  -6.460  -0.089  0.00  0.00    -0.076 S 
ATOM      4  C   UNL     1      -0.645  -6.293   0.565  0.00  0.00    +0.114 A 
ATOM      5  C   UNL     1      -0.791  -4.903   0.751  0.00  0.00    +0.055 A 
ATOM      6  C   UNL     1      -2.042  -4.487   1.280  0.00  0.00    +0.131 A 
ATOM      7  N   UNL     1      -2.960  -5.397   1.562  0.00  0.00    -0.220 NA
ATOM      8  C   UNL     1      -2.753  -6.687   1.367  0.00  0.00    +0.224 A 
ATOM      9  N   UNL     1      -1.616  -7.133   0.869  0.00  0.00    -0.228 NA
ENDROOT
BRANCH   1  14
ATOM     10  C   UNL     1       0.295   1.626   0.898  0.00  0.00    +0.044 C 
ATOM     11  C   UNL     1       0.314   0.126   0.758  0.00  0.00    -0.050 A 
ATOM     12  C   UNL     1       0.205  -0.451  -0.495  0.00  0.00    +0.004 A 
ATOM     13  C   UNL     1       0.222  -1.823  -0.629  0.00  0.00    +0.009 A 
ATOM     14  C   UNL     1       0.349  -2.631   0.501  0.00  0.00    -0.014 A 
ATOM     15  C   UNL     1       0.460  -2.044   1.761  0.00  0.00    -0.042 A 
ATOM     16  C   UNL     1       0.446  -0.669   1.882  0.00  0.00    +0.007 A 
ATOM     17  C   UNL     1       0.598  -2.909   2.987  0.00  0.00    +0.044 C 
ENDBRANCH   1  14
BRANCH   6  18
ATOM     18  N   UNL     1      -2.297  -3.144   1.500  0.00  0.00    -0.330 N 
ATOM     19  H   UNL     1      -1.656  -2.476   1.211  0.00  0.00    +0.147 HD
BRANCH  18  20
ATOM     20  C   UNL     1      -3.534  -2.734   2.167  0.00  0.00    +0.092 C 
BRANCH  20  21
ATOM     21  C   UNL     1      -3.668  -1.211   2.102  0.00  0.00    -0.021 C 
BRANCH  21  22
ATOM     22  C   UNL     1      -3.893  -0.788   0.673  0.00  0.00    -0.059 A 
ATOM     23  C   UNL     1      -2.844  -0.806  -0.226  0.00  0.00    +0.005 A 
ATOM     24  C   UNL     1      -3.048  -0.419  -1.536  0.00  0.00    +0.046 A 
ATOM     25  C   UNL     1      -4.308  -0.010  -1.949  0.00  0.00    +0.120 A 
ATOM     26  C   UNL     1      -5.359   0.007  -1.045  0.00  0.00    +0.046 A 
ATOM     27  C   UNL     1      -5.151  -0.387   0.263  0.00  0.00    +0.005 A 
BRANCH  25  28
ATOM     28  O   UNL     1      -4.511   0.372  -3.237  0.00  0.00    -0.495 OA
ATOM     29  C   UNL     1      -5.834   0.780  -3.592  0.00  0.00    +0.277 C 
ENDBRANCH  25  28
ENDBRANCH  21  22
BRANCH  21  30
ATOM     30  N   UNL     1      -2.437  -0.589   2.608  0.00  0.00    +0.382 N 
ATOM     31  C   UNL     1      -2.592   0.872   2.613  0.00  0.00    -0.096 C 
ATOM     32  C   UNL     1      -2.178  -1.058   3.976  0.00  0.00    -0.096 C 
ATOM     33  H   UNL     1      -1.662  -0.843   2.013  0.00  0.00    -0.082 HD
ENDBRANCH  21  30
ENDBRANCH  20  21
ENDBRANCH  18  20
ENDBRANCH   6  18
TORSDOF 7
