REMARK  Name = ZINC20876941
REMARK  8 active torsions:
REMARK  status: ('A' for Active; 'I' for Inactive)
REMARK    1  A    between atoms: C_1  and  O_2
REMARK    2  A    between atoms: O_2  and  C_3
REMARK    3  A    between atoms: C_5  and  C_22
REMARK    4  A    between atoms: C_8  and  O_9
REMARK    5  A    between atoms: O_9  and  C_10
REMARK    6  A    between atoms: C_10  and  C_11
REMARK    7  A    between atoms: C_22  and  N_23
REMARK    8  A    between atoms: N_23  and  C_24
REMARK                            x       y       z     vdW  Elec       q    Type
REMARK                         _______ _______ _______ _____ _____    ______ ____
ROOT
ATOM      1  C   UNL     1       6.471  -0.896  -1.704  0.00  0.00    +0.163 A 
ATOM      2  C   UNL     1       7.664  -1.575  -1.899  0.00  0.00    +0.051 A 
ATOM      3  C   UNL     1       7.666  -2.954  -1.997  0.00  0.00    -0.060 A 
ATOM      4  C   UNL     1       6.481  -3.659  -1.897  0.00  0.00    +0.021 A 
ATOM      5  C   UNL     1       5.288  -2.988  -1.696  0.00  0.00    +0.063 A 
ATOM      6  C   UNL     1       5.280  -1.605  -1.597  0.00  0.00    +0.176 A 
ATOM      7 BR   UNL     1       3.670  -3.956  -1.558  0.00  0.00    -0.046 Br
ENDROOT
BRANCH   1   9
ATOM      8  C   UNL     1       7.728   1.123  -1.731  0.00  0.00    +0.277 C 
ATOM      9  O   UNL     1       6.468   0.461  -1.612  0.00  0.00    -0.491 OA
ENDBRANCH   1   9
BRANCH   6  10
ATOM     10  O   UNL     1       4.108  -0.943  -1.400  0.00  0.00    -0.483 OA
BRANCH  10  11
ATOM     11  C   UNL     1       3.709  -0.717  -0.047  0.00  0.00    +0.265 C 
BRANCH  11  12
ATOM     12  C   UNL     1       2.397   0.024  -0.026  0.00  0.00    -0.007 A 
ATOM     13  C   UNL     1       1.207  -0.680  -0.016  0.00  0.00    +0.011 A 
ATOM     14  C   UNL     1       0.002  -0.004   0.002  0.00  0.00    +0.050 A 
ATOM     15  C   UNL     1      -0.017   1.383   0.010  0.00  0.00    +0.162 A 
ATOM     16  C   UNL     1       1.179   2.090   0.002  0.00  0.00    +0.162 A 
ATOM     17  C   UNL     1       2.386   1.406  -0.017  0.00  0.00    +0.056 A 
ATOM     18  O   UNL     1       1.184   3.451   0.018  0.00  0.00    -0.485 OA
ATOM     19  C   UNL     1      -0.040   4.103  -0.340  0.00  0.00    +0.270 C 
ATOM     20  C   UNL     1      -1.189   3.413   0.408  0.00  0.00    +0.270 C 
ATOM     21  O   UNL     1      -1.212   2.035   0.019  0.00  0.00    -0.485 OA
ENDBRANCH  11  12
ENDBRANCH  10  11
ENDBRANCH   6  10
BRANCH   3  22
ATOM     22  C   UNL     1       8.963  -3.690  -2.215  0.00  0.00    -0.046 C 
BRANCH  22  23
ATOM     23  N   UNL     1       9.209  -3.831  -3.657  0.00  0.00    +0.384 N 
ATOM     24  H   UNL     1       8.385  -4.396  -4.116  0.00  0.00    -0.085 HD
ATOM     25  H   UNL     1       9.271  -2.834  -4.117  0.00  0.00    -0.085 HD
BRANCH  23  26
ATOM     26  C   UNL     1      10.468  -4.546  -3.908  0.00  0.00    -0.071 C 
ATOM     27  C   UNL     1      11.633  -3.554  -3.873  0.00  0.00    -0.016 C 
ATOM     28  C   UNL     1      12.950  -4.321  -3.735  0.00  0.00    -0.002 C 
ATOM     29  C   UNL     1      12.793  -5.421  -2.683  0.00  0.00    -0.000 C 
ATOM     30  C   UNL     1      12.881  -6.790  -3.361  0.00  0.00    -0.000 C 
ATOM     31  C   UNL     1      11.570  -7.080  -4.094  0.00  0.00    -0.000 C 
ATOM     32  C   UNL     1      11.516  -6.265  -5.387  0.00  0.00    -0.002 C 
ATOM     33  C   UNL     1      10.409  -5.214  -5.283  0.00  0.00    -0.016 C 
ENDBRANCH  23  26
ENDBRANCH  22  23
ENDBRANCH   3  22
TORSDOF 7
