REMARK  Name = ZINC16956239
REMARK  7 active torsions:
REMARK  status: ('A' for Active; 'I' for Inactive)
REMARK    1  A    between atoms: C_1  and  O_2
REMARK    2  A    between atoms: O_2  and  C_3
REMARK    3  A    between atoms: C_6  and  N_9
REMARK    4  A    between atoms: C_12  and  C_13
REMARK    5  A    between atoms: N_14  and  C_15
REMARK    6  A    between atoms: C_21  and  N_48
REMARK    7  A    between atoms: C_26  and  S_27
REMARK                            x       y       z     vdW  Elec       q    Type
REMARK                         _______ _______ _______ _____ _____    ______ ____
ROOT
ATOM      1  N   UNL     1       3.590   2.127  -0.042  0.00  0.00    -0.220 N 
ATOM      2  C   UNL     1       3.560   3.472  -0.158  0.00  0.00    +0.243 C 
ATOM      3  O   UNL     1       2.507   4.067  -0.293  0.00  0.00    -0.274 OA
ATOM      4  C   UNL     1       4.842   4.195  -0.111  0.00  0.00    +0.204 C 
ATOM      5  C   UNL     1       6.066   3.384   0.050  0.00  0.00    +0.255 C 
ATOM      6  O   UNL     1       7.164   3.912   0.094  0.00  0.00    -0.272 OA
ATOM      7  N   UNL     1       5.940   2.052   0.148  0.00  0.00    -0.158 NA
ATOM      8  C   UNL     1       4.769   1.458   0.104  0.00  0.00    +0.157 C 
ENDROOT
BRANCH   1  12
ATOM      9  C   UNL     1       0.015  -0.019  -0.149  0.00  0.00    +0.120 A 
ATOM     10  C   UNL     1       0.935  -0.152  -1.179  0.00  0.00    +0.047 A 
ATOM     11  C   UNL     1       2.119   0.558  -1.144  0.00  0.00    +0.027 A 
ATOM     12  C   UNL     1       2.388   1.405  -0.078  0.00  0.00    +0.043 A 
ATOM     13  C   UNL     1       1.467   1.538   0.952  0.00  0.00    +0.027 A 
ATOM     14  C   UNL     1       0.284   0.828   0.916  0.00  0.00    +0.047 A 
BRANCH   9  16
ATOM     15  C   UNL     1      -2.051  -0.534   0.910  0.00  0.00    +0.277 C 
ATOM     16  O   UNL     1      -1.150  -0.719  -0.184  0.00  0.00    -0.495 OA
ENDBRANCH   9  16
ENDBRANCH   1  12
BRANCH   4  17
ATOM     17  C   UNL     1       4.897   5.572  -0.217  0.00  0.00    +0.100 C 
ATOM     18  N   UNL     1       6.090   6.193  -0.320  0.00  0.00    -0.293 NA
BRANCH  18  19
ATOM     19  C   UNL     1       6.158   7.656  -0.310  0.00  0.00    +0.090 C 
ATOM     20  C   UNL     1       6.188   8.155   1.136  0.00  0.00    +0.025 C 
ATOM     21  C   UNL     1       6.258   9.684   1.147  0.00  0.00    +0.002 C 
ATOM     22  C   UNL     1       7.527  10.141   0.423  0.00  0.00    -0.001 C 
ATOM     23  C   UNL     1       7.496   9.642  -1.023  0.00  0.00    -0.014 C 
ATOM     24  C   UNL     1       7.426   8.113  -1.034  0.00  0.00    -0.050 C 
BRANCH  24  27
ATOM     25  H   UNL     1       8.224   7.923  -2.922  0.00  0.00    -0.090 HD
ATOM     26  H   UNL     1       7.285   6.632  -2.456  0.00  0.00    -0.090 HD
ATOM     27  N   UNL     1       7.376   7.646  -2.430  0.00  0.00    +0.381 N 
ATOM     28  H   UNL     1       6.565   8.067  -2.898  0.00  0.00    -0.090 HD
ENDBRANCH  24  27
ENDBRANCH  18  19
ENDBRANCH   4  17
BRANCH   8  29
ATOM     29  S   UNL     1       4.720  -0.298   0.242  0.00  0.00    -0.110 S 
ATOM     30  H   UNL     1       6.097  -0.572   0.371  0.00  0.00    +0.110 HD
ENDBRANCH   8  29
TORSDOF 6
