REMARK  Name = ZINC28291846
REMARK  9 active torsions:
REMARK  status: ('A' for Active; 'I' for Inactive)
REMARK    1  A    between atoms: C_1  and  C_2
REMARK    2  A    between atoms: C_2  and  C_3
REMARK    3  A    between atoms: C_2  and  C_4
REMARK    4  A    between atoms: C_7  and  C_10
REMARK    5  A    between atoms: C_10  and  C_12
REMARK    6  A    between atoms: C_10  and  N_26
REMARK    7  A    between atoms: C_12  and  N_13
REMARK    8  A    between atoms: C_14  and  C_16
REMARK    9  A    between atoms: C_18  and  C_21
REMARK                            x       y       z     vdW  Elec       q    Type
REMARK                         _______ _______ _______ _____ _____    ______ ____
ROOT
ATOM      1  C   UNL     1      -0.114   0.959   2.426  0.00  0.00    -0.020 C 
ENDROOT
BRANCH   1   2
ATOM      2  N   UNL     1      -1.073   1.095   1.321  0.00  0.00    +0.385 N 
ATOM      3  C   UNL     1      -0.953   2.410   0.679  0.00  0.00    -0.078 C 
ATOM      4  C   UNL     1      -1.859   2.462  -0.553  0.00  0.00    -0.019 C 
ATOM      5  C   UNL     1      -3.308   2.212  -0.125  0.00  0.00    -0.004 C 
ATOM      6  C   UNL     1      -3.397   0.858   0.584  0.00  0.00    -0.019 C 
ATOM      7  C   UNL     1      -2.446   0.852   1.783  0.00  0.00    -0.078 C 
ATOM      8  H   UNL     1      -0.833   0.331   0.567  0.00  0.00    -0.081 HD
ENDBRANCH   1   2
BRANCH   1  12
ATOM      9  C   UNL     1      -1.915   2.326   6.050  0.00  0.00    -0.045 A 
ATOM     10  C   UNL     1      -1.481   1.018   5.945  0.00  0.00    +0.004 A 
ATOM     11  C   UNL     1      -0.899   0.576   4.772  0.00  0.00    +0.002 A 
ATOM     12  C   UNL     1      -0.750   1.441   3.704  0.00  0.00    -0.059 A 
ATOM     13  C   UNL     1      -1.179   2.751   3.812  0.00  0.00    +0.002 A 
ATOM     14  C   UNL     1      -1.766   3.192   4.983  0.00  0.00    +0.004 A 
BRANCH   9  16
ATOM     15  C   UNL     1      -1.727   3.965   7.902  0.00  0.00    +0.012 C 
ATOM     16  C   UNL     1      -2.550   2.809   7.329  0.00  0.00    +0.013 C 
ATOM     17  C   UNL     1      -3.974   3.290   7.042  0.00  0.00    +0.012 C 
ENDBRANCH   9  16
ENDBRANCH   1  12
BRANCH   1  18
ATOM     18  C   UNL     1       1.130   1.797   2.127  0.00  0.00    +0.094 C 
BRANCH  18  19
ATOM     19  N   UNL     1       1.674   1.415   0.822  0.00  0.00    -0.311 N 
ATOM     20  C   UNL     1       2.727   2.083   0.309  0.00  0.00    +0.266 C 
ATOM     21  O   UNL     1       3.224   3.002   0.929  0.00  0.00    -0.268 OA
ATOM     22  H   UNL     1       1.224   0.584   0.260  0.00  0.00    +0.149 HD
BRANCH  20  23
ATOM     23  C   UNL     1       3.278   1.697  -1.013  0.00  0.00    +0.168 A 
ATOM     24  C   UNL     1       4.369   2.299  -1.687  0.00  0.00    +0.086 A 
ATOM     25  C   UNL     1       4.472   1.579  -2.850  0.00  0.00    +0.174 A 
ATOM     26  O   UNL     1       3.495   0.655  -2.810  0.00  0.00    -0.353 OA
ATOM     27  N   UNL     1       2.847   0.734  -1.793  0.00  0.00    -0.073 NA
BRANCH  25  28
ATOM     28  C   UNL     1       5.452   1.781  -3.928  0.00  0.00    +0.057 A 
ATOM     29  C   UNL     1       5.598   1.086  -5.115  0.00  0.00    +0.019 A 
ATOM     30  C   UNL     1       6.599   1.468  -5.977  0.00  0.00    +0.008 A 
ATOM     31  C   UNL     1       7.414   2.500  -5.635  0.00  0.00    +0.046 A 
ATOM     32  S   UNL     1       6.768   2.982  -4.043  0.00  0.00    -0.093 S 
ENDBRANCH  25  28
ENDBRANCH  20  23
ENDBRANCH  18  19
ENDBRANCH   1  18
TORSDOF 7
