REMARK  Name = ZINC36610031
REMARK  13 active torsions:
REMARK  status: ('A' for Active; 'I' for Inactive)
REMARK    1  A    between atoms: C_1  and  C_2
REMARK    2  A    between atoms: C_5  and  C_9
REMARK    3  A    between atoms: C_6  and  C_8
REMARK    4  A    between atoms: C_9  and  C_11
REMARK    5  A    between atoms: C_9  and  N_18
REMARK    6  A    between atoms: N_13  and  C_14
REMARK    7  A    between atoms: C_14  and  C_15
REMARK    8  A    between atoms: C_14  and  C_16
REMARK    9  A    between atoms: C_14  and  C_17
REMARK   10  A    between atoms: N_18  and  C_19
REMARK   11  A    between atoms: C_25  and  C_27
REMARK   12  A    between atoms: C_28  and  O_34
REMARK   13  A    between atoms: C_32  and  O_33
REMARK                            x       y       z     vdW  Elec       q    Type
REMARK                         _______ _______ _______ _____ _____    ______ ____
ROOT
ATOM      1  N   UNL     1      -0.293  -5.210  -1.000  0.00  0.00    -0.251 N 
ATOM      2  C   UNL     1      -1.548  -5.680  -1.144  0.00  0.00    +0.259 C 
ATOM      3  O   UNL     1      -2.328  -5.629  -0.212  0.00  0.00    -0.269 OA
ENDROOT
BRANCH   1   4
ATOM      4  C   UNL     1       0.577  -5.193  -2.094  0.00  0.00    +0.038 A 
ATOM      5  C   UNL     1       1.151  -6.375  -2.546  0.00  0.00    +0.023 A 
ATOM      6  C   UNL     1       2.010  -6.354  -3.627  0.00  0.00    +0.002 A 
ATOM      7  C   UNL     1       2.300  -5.159  -4.259  0.00  0.00    +0.000 A 
ATOM      8  C   UNL     1       1.731  -3.981  -3.811  0.00  0.00    +0.002 A 
ATOM      9  C   UNL     1       0.866  -3.995  -2.735  0.00  0.00    +0.023 A 
ENDBRANCH   1   4
BRANCH   2  10
ATOM     10  C   UNL     1      -1.975  -6.256  -2.430  0.00  0.00    +0.120 A 
ATOM     11  C   UNL     1      -1.917  -7.642  -2.638  0.00  0.00    +0.133 A 
ATOM     12  C   UNL     1      -2.322  -8.173  -3.852  0.00  0.00    +0.046 A 
ATOM     13  C   UNL     1      -2.781  -7.342  -4.857  0.00  0.00    +0.007 A 
ATOM     14  C   UNL     1      -2.842  -5.974  -4.663  0.00  0.00    +0.046 A 
ATOM     15  C   UNL     1      -2.448  -5.423  -3.455  0.00  0.00    +0.133 A 
BRANCH  15  16
ATOM     16  O   UNL     1      -2.513  -4.081  -3.265  0.00  0.00    -0.506 OA
ATOM     17  H   UNL     1      -1.710  -3.608  -3.522  0.00  0.00    +0.292 HD
ENDBRANCH  15  16
BRANCH  11  18
ATOM     18  O   UNL     1      -1.467  -8.459  -1.653  0.00  0.00    -0.506 OA
ATOM     19  H   UNL     1      -2.159  -8.777  -1.058  0.00  0.00    +0.292 HD
ENDBRANCH  11  18
ENDBRANCH   2  10
BRANCH   1  20
ATOM     20  C   UNL     1       0.159  -4.718   0.304  0.00  0.00    +0.198 C 
BRANCH  20  25
ATOM     21  C   UNL     1       2.290   0.621  -0.291  0.00  0.00    +0.044 C 
ATOM     22  C   UNL     1       1.734  -0.771  -0.136  0.00  0.00    -0.050 A 
ATOM     23  C   UNL     1       2.592  -1.849  -0.016  0.00  0.00    +0.004 A 
ATOM     24  C   UNL     1       2.082  -3.126   0.126  0.00  0.00    +0.006 A 
ATOM     25  C   UNL     1       0.714  -3.325   0.150  0.00  0.00    -0.015 A 
ATOM     26  C   UNL     1      -0.143  -2.248   0.031  0.00  0.00    -0.045 A 
ATOM     27  C   UNL     1       0.366  -0.971  -0.107  0.00  0.00    +0.007 A 
ATOM     28  C   UNL     1      -1.634  -2.466   0.056  0.00  0.00    +0.044 C 
ENDBRANCH  20  25
BRANCH  20  29
ATOM     29  C   UNL     1       1.231  -5.630   0.841  0.00  0.00    +0.239 C 
ATOM     30  O   UNL     1       1.731  -6.468   0.121  0.00  0.00    -0.273 OA
ATOM     31  N   UNL     1       1.635  -5.514   2.122  0.00  0.00    -0.309 N 
ATOM     32  H   UNL     1       1.190  -4.889   2.716  0.00  0.00    +0.149 HD
BRANCH  31  33
ATOM     33  C   UNL     1       2.744  -6.333   2.617  0.00  0.00    +0.026 C 
ATOM     34  C   UNL     1       4.004  -6.030   1.804  0.00  0.00    +0.031 C 
ATOM     35  C   UNL     1       2.998  -6.010   4.091  0.00  0.00    +0.031 C 
ATOM     36  C   UNL     1       2.389  -7.814   2.474  0.00  0.00    +0.031 C 
ENDBRANCH  31  33
ENDBRANCH  20  29
ENDBRANCH   1  20
TORSDOF 8
