REMARK  Name = ZINC35397208
REMARK  9 active torsions:
REMARK  status: ('A' for Active; 'I' for Inactive)
REMARK    1  A    between atoms: C_1  and  C_2
REMARK    2  A    between atoms: C_2  and  C_3
REMARK    3  A    between atoms: C_6  and  N_9
REMARK    4  A    between atoms: C_10  and  C_12
REMARK    5  A    between atoms: C_12  and  S_13
REMARK    6  A    between atoms: S_13  and  C_14
REMARK    7  A    between atoms: N_19  and  C_22
REMARK    8  A    between atoms: C_22  and  C_23
REMARK    9  A    between atoms: C_25  and  C_26
REMARK                            x       y       z     vdW  Elec       q    Type
REMARK                         _______ _______ _______ _____ _____    ______ ____
ROOT
ATOM      1  C   UNL     1       7.183  -2.879  -7.192  0.00  0.00    +0.120 C 
ATOM      2  N   UNL     1       6.500  -3.078  -8.282  0.00  0.00    -0.246 NA
ATOM      3  C   UNL     1       7.461  -3.385  -9.345  0.00  0.00    +0.150 C 
ATOM      4  C   UNL     1       7.191  -4.779  -9.912  0.00  0.00    +0.035 C 
ATOM      5  C   UNL     1       8.168  -5.056 -11.058  0.00  0.00    -0.075 C 
ATOM      6  N   UNL     1       7.991  -4.046 -12.108  0.00  0.00    +0.380 N 
ATOM      7  C   UNL     1       8.330  -2.716 -11.586  0.00  0.00    -0.075 C 
ATOM      8  C   UNL     1       7.360  -2.345 -10.462  0.00  0.00    +0.035 C 
ATOM      9  N   UNL     1       8.791  -3.338  -8.733  0.00  0.00    -0.251 NA
ATOM     10  C   UNL     1       8.628  -3.038  -7.479  0.00  0.00    +0.100 C 
ATOM     11  H   UNL     1       7.031  -4.050 -12.419  0.00  0.00    -0.082 HD
ENDROOT
BRANCH  10  12
ATOM     12  C   UNL     1       9.717  -2.882  -6.488  0.00  0.00    +0.003 A 
ATOM     13  C   UNL     1      10.927  -3.554  -6.667  0.00  0.00    +0.011 A 
ATOM     14  C   UNL     1      11.938  -3.405  -5.741  0.00  0.00    +0.016 A 
ATOM     15  C   UNL     1      11.755  -2.591  -4.636  0.00  0.00    +0.018 A 
ATOM     16  C   UNL     1      10.556  -1.922  -4.453  0.00  0.00    +0.016 A 
ATOM     17  C   UNL     1       9.540  -2.058  -5.376  0.00  0.00    +0.011 A 
ATOM     18 BR   UNL     1      13.146  -2.392  -3.371  0.00  0.00    -0.050 Br
ENDBRANCH  10  12
BRANCH   6  19
ATOM     19  C   UNL     1       8.870  -4.363 -13.242  0.00  0.00    -0.082 C 
ATOM     20  C   UNL     1       8.598  -3.385 -14.387  0.00  0.00    -0.017 C 
ENDBRANCH   6  19
BRANCH   1  21
ATOM     21  S   UNL     1       6.495  -2.475  -5.621  0.00  0.00    -0.095 S 
BRANCH  21  22
ATOM     22  C   UNL     1       4.707  -2.428  -5.923  0.00  0.00    +0.172 C 
BRANCH  22  24
ATOM     23  N   UNL     1       2.645  -1.998  -4.626  0.00  0.00    -0.285 N 
ATOM     24  C   UNL     1       3.990  -2.089  -4.642  0.00  0.00    +0.227 C 
ATOM     25  O   UNL     1       4.623  -1.897  -3.625  0.00  0.00    -0.275 OA
ATOM     26  H   UNL     1       2.135  -2.224  -5.419  0.00  0.00    +0.155 HD
BRANCH  23  30
ATOM     27  C   UNL     1       0.682  -0.748  -1.171  0.00  0.00    -0.048 A 
ATOM     28  C   UNL     1       1.931  -0.239  -1.477  0.00  0.00    +0.005 A 
ATOM     29  C   UNL     1       2.584  -0.651  -2.622  0.00  0.00    +0.023 A 
ATOM     30  C   UNL     1       1.986  -1.579  -3.466  0.00  0.00    +0.033 A 
ATOM     31  C   UNL     1       0.732  -2.088  -3.155  0.00  0.00    +0.023 A 
ATOM     32  C   UNL     1       0.086  -1.675  -2.006  0.00  0.00    +0.005 A 
BRANCH  27  34
ATOM     33  C   UNL     1       0.355  -1.211   1.243  0.00  0.00    +0.009 C 
ATOM     34  C   UNL     1      -0.028  -0.296   0.079  0.00  0.00    +0.032 C 
ENDBRANCH  27  34
ENDBRANCH  23  30
ENDBRANCH  22  24
ENDBRANCH  21  22
ENDBRANCH   1  21
TORSDOF 7
