REMARK  Name = ZINC08014566
REMARK  10 active torsions:
REMARK  status: ('A' for Active; 'I' for Inactive)
REMARK    1  A    between atoms: C_1  and  C_2
REMARK    2  A    between atoms: C_7  and  C_8
REMARK    3  A    between atoms: N_10  and  C_11
REMARK    4  A    between atoms: C_11  and  C_13
REMARK    5  A    between atoms: C_11  and  C_17
REMARK    6  A    between atoms: C_13  and  C_14
REMARK    7  A    between atoms: C_14  and  C_15
REMARK    8  A    between atoms: C_14  and  C_16
REMARK    9  A    between atoms: N_19  and  C_20
REMARK   10  A    between atoms: C_29  and  C_32
REMARK                            x       y       z     vdW  Elec       q    Type
REMARK                         _______ _______ _______ _____ _____    ______ ____
ROOT
ATOM      1  C   UNL     1      -3.747   0.808   0.521  0.00  0.00    +0.238 C 
ATOM      2  O   UNL     1      -4.280   0.064   1.318  0.00  0.00    -0.273 OA
ATOM      3  N   UNL     1      -4.455   1.308  -0.511  0.00  0.00    -0.284 N 
ATOM      4  H   UNL     1      -4.051   1.961  -1.104  0.00  0.00    +0.155 HD
ENDROOT
BRANCH   3   5
ATOM      5  C   UNL     1      -5.773   0.885  -0.727  0.00  0.00    +0.035 A 
ATOM      6  C   UNL     1      -6.712   1.774  -1.234  0.00  0.00    +0.027 A 
ATOM      7  C   UNL     1      -8.014   1.361  -1.449  0.00  0.00    +0.049 A 
ATOM      8  C   UNL     1      -8.383   0.059  -1.160  0.00  0.00    +0.143 A 
ATOM      9  C   UNL     1      -7.442  -0.835  -0.650  0.00  0.00    +0.077 A 
ATOM     10  C   UNL     1      -6.138  -0.423  -0.439  0.00  0.00    +0.050 A 
ATOM     11  N   UNL     1      -7.833  -2.150  -0.359  0.00  0.00    -0.279 N 
ATOM     12  C   UNL     1      -8.997  -2.614  -0.864  0.00  0.00    +0.258 C 
ATOM     13  O   UNL     1      -9.370  -3.738  -0.602  0.00  0.00    -0.271 OA
ATOM     14  C   UNL     1      -9.832  -1.728  -1.754  0.00  0.00    +0.256 C 
ATOM     15  O   UNL     1      -9.660  -0.362  -1.369  0.00  0.00    -0.478 OA
ATOM     16  C   UNL     1     -11.306  -2.115  -1.619  0.00  0.00    +0.062 C 
ATOM     17  H   UNL     1      -7.276  -2.718   0.195  0.00  0.00    +0.155 HD
ENDBRANCH   3   5
BRANCH   1  18
ATOM     18  C   UNL     1      -2.294   1.173   0.686  0.00  0.00    +0.160 C 
BRANCH  18  21
ATOM     19  C   UNL     1      -0.692   1.029   2.516  0.00  0.00    +0.245 C 
ATOM     20  O   UNL     1      -0.180   2.054   2.109  0.00  0.00    -0.270 OA
ATOM     21  N   UNL     1      -1.755   0.506   1.874  0.00  0.00    -0.300 N 
ATOM     22  H   UNL     1      -2.163  -0.312   2.198  0.00  0.00    +0.150 HD
BRANCH  19  29
ATOM     23  C   UNL     1       1.745   2.013   3.726  0.00  0.00    +0.044 C 
ATOM     24  C   UNL     1       1.028   0.822   4.307  0.00  0.00    -0.038 A 
ATOM     25  C   UNL     1       1.530   0.189   5.425  0.00  0.00    +0.004 A 
ATOM     26  C   UNL     1       0.872  -0.904   5.960  0.00  0.00    +0.000 A 
ATOM     27  C   UNL     1      -0.293  -1.370   5.378  0.00  0.00    +0.001 A 
ATOM     28  C   UNL     1      -0.809  -0.744   4.262  0.00  0.00    +0.013 A 
ATOM     29  C   UNL     1      -0.147   0.356   3.714  0.00  0.00    +0.040 A 
ENDBRANCH  19  29
ENDBRANCH  18  21
BRANCH  18  30
ATOM     30  C   UNL     1      -1.512   0.724  -0.550  0.00  0.00    +0.034 C 
BRANCH  30  31
ATOM     31  C   UNL     1      -0.064   1.204  -0.439  0.00  0.00    -0.015 C 
ATOM     32  C   UNL     1      -0.029   2.733  -0.471  0.00  0.00    +0.007 C 
ATOM     33  C   UNL     1       0.748   0.651  -1.612  0.00  0.00    +0.007 C 
ENDBRANCH  30  31
ENDBRANCH  18  30
ENDBRANCH   1  18
TORSDOF 6
