REMARK  Name = ZINC58182107
REMARK  12 active torsions:
REMARK  status: ('A' for Active; 'I' for Inactive)
REMARK    1  A    between atoms: C_1  and  C_2
REMARK    2  A    between atoms: C_2  and  C_3
REMARK    3  A    between atoms: C_4  and  C_24
REMARK    4  A    between atoms: C_5  and  C_23
REMARK    5  A    between atoms: C_6  and  C_9
REMARK    6  A    between atoms: N_11  and  C_12
REMARK    7  A    between atoms: C_12  and  C_13
REMARK    8  A    between atoms: N_18  and  C_20
REMARK    9  A    between atoms: C_20  and  C_21
REMARK   10  A    between atoms: C_20  and  C_22
REMARK   11  A    between atoms: C_24  and  O_26
REMARK   12  A    between atoms: O_26  and  C_27
REMARK                            x       y       z     vdW  Elec       q    Type
REMARK                         _______ _______ _______ _____ _____    ______ ____
ROOT
ATOM      1  C   UNL     1       0.837  -1.684  -4.670  0.00  0.00    +0.261 C 
ATOM      2  O   UNL     1       1.772  -2.007  -5.379  0.00  0.00    -0.269 OA
ATOM      3  N   UNL     1      -0.422  -1.744  -5.146  0.00  0.00    -0.310 N 
ATOM      4  H   UNL     1      -1.167  -1.486  -4.581  0.00  0.00    +0.149 HD
ENDROOT
BRANCH   1   8
ATOM      5  C   UNL     1       0.707  -0.490  -1.238  0.00  0.00    +0.031 A 
ATOM      6  C   UNL     1       2.073  -0.653  -1.380  0.00  0.00    +0.083 A 
ATOM      7  C   UNL     1       2.300  -1.125  -2.693  0.00  0.00    -0.006 A 
ATOM      8  C   UNL     1       1.081  -1.231  -3.295  0.00  0.00    +0.106 A 
ATOM      9  N   UNL     1       0.117  -0.843  -2.390  0.00  0.00    -0.353 N 
ATOM     10  H   UNL     1      -0.839  -0.827  -2.560  0.00  0.00    +0.166 HD
ATOM     11  C   UNL     1       3.635  -1.450  -3.311  0.00  0.00    +0.047 C 
BRANCH   5  13
ATOM     12  C   UNL     1      -0.019   1.526   0.010  0.00  0.00    +0.010 C 
ATOM     13  C   UNL     1       0.002  -0.004   0.002  0.00  0.00    +0.050 C 
ENDBRANCH   5  13
BRANCH   6  14
ATOM     14  C   UNL     1       3.098  -0.386  -0.357  0.00  0.00    +0.341 C 
ATOM     15  O   UNL     1       3.438  -1.267   0.407  0.00  0.00    -0.245 OA
BRANCH  14  16
ATOM     16  O   UNL     1       3.659   0.836  -0.269  0.00  0.00    -0.464 OA
ATOM     17  C   UNL     1       4.646   1.025   0.747  0.00  0.00    +0.280 C 
ENDBRANCH  14  16
ENDBRANCH   6  14
ENDBRANCH   1   8
BRANCH   3  18
ATOM     18  C   UNL     1      -0.665  -2.196  -6.519  0.00  0.00    +0.106 C 
BRANCH  18  19
ATOM     19  C   UNL     1      -2.168  -2.169  -6.806  0.00  0.00    -0.011 C 
ATOM     20  C   UNL     1      -2.877  -3.191  -5.912  0.00  0.00    +0.001 C 
ATOM     21  C   UNL     1      -4.368  -3.212  -6.262  0.00  0.00    -0.018 C 
ATOM     22  C   UNL     1      -4.533  -3.529  -7.750  0.00  0.00    -0.078 C 
ATOM     23  N   UNL     1      -3.855  -2.502  -8.551  0.00  0.00    +0.381 N 
ATOM     24  C   UNL     1      -2.414  -2.524  -8.274  0.00  0.00    -0.074 C 
ATOM     25  H   UNL     1      -4.228  -1.594  -8.316  0.00  0.00    -0.081 HD
BRANCH  23  26
ATOM     26  C   UNL     1      -4.082  -2.767  -9.978  0.00  0.00    -0.075 C 
ATOM     27  C   UNL     1      -5.583  -2.735 -10.271  0.00  0.00    -0.014 C 
ATOM     28  C   UNL     1      -3.376  -1.698 -10.814  0.00  0.00    -0.014 C 
ENDBRANCH  23  26
ENDBRANCH  18  19
ENDBRANCH   3  18
TORSDOF 7
