REMARK  Name = ZINC20764397
REMARK  11 active torsions:
REMARK  status: ('A' for Active; 'I' for Inactive)
REMARK    1  A    between atoms: C_1  and  C_2
REMARK    2  A    between atoms: C_2  and  O_3
REMARK    3  A    between atoms: O_3  and  C_4
REMARK    4  A    between atoms: C_7  and  C_10
REMARK    5  A    between atoms: C_12  and  C_28
REMARK    6  A    between atoms: C_15  and  C_18
REMARK    7  A    between atoms: C_22  and  O_25
REMARK    8  A    between atoms: C_23  and  O_24
REMARK    9  A    between atoms: O_25  and  C_26
REMARK   10  A    between atoms: C_26  and  C_27
REMARK   11  A    between atoms: C_31  and  C_34
REMARK                            x       y       z     vdW  Elec       q    Type
REMARK                         _______ _______ _______ _____ _____    ______ ____
ROOT
ATOM      1  C   UNL     1      -0.740   1.584  -1.210  0.00  0.00    +0.040 C 
ATOM      2  N   UNL     1      -1.603   2.529  -1.171  0.00  0.00    -0.299 NA
ATOM      3  C   UNL     1      -1.996   3.228   0.045  0.00  0.00    +0.081 C 
ATOM      4  N   UNL     1      -1.005   3.018   1.107  0.00  0.00    +0.401 N 
ATOM      5  C   UNL     1      -0.730   1.580   1.268  0.00  0.00    -0.028 C 
ATOM      6  C   UNL     1      -0.013   1.086   0.008  0.00  0.00    +0.044 C 
ATOM      7  H   UNL     1      -0.070   3.536   0.845  0.00  0.00    -0.081 HD
ATOM      8  H   UNL     1      -1.392   3.419   2.055  0.00  0.00    -0.081 HD
ENDROOT
BRANCH   1  12
ATOM      9  C   UNL     1       0.110  -0.228  -4.954  0.00  0.00    +0.121 A 
ATOM     10  C   UNL     1      -0.822   0.800  -4.878  0.00  0.00    +0.046 A 
ATOM     11  C   UNL     1      -1.101   1.391  -3.665  0.00  0.00    +0.013 A 
ATOM     12  C   UNL     1      -0.445   0.955  -2.510  0.00  0.00    -0.004 A 
ATOM     13  C   UNL     1       0.496  -0.076  -2.593  0.00  0.00    +0.013 A 
ATOM     14  C   UNL     1       0.764  -0.664  -3.809  0.00  0.00    +0.046 A 
BRANCH   9  15
ATOM     15  O   UNL     1       0.381  -0.807  -6.152  0.00  0.00    -0.492 OA
BRANCH  15  17
ATOM     16  C   UNL     1       1.521  -2.384  -7.586  0.00  0.00    +0.048 C 
ATOM     17  C   UNL     1       1.349  -1.858  -6.159  0.00  0.00    +0.225 C 
ENDBRANCH  15  17
ENDBRANCH   9  15
ENDBRANCH   1  12
BRANCH   5  18
ATOM     18  C   UNL     1       0.150   1.362   2.472  0.00  0.00    -0.016 A 
ATOM     19  C   UNL     1       0.883   2.413   2.992  0.00  0.00    +0.006 A 
ATOM     20  C   UNL     1       1.688   2.218   4.099  0.00  0.00    +0.004 A 
ATOM     21  C   UNL     1       1.771   0.968   4.685  0.00  0.00    +0.049 A 
ATOM     22  C   UNL     1       1.044  -0.090   4.166  0.00  0.00    +0.162 A 
ATOM     23  C   UNL     1       0.229   0.108   3.054  0.00  0.00    +0.160 A 
BRANCH  23  24
ATOM     24  O   UNL     1      -0.486  -0.928   2.541  0.00  0.00    -0.503 OA
ATOM     25  H   UNL     1      -0.423  -1.924   3.005  0.00  0.00    +0.292 HD
ENDBRANCH  23  24
BRANCH  22  26
ATOM     26  O   UNL     1       1.124  -1.320   4.742  0.00  0.00    -0.489 OA
BRANCH  26  27
ATOM     27  C   UNL     1       1.979  -1.449   5.879  0.00  0.00    +0.226 C 
ATOM     28  C   UNL     1       1.941  -2.892   6.385  0.00  0.00    +0.048 C 
ENDBRANCH  26  27
ENDBRANCH  22  26
ENDBRANCH   5  18
BRANCH   3  29
ATOM     29  C   UNL     1      -2.108   4.703  -0.244  0.00  0.00    -0.040 A 
ATOM     30  C   UNL     1      -1.857   5.625   0.755  0.00  0.00    +0.004 A 
ATOM     31  C   UNL     1      -1.956   6.978   0.488  0.00  0.00    +0.012 A 
ATOM     32  C   UNL     1      -2.314   7.409  -0.775  0.00  0.00    +0.055 A 
ATOM     33  C   UNL     1      -2.570   6.487  -1.773  0.00  0.00    +0.012 A 
ATOM     34  C   UNL     1      -2.467   5.134  -1.508  0.00  0.00    +0.004 A 
BRANCH  32  35
ATOM     35  C   UNL     1      -2.426   8.883  -1.065  0.00  0.00    +0.417 C 
ATOM     36  F   UNL     1      -3.732   9.312  -0.803  0.00  0.00    -0.166 F 
ATOM     37  F   UNL     1      -1.532   9.587  -0.251  0.00  0.00    -0.166 F 
ATOM     38  F   UNL     1      -2.118   9.119  -2.409  0.00  0.00    -0.166 F 
ENDBRANCH  32  35
ENDBRANCH   3  29
TORSDOF 9
