REMARK  Name = ZINC32727707
REMARK  6 active torsions:
REMARK  status: ('A' for Active; 'I' for Inactive)
REMARK    1  A    between atoms: C_1  and  C_2
REMARK    2  A    between atoms: N_10  and  C_13
REMARK    3  A    between atoms: C_13  and  C_15
REMARK    4  A    between atoms: C_13  and  C_16
REMARK    5  A    between atoms: N_18  and  C_19
REMARK    6  A    between atoms: C_24  and  N_25
REMARK                            x       y       z     vdW  Elec       q    Type
REMARK                         _______ _______ _______ _____ _____    ______ ____
ROOT
ATOM      1  C   UNL     1      -2.380  -0.284   0.106  0.00  0.00    +0.238 C 
ATOM      2  O   UNL     1      -1.327  -0.864   0.271  0.00  0.00    -0.273 OA
ATOM      3  N   UNL     1      -2.403   1.060   0.021  0.00  0.00    -0.282 N 
ATOM      4  H   UNL     1      -3.365   1.591  -0.041  0.00  0.00    +0.155 HD
ENDROOT
BRANCH   3   5
ATOM      5  C   UNL     1      -1.204   1.782   0.010  0.00  0.00    +0.061 A 
ATOM      6  C   UNL     1      -0.081   1.255  -0.611  0.00  0.00    +0.045 A 
ATOM      7  C   UNL     1       1.102   1.972  -0.625  0.00  0.00    +0.043 A 
ATOM      8  C   UNL     1       1.170   3.213  -0.015  0.00  0.00    +0.022 A 
ATOM      9  C   UNL     1       0.057   3.742   0.610  0.00  0.00    +0.031 A 
ATOM     10  C   UNL     1      -1.133   3.029   0.628  0.00  0.00    +0.088 A 
ATOM     11 CL   UNL     1       2.504   1.314  -1.409  0.00  0.00    -0.083 Cl
BRANCH  10  12
ATOM     12  N   UNL     1      -2.263   3.565   1.263  0.00  0.00    -0.218 N 
ATOM     13  C   UNL     1      -2.324   4.706   1.977  0.00  0.00    +0.225 A 
ATOM     14  N   UNL     1      -3.555   4.855   2.397  0.00  0.00    -0.222 NA
ATOM     15  C   UNL     1      -4.302   3.833   1.983  0.00  0.00    +0.245 A 
ATOM     16  N   UNL     1      -3.556   3.016   1.284  0.00  0.00    -0.153 NA
ENDBRANCH  10  12
ENDBRANCH   3   5
BRANCH   1  17
ATOM     17  C   UNL     1      -3.663  -1.069  -0.004  0.00  0.00    +0.168 C 
ATOM     18  C   UNL     1      -4.617  -0.644   1.114  0.00  0.00    +0.038 C 
BRANCH  17  28
ATOM     19  C   UNL     1      -2.751  -8.473  -0.700  0.00  0.00    +0.044 C 
ATOM     20  C   UNL     1      -2.725  -7.079  -0.127  0.00  0.00    -0.050 A 
ATOM     21  C   UNL     1      -2.199  -6.864   1.133  0.00  0.00    +0.004 A 
ATOM     22  C   UNL     1      -2.169  -5.588   1.673  0.00  0.00    +0.014 A 
ATOM     23  C   UNL     1      -2.670  -4.521   0.944  0.00  0.00    +0.049 A 
ATOM     24  C   UNL     1      -3.208  -4.740  -0.340  0.00  0.00    +0.050 A 
ATOM     25  C   UNL     1      -3.231  -6.022  -0.868  0.00  0.00    +0.017 A 
ATOM     26  C   UNL     1      -3.644  -3.415  -0.828  0.00  0.00    +0.254 C 
ATOM     27  O   UNL     1      -4.161  -3.191  -1.904  0.00  0.00    -0.270 OA
ATOM     28  N   UNL     1      -3.372  -2.499   0.119  0.00  0.00    -0.222 N 
ATOM     29  C   UNL     1      -2.794  -3.069   1.192  0.00  0.00    +0.254 C 
ATOM     30  O   UNL     1      -2.435  -2.488   2.196  0.00  0.00    -0.270 OA
ENDBRANCH  17  28
ENDBRANCH   1  17
TORSDOF 4
