REMARK  Name = ZINC36571229
REMARK  19 active torsions:
REMARK  status: ('A' for Active; 'I' for Inactive)
REMARK    1  A    between atoms: C_1  and  C_2
REMARK    2  A    between atoms: C_2  and  C_3
REMARK    3  A    between atoms: C_3  and  N_4
REMARK    4  A    between atoms: N_4  and  C_5
REMARK    5  A    between atoms: C_5  and  C_7
REMARK    6  A    between atoms: C_5  and  C_15
REMARK    7  A    between atoms: C_10  and  C_14
REMARK    8  A    between atoms: C_12  and  C_13
REMARK    9  A    between atoms: N_17  and  C_18
REMARK   10  A    between atoms: C_18  and  C_19
REMARK   11  A    between atoms: C_18  and  C_20
REMARK   12  A    between atoms: C_18  and  C_21
REMARK   13  A    between atoms: C_21  and  C_22
REMARK   14  A    between atoms: C_22  and  C_23
REMARK   15  A    between atoms: C_22  and  C_24
REMARK   16  A    between atoms: C_22  and  C_25
REMARK   17  A    between atoms: C_26  and  C_28
REMARK   18  A    between atoms: C_32  and  O_35
REMARK   19  A    between atoms: C_33  and  O_34
REMARK                            x       y       z     vdW  Elec       q    Type
REMARK                         _______ _______ _______ _____ _____    ______ ____
ROOT
ATOM      1  C   UNL     1      -1.173  -1.718  -0.518  0.00  0.00    +0.193 C 
ENDROOT
BRANCH   1   2
ATOM      2  C   UNL     1      -1.497  -1.190  -1.892  0.00  0.00    -0.015 A 
ATOM      3  C   UNL     1      -2.800  -0.862  -2.217  0.00  0.00    +0.006 A 
ATOM      4  C   UNL     1      -3.097  -0.378  -3.477  0.00  0.00    +0.004 A 
ATOM      5  C   UNL     1      -2.091  -0.220  -4.412  0.00  0.00    -0.050 A 
ATOM      6  C   UNL     1      -0.788  -0.547  -4.086  0.00  0.00    +0.007 A 
ATOM      7  C   UNL     1      -0.490  -1.028  -2.825  0.00  0.00    -0.045 A 
ATOM      8  C   UNL     1       0.931  -1.379  -2.468  0.00  0.00    +0.044 C 
ATOM      9  C   UNL     1      -2.415   0.307  -5.786  0.00  0.00    +0.044 C 
ENDBRANCH   1   2
BRANCH   1  10
ATOM     10  C   UNL     1      -2.430  -2.244   0.127  0.00  0.00    +0.239 C 
ATOM     11  O   UNL     1      -2.883  -1.694   1.109  0.00  0.00    -0.273 OA
ATOM     12  N   UNL     1      -3.050  -3.325  -0.387  0.00  0.00    -0.308 N 
ATOM     13  H   UNL     1      -2.647  -3.809  -1.124  0.00  0.00    +0.149 HD
BRANCH  12  14
ATOM     14  C   UNL     1      -4.331  -3.767   0.169  0.00  0.00    +0.030 C 
ATOM     15  C   UNL     1      -4.088  -4.510   1.484  0.00  0.00    +0.031 C 
ATOM     16  C   UNL     1      -5.222  -2.550   0.427  0.00  0.00    +0.031 C 
BRANCH  14  17
ATOM     17  C   UNL     1      -5.021  -4.703  -0.825  0.00  0.00    +0.031 C 
BRANCH  17  18
ATOM     18  C   UNL     1      -4.841  -4.162  -2.245  0.00  0.00    -0.036 C 
ATOM     19  C   UNL     1      -3.416  -4.446  -2.722  0.00  0.00    +0.010 C 
ATOM     20  C   UNL     1      -5.839  -4.846  -3.182  0.00  0.00    +0.010 C 
ATOM     21  C   UNL     1      -5.090  -2.652  -2.251  0.00  0.00    +0.010 C 
ENDBRANCH  17  18
ENDBRANCH  14  17
ENDBRANCH  12  14
ENDBRANCH   1  10
BRANCH   1  22
ATOM     22  N   UNL     1      -0.618  -0.638   0.302  0.00  0.00    -0.282 N 
ATOM     23  C   UNL     1       0.139  -0.930   1.378  0.00  0.00    +0.251 C 
ATOM     24  O   UNL     1       0.641  -0.034   2.030  0.00  0.00    -0.270 OA
BRANCH  23  25
ATOM     25  C   UNL     1       0.359  -2.337   1.766  0.00  0.00    +0.082 A 
ATOM     26  C   UNL     1      -0.326  -3.362   1.107  0.00  0.00    +0.017 A 
ATOM     27  C   UNL     1      -0.117  -4.674   1.471  0.00  0.00    +0.005 A 
ATOM     28  C   UNL     1       0.770  -4.986   2.489  0.00  0.00    +0.049 A 
ATOM     29  C   UNL     1       1.455  -3.981   3.151  0.00  0.00    +0.159 A 
ATOM     30  C   UNL     1       1.259  -2.651   2.790  0.00  0.00    +0.171 A 
BRANCH  30  31
ATOM     31  O   UNL     1       1.934  -1.664   3.433  0.00  0.00    -0.503 OA
ATOM     32  H   UNL     1       1.476  -1.317   4.211  0.00  0.00    +0.292 HD
ENDBRANCH  30  31
BRANCH  29  33
ATOM     33  O   UNL     1       2.324  -4.295   4.149  0.00  0.00    -0.503 OA
ATOM     34  H   UNL     1       3.231  -4.444   3.849  0.00  0.00    +0.292 HD
ENDBRANCH  29  33
ENDBRANCH  23  25
BRANCH  22  35
ATOM     35  C   UNL     1      -0.887   0.759  -0.047  0.00  0.00    +0.109 C 
BRANCH  35  37
ATOM     36  C   UNL     1      -2.295   2.754   0.480  0.00  0.00    +0.005 C 
ATOM     37  C   UNL     1      -2.091   1.262   0.751  0.00  0.00    +0.016 C 
ENDBRANCH  35  37
ENDBRANCH  22  35
ENDBRANCH   1  22
TORSDOF 11
