REMARK  Name = ZINC08776220
REMARK  6 active torsions:
REMARK  status: ('A' for Active; 'I' for Inactive)
REMARK    1  A    between atoms: C_1  and  C_2
REMARK    2  A    between atoms: C_2  and  C_19
REMARK    3  A    between atoms: N_5  and  C_9
REMARK    4  A    between atoms: C_9  and  C_10
REMARK    5  A    between atoms: C_10  and  C_12
REMARK    6  A    between atoms: C_23  and  N_25
REMARK                            x       y       z     vdW  Elec       q    Type
REMARK                         _______ _______ _______ _____ _____    ______ ____
ROOT
ATOM      1  C   UNL     1      -2.079   1.882  -1.237  0.00  0.00    +0.047 C 
ATOM      2  C   UNL     1      -1.235   2.107   0.018  0.00  0.00    +0.135 C 
ATOM      3  C   UNL     1      -0.014   1.208   0.009  0.00  0.00    +0.251 C 
ATOM      4  O   UNL     1       0.002  -0.004   0.002  0.00  0.00    -0.272 OA
ATOM      5  N   UNL     1       1.048   2.037   0.003  0.00  0.00    -0.216 N 
ATOM      6  C   UNL     1       0.673   3.321   0.013  0.00  0.00    +0.310 C 
ATOM      7  O   UNL     1       1.453   4.253   0.010  0.00  0.00    -0.252 OA
ATOM      8  N   UNL     1      -0.664   3.465   0.026  0.00  0.00    -0.281 N 
ATOM      9  H   UNL     1      -1.157   4.301   0.034  0.00  0.00    +0.152 HD
ENDROOT
BRANCH   2  10
ATOM     10  C   UNL     1      -2.056   1.873   1.260  0.00  0.00    -0.014 A 
ATOM     11  C   UNL     1      -2.066   0.626   1.857  0.00  0.00    +0.006 A 
ATOM     12  C   UNL     1      -2.818   0.407   2.996  0.00  0.00    +0.002 A 
ATOM     13  C   UNL     1      -3.561   1.435   3.542  0.00  0.00    +0.028 A 
ATOM     14  C   UNL     1      -3.553   2.689   2.946  0.00  0.00    +0.069 A 
ATOM     15  C   UNL     1      -2.793   2.906   1.805  0.00  0.00    +0.034 A 
BRANCH  14  16
ATOM     16  N   UNL     1      -4.307   3.735   3.498  0.00  0.00    -0.200 N 
ATOM     17  C   UNL     1      -5.019   3.715   4.646  0.00  0.00    +0.250 A 
ATOM     18  N   UNL     1      -5.563   4.896   4.785  0.00  0.00    -0.116 NA
ATOM     19  N   UNL     1      -5.250   5.658   3.800  0.00  0.00    -0.023 NA
ATOM     20  N   UNL     1      -4.489   5.026   2.973  0.00  0.00    -0.039 NA
ENDBRANCH  14  16
ENDBRANCH   2  10
BRANCH   5  21
ATOM     21  C   UNL     1       2.443   1.587  -0.011  0.00  0.00    +0.197 C 
BRANCH  21  22
ATOM     22  C   UNL     1       2.908   1.439  -1.437  0.00  0.00    +0.183 C 
ATOM     23  O   UNL     1       2.150   1.685  -2.352  0.00  0.00    -0.290 OA
BRANCH  22  24
ATOM     24  C   UNL     1       4.273   0.999  -1.718  0.00  0.00    +0.046 A 
ATOM     25  C   UNL     1       5.207   0.702  -0.656  0.00  0.00    +0.040 A 
ATOM     26  C   UNL     1       6.439   0.299  -1.018  0.00  0.00    +0.080 A 
ATOM     27  S   UNL     1       6.371   0.324  -2.797  0.00  0.00    -0.065 S 
ATOM     28  C   UNL     1       4.736   0.852  -3.016  0.00  0.00    +0.090 A 
ATOM     29 CL   UNL     1       3.883   1.129  -4.502  0.00  0.00    -0.075 Cl
ATOM     30 CL   UNL     1       7.775  -0.134   0.004  0.00  0.00    -0.076 Cl
ENDBRANCH  22  24
ENDBRANCH  21  22
ENDBRANCH   5  21
TORSDOF 5
