REMARK  Name = ZINC63405899
REMARK  7 active torsions:
REMARK  status: ('A' for Active; 'I' for Inactive)
REMARK    1  A    between atoms: C_7  and  C_10
REMARK    2  A    between atoms: N_11  and  N_12
REMARK    3  A    between atoms: C_13  and  C_15
REMARK    4  A    between atoms: C_18  and  C_22
REMARK    5  A    between atoms: C_25  and  O_28
REMARK    6  A    between atoms: O_28  and  C_29
REMARK    7  A    between atoms: C_29  and  C_30
REMARK                            x       y       z     vdW  Elec       q    Type
REMARK                         _______ _______ _______ _____ _____    ______ ____
ROOT
ATOM      1  C   UNL     1      -0.220  -7.864  -0.038  0.00  0.00    +0.215 C 
ATOM      2  C   UNL     1      -0.708  -8.164   1.401  0.00  0.00    +0.069 C 
ATOM      3  C   UNL     1      -0.725  -9.712   1.365  0.00  0.00    +0.131 C 
ATOM      4  N   UNL     1       0.210 -10.053   0.284  0.00  0.00    -0.305 N 
ATOM      5  N   UNL     1       0.471  -9.095  -0.447  0.00  0.00    -0.203 NA
ATOM      6  H   UNL     1       0.582 -10.940   0.157  0.00  0.00    +0.183 HD
ENDROOT
BRANCH   3   7
ATOM      7  C   UNL     1      -0.247 -10.277   2.678  0.00  0.00    -0.023 A 
ATOM      8  C   UNL     1       1.107 -10.340   2.951  0.00  0.00    +0.009 A 
ATOM      9  C   UNL     1       1.547 -10.857   4.154  0.00  0.00    +0.046 A 
ATOM     10  C   UNL     1       0.629 -11.313   5.089  0.00  0.00    +0.121 A 
ATOM     11  C   UNL     1      -0.729 -11.249   4.813  0.00  0.00    +0.046 A 
ATOM     12  C   UNL     1      -1.164 -10.726   3.611  0.00  0.00    +0.009 A 
BRANCH  10  13
ATOM     13  O   UNL     1       1.060 -11.823   6.272  0.00  0.00    -0.487 OA
BRANCH  13  14
ATOM     14  C   UNL     1       0.059 -12.274   7.187  0.00  0.00    +0.264 C 
BRANCH  14  15
ATOM     15  C   UNL     1       0.719 -12.802   8.435  0.00  0.00    -0.010 A 
ATOM     16  C   UNL     1       1.073 -14.136   8.517  0.00  0.00    +0.008 A 
ATOM     17  C   UNL     1       1.679 -14.621   9.660  0.00  0.00    +0.020 A 
ATOM     18  C   UNL     1       1.931 -13.772  10.723  0.00  0.00    +0.041 A 
ATOM     19  C   UNL     1       1.576 -12.437  10.640  0.00  0.00    +0.020 A 
ATOM     20  C   UNL     1       0.976 -11.952   9.494  0.00  0.00    +0.008 A 
ATOM     21 CL   UNL     1       2.691 -14.381  12.160  0.00  0.00    -0.084 Cl
ENDBRANCH  14  15
ENDBRANCH  13  14
ENDBRANCH  10  13
ENDBRANCH   3   7
BRANCH   1  23
ATOM     22  N   UNL     1       0.255  -5.437  -0.030  0.00  0.00    -0.205 N 
ATOM     23  C   UNL     1       0.733  -6.697  -0.041  0.00  0.00    +0.259 C 
ATOM     24  O   UNL     1       1.930  -6.892  -0.054  0.00  0.00    -0.272 OA
ATOM     25  H   UNL     1      -0.702  -5.281  -0.020  0.00  0.00    +0.177 HD
BRANCH  22  27
ATOM     26  C   UNL     1       0.677  -3.128  -0.022  0.00  0.00    +0.136 C 
ATOM     27  N   UNL     1       1.141  -4.352  -0.033  0.00  0.00    -0.188 NA
BRANCH  26  34
ATOM     28  C   UNL     1      -0.016   1.353   0.009  0.00  0.00    +0.001 A 
ATOM     29  C   UNL     1       1.164   2.102   0.002  0.00  0.00    +0.002 A 
ATOM     30  C   UNL     1       2.384   1.514  -0.013  0.00  0.00    +0.026 A 
ATOM     31  C   UNL     1       2.485   0.097  -0.022  0.00  0.00    +0.043 A 
ATOM     32  N   UNL     1       3.531  -0.702  -0.037  0.00  0.00    -0.380 N 
ATOM     33  C   UNL     1       3.076  -2.096  -0.040  0.00  0.00    +0.150 C 
ATOM     34  C   UNL     1       1.565  -2.042  -0.024  0.00  0.00    +0.000 C 
ATOM     35  C   UNL     1       1.238  -0.688  -0.013  0.00  0.00    +0.004 A 
ATOM     36  C   UNL     1       0.002  -0.004   0.002  0.00  0.00    +0.010 A 
ATOM     37  H   UNL     1       4.458  -0.414  -0.045  0.00  0.00    +0.160 HD
ENDBRANCH  26  34
ENDBRANCH  22  27
ENDBRANCH   1  23
TORSDOF 7
