REMARK  Name = ZINC16022619
REMARK  6 active torsions:
REMARK  status: ('A' for Active; 'I' for Inactive)
REMARK    1  A    between atoms: C_1  and  C_2
REMARK    2  A    between atoms: C_12  and  C_14
REMARK    3  A    between atoms: C_14  and  S_15
REMARK    4  A    between atoms: S_15  and  C_16
REMARK    5  A    between atoms: C_19  and  C_25
REMARK    6  A    between atoms: C_21  and  N_22
REMARK                            x       y       z     vdW  Elec       q    Type
REMARK                         _______ _______ _______ _____ _____    ______ ____
ROOT
ATOM      1  S   UNL     1      -2.747   1.254   0.022  0.00  0.00    -0.114 S 
ENDROOT
BRANCH   1   2
ATOM      2  C   UNL     1      -1.233   2.157   0.020  0.00  0.00    +0.039 A 
ATOM      3  C   UNL     1      -1.254   3.550   0.033  0.00  0.00    +0.018 A 
ATOM      4  C   UNL     1      -0.085   4.254   0.026  0.00  0.00    +0.014 A 
ATOM      5  C   UNL     1       1.140   3.579   0.010  0.00  0.00    +0.039 A 
ATOM      6  C   UNL     1       1.164   2.181   0.003  0.00  0.00    +0.047 A 
ATOM      7  C   UNL     1      -0.018   1.476   0.010  0.00  0.00    +0.140 A 
BRANCH   5   8
ATOM      8  C   UNL     1       2.403   4.340   0.003  0.00  0.00    +0.242 C 
ATOM      9  O   UNL     1       3.467   3.752  -0.010  0.00  0.00    -0.270 OA
ATOM     10  N   UNL     1       2.378   5.688   0.011  0.00  0.00    -0.325 N 
ATOM     11  H   UNL     1       1.529   6.157   0.021  0.00  0.00    +0.145 HD
ATOM     12  H   UNL     1       3.209   6.188   0.006  0.00  0.00    +0.145 HD
ENDBRANCH   5   8
BRANCH   7  13
ATOM     13  N   UNL     1       0.002  -0.004   0.002  0.00  0.00    +0.058 N 
ATOM     14  O   UNL     1       1.065  -0.599  -0.011  0.00  0.00    -0.126 OA
ATOM     15  O   UNL     1      -1.044  -0.627   0.009  0.00  0.00    -0.126 OA
ENDBRANCH   7  13
ENDBRANCH   1   2
BRANCH   1  16
ATOM     16  C   UNL     1      -4.025   2.541   0.035  0.00  0.00    +0.170 C 
BRANCH  16  27
ATOM     17  C   UNL     1      -8.123   1.306   1.294  0.00  0.00    +0.029 C 
ATOM     18  C   UNL     1      -7.870   2.153   0.045  0.00  0.00    +0.083 C 
ATOM     19  C   UNL     1      -8.764   3.403   0.061  0.00  0.00    +0.059 C 
ATOM     20  C   UNL     1      -7.794   4.564   0.063  0.00  0.00    -0.024 A 
ATOM     21  C   UNL     1      -8.014   5.928   0.070  0.00  0.00    +0.005 A 
ATOM     22  C   UNL     1      -6.945   6.804   0.069  0.00  0.00    +0.000 A 
ATOM     23  C   UNL     1      -5.653   6.312   0.061  0.00  0.00    +0.002 A 
ATOM     24  C   UNL     1      -5.428   4.952   0.054  0.00  0.00    +0.024 A 
ATOM     25  C   UNL     1      -6.503   4.061   0.054  0.00  0.00    +0.040 A 
ATOM     26  N   UNL     1      -6.496   2.663   0.047  0.00  0.00    -0.267 N 
ATOM     27  C   UNL     1      -5.387   1.896   0.038  0.00  0.00    +0.230 C 
ATOM     28  O   UNL     1      -5.486   0.687   0.032  0.00  0.00    -0.274 OA
ENDBRANCH  16  27
ENDBRANCH   1  16
TORSDOF 5
