REMARK  Name = ZINC66956029
REMARK  12 active torsions:
REMARK  status: ('A' for Active; 'I' for Inactive)
REMARK    1  A    between atoms: C_1  and  C_2
REMARK    2  A    between atoms: C_3  and  C_8
REMARK    3  A    between atoms: C_5  and  C_7
REMARK    4  A    between atoms: C_8  and  C_10
REMARK    5  A    between atoms: C_8  and  N_11
REMARK    6  A    between atoms: N_11  and  C_12
REMARK    7  A    between atoms: N_15  and  C_16
REMARK    8  A    between atoms: C_21  and  S_22
REMARK    9  A    between atoms: S_22  and  C_23
REMARK   10  A    between atoms: C_23  and  C_25
REMARK   11  A    between atoms: C_23  and  C_26
REMARK   12  A    between atoms: C_26  and  C_27
REMARK                            x       y       z     vdW  Elec       q    Type
REMARK                         _______ _______ _______ _____ _____    ______ ____
ROOT
ATOM      1  N   UNL     1       0.868  -0.721  -3.527  0.00  0.00    -0.281 N 
ATOM      2  C   UNL     1       0.613  -2.154  -3.691  0.00  0.00    +0.134 C 
ATOM      3  C   UNL     1       1.976  -0.168  -4.059  0.00  0.00    +0.307 C 
ATOM      4  O   UNL     1       2.187   1.022  -3.923  0.00  0.00    -0.252 OA
ATOM      5  N   UNL     1       2.850  -0.933  -4.742  0.00  0.00    -0.268 N 
ATOM      6  H   UNL     1       2.720  -1.894  -4.788  0.00  0.00    +0.156 HD
ENDROOT
BRANCH   5   7
ATOM      7  C   UNL     1       3.946  -0.342  -5.385  0.00  0.00    +0.048 A 
ATOM      8  C   UNL     1       4.560   0.770  -4.831  0.00  0.00    +0.024 A 
ATOM      9  C   UNL     1       5.641   1.352  -5.468  0.00  0.00    +0.002 A 
ATOM     10  C   UNL     1       6.113   0.828  -6.657  0.00  0.00    +0.001 A 
ATOM     11  C   UNL     1       5.507  -0.281  -7.217  0.00  0.00    +0.016 A 
ATOM     12  C   UNL     1       4.425  -0.875  -6.582  0.00  0.00    +0.029 A 
BRANCH  12  13
ATOM     13  S   UNL     1       3.655  -2.293  -7.290  0.00  0.00    -0.119 S 
BRANCH  13  14
ATOM     14  C   UNL     1       4.617  -2.609  -8.795  0.00  0.00    +0.062 C 
ATOM     15  C   UNL     1       4.269  -1.561  -9.853  0.00  0.00    +0.020 C 
BRANCH  14  16
ATOM     16  C   UNL     1       4.283  -4.004  -9.330  0.00  0.00    +0.132 C 
BRANCH  16  17
ATOM     17  C   UNL     1       4.729  -5.020  -8.362  0.00  0.00    +0.064 C 
ATOM     18  N   UNL     1       5.072  -5.804  -7.615  0.00  0.00    -0.197 NA
ENDBRANCH  16  17
ENDBRANCH  14  16
ENDBRANCH  13  14
ENDBRANCH  12  13
ENDBRANCH   5   7
BRANCH   1  19
ATOM     19  C   UNL     1      -0.082   0.111  -2.785  0.00  0.00    +0.113 C 
ATOM     20  C   UNL     1      -1.451   0.055  -3.466  0.00  0.00    +0.034 C 
BRANCH  19  23
ATOM     21  C   UNL     1      -0.079   1.783  -0.162  0.00  0.00    +0.066 C 
ATOM     22  C   UNL     1      -0.207   0.282  -0.200  0.00  0.00    +0.051 A 
ATOM     23  C   UNL     1      -0.202  -0.401  -1.373  0.00  0.00    +0.033 A 
ATOM     24  S   UNL     1      -0.379  -2.076  -0.778  0.00  0.00    -0.075 S 
ATOM     25  C   UNL     1      -0.438  -1.732   0.868  0.00  0.00    +0.076 A 
ATOM     26  N   UNL     1      -0.322  -0.428   0.905  0.00  0.00    -0.249 NA
ATOM     27  C   UNL     1      -0.582  -2.692   2.020  0.00  0.00    +0.073 C 
ENDBRANCH  19  23
ENDBRANCH   1  19
TORSDOF 7
