REMARK  Name = ZINC06918009
REMARK  6 active torsions:
REMARK  status: ('A' for Active; 'I' for Inactive)
REMARK    1  A    between atoms: C_1  and  C_2
REMARK    2  A    between atoms: C_7  and  N_12
REMARK    3  A    between atoms: C_9  and  C_11
REMARK    4  A    between atoms: C_13  and  C_15
REMARK    5  A    between atoms: C_15  and  C_16
REMARK    6  A    between atoms: C_19  and  N_22
REMARK                            x       y       z     vdW  Elec       q    Type
REMARK                         _______ _______ _______ _____ _____    ______ ____
ROOT
ATOM      1  C   UNL     1       7.056   5.781  -0.038  0.00  0.00    -0.038 A 
ATOM      2  C   UNL     1       5.826   6.407  -0.127  0.00  0.00    +0.006 A 
ATOM      3  C   UNL     1       4.666   5.657  -0.119  0.00  0.00    +0.027 A 
ATOM      4  C   UNL     1       4.736   4.273  -0.022  0.00  0.00    +0.054 A 
ATOM      5  C   UNL     1       5.973   3.649   0.072  0.00  0.00    +0.027 A 
ATOM      6  C   UNL     1       7.129   4.404   0.058  0.00  0.00    +0.006 A 
ENDROOT
BRANCH   4   7
ATOM      7  N   UNL     1       3.561   3.510  -0.014  0.00  0.00    -0.229 N 
ATOM      8  C   UNL     1       2.961   3.230   1.163  0.00  0.00    +0.269 A 
ATOM      9  O   UNL     1       3.427   3.633   2.212  0.00  0.00    -0.266 OA
ATOM     10  C   UNL     1       1.727   2.425   1.143  0.00  0.00    +0.063 A 
ATOM     11  C   UNL     1       1.049   2.095   2.315  0.00  0.00    +0.015 A 
ATOM     12  C   UNL     1      -0.102   1.339   2.243  0.00  0.00    +0.001 A 
ATOM     13  C   UNL     1      -0.584   0.908   1.017  0.00  0.00    +0.002 A 
ATOM     14  C   UNL     1       0.078   1.228  -0.152  0.00  0.00    +0.026 A 
ATOM     15  C   UNL     1       1.237   1.988  -0.100  0.00  0.00    +0.056 A 
ATOM     16  N   UNL     1       1.933   2.332  -1.250  0.00  0.00    -0.307 N 
ATOM     17  H   UNL     1       1.597   2.029  -2.141  0.00  0.00    +0.170 HD
ATOM     18  C   UNL     1       3.055   3.069  -1.177  0.00  0.00    +0.334 A 
ATOM     19  O   UNL     1       3.635   3.348  -2.208  0.00  0.00    -0.246 OA
ENDBRANCH   4   7
BRANCH   1  20
ATOM     20  C   UNL     1       8.319   6.603  -0.047  0.00  0.00    +0.130 C 
BRANCH  20  22
ATOM     21  N   UNL     1       9.789   7.712   1.605  0.00  0.00    -0.312 N 
ATOM     22  C   UNL     1       8.688   6.973   1.367  0.00  0.00    +0.218 C 
ATOM     23  O   UNL     1       7.992   6.606   2.290  0.00  0.00    -0.275 OA
ATOM     24  H   UNL     1      10.345   8.005   0.866  0.00  0.00    +0.149 HD
BRANCH  21  30
ATOM     25  C   UNL     1      13.107  10.389   2.145  0.00  0.00    +0.008 C 
ATOM     26  C   UNL     1      12.264   9.112   2.155  0.00  0.00    -0.009 C 
ATOM     27  C   UNL     1      13.069   7.974   2.787  0.00  0.00    +0.003 C 
ATOM     28  C   UNL     1      12.226   6.698   2.797  0.00  0.00    +0.002 C 
ATOM     29  C   UNL     1      10.953   6.934   3.611  0.00  0.00    +0.022 C 
ATOM     30  C   UNL     1      10.147   8.071   2.979  0.00  0.00    +0.076 C 
ATOM     31  C   UNL     1      10.990   9.348   2.969  0.00  0.00    +0.009 C 
ATOM     32  C   UNL     1      10.185  10.486   2.337  0.00  0.00    +0.009 C 
ENDBRANCH  21  30
ENDBRANCH  20  22
ENDBRANCH   1  20
TORSDOF 4
