REMARK  Name = ZINC39621261
REMARK  10 active torsions:
REMARK  status: ('A' for Active; 'I' for Inactive)
REMARK    1  A    between atoms: C_1  and  C_2
REMARK    2  A    between atoms: C_6  and  C_29
REMARK    3  A    between atoms: C_7  and  N_8
REMARK    4  A    between atoms: C_9  and  C_11
REMARK    5  A    between atoms: C_11  and  C_13
REMARK    6  A    between atoms: C_11  and  O_14
REMARK    7  A    between atoms: O_14  and  C_15
REMARK    8  A    between atoms: C_15  and  C_17
REMARK    9  A    between atoms: C_29  and  C_30
REMARK   10  A    between atoms: C_29  and  C_31
REMARK                            x       y       z     vdW  Elec       q    Type
REMARK                         _______ _______ _______ _____ _____    ______ ____
ROOT
ATOM      1  C   UNL     1      -0.016   2.188   3.628  0.00  0.00    +0.259 C 
ATOM      2  C   UNL     1      -0.844   1.601   4.773  0.00  0.00    +0.062 C 
ENDROOT
BRANCH   1   4
ATOM      3  N   UNL     1       0.203   0.079   2.354  0.00  0.00    -0.282 N 
ATOM      4  C   UNL     1      -0.217   1.359   2.386  0.00  0.00    +0.258 C 
ATOM      5  O   UNL     1      -0.758   1.843   1.414  0.00  0.00    -0.271 OA
ATOM      6  H   UNL     1       0.566  -0.332   3.155  0.00  0.00    +0.155 HD
BRANCH   3  13
ATOM      7  C   UNL     1      -2.383  -0.569   1.361  0.00  0.00    +0.045 C 
ATOM      8  C   UNL     1      -1.126  -0.995   0.647  0.00  0.00    -0.029 A 
ATOM      9  C   UNL     1      -1.208  -1.717  -0.527  0.00  0.00    +0.005 A 
ATOM     10  C   UNL     1      -0.055  -2.108  -1.182  0.00  0.00    +0.001 A 
ATOM     11  C   UNL     1       1.184  -1.778  -0.664  0.00  0.00    +0.006 A 
ATOM     12  C   UNL     1       1.273  -1.056   0.510  0.00  0.00    -0.023 A 
ATOM     13  C   UNL     1       0.117  -0.657   1.168  0.00  0.00    +0.040 A 
BRANCH  12  14
ATOM     14  C   UNL     1       2.624  -0.697   1.074  0.00  0.00    +0.015 C 
ATOM     15  C   UNL     1       3.410  -1.976   1.367  0.00  0.00    +0.012 C 
ATOM     16  C   UNL     1       3.391   0.153   0.059  0.00  0.00    +0.012 C 
ENDBRANCH  12  14
ENDBRANCH   3  13
ENDBRANCH   1   4
BRANCH   1  17
ATOM     17  O   UNL     1      -0.435   3.531   3.377  0.00  0.00    -0.452 OA
BRANCH  17  18
ATOM     18  C   UNL     1       0.193   4.503   4.058  0.00  0.00    +0.311 C 
ATOM     19  O   UNL     1       1.069   4.222   4.841  0.00  0.00    -0.251 OA
BRANCH  18  20
ATOM     20  C   UNL     1      -0.199   5.956   3.844  0.00  0.00    +0.099 C 
ATOM     21  C   UNL     1      -0.057   6.266   2.363  0.00  0.00    +0.025 C 
ATOM     22  C   UNL     1      -0.137   7.756   2.047  0.00  0.00    +0.056 C 
ATOM     23  C   UNL     1      -1.530   8.307   2.336  0.00  0.00    +0.011 C 
ATOM     24  C   UNL     1      -1.884   8.303   3.811  0.00  0.00    +0.001 C 
ATOM     25  C   UNL     1      -0.806   8.847   4.729  0.00  0.00    +0.011 C 
ATOM     26  C   UNL     1       0.586   8.303   4.425  0.00  0.00    +0.056 C 
ATOM     27  C   UNL     1       0.677   6.814   4.743  0.00  0.00    +0.025 C 
ATOM     28  C   UNL     1       0.851   8.483   2.941  0.00  0.00    +0.140 C 
ATOM     29  O   UNL     1       1.763   9.144   2.512  0.00  0.00    -0.297 OA
ENDBRANCH  18  20
ENDBRANCH  17  18
ENDBRANCH   1  17
TORSDOF 6
