REMARK  Name = ZINC14457065
REMARK  6 active torsions:
REMARK  status: ('A' for Active; 'I' for Inactive)
REMARK    1  A    between atoms: C_1  and  C_2
REMARK    2  A    between atoms: C_4  and  N_27
REMARK    3  A    between atoms: C_9  and  C_18
REMARK    4  A    between atoms: C_21  and  O_25
REMARK    5  A    between atoms: C_22  and  O_24
REMARK    6  A    between atoms: O_25  and  C_26
REMARK                            x       y       z     vdW  Elec       q    Type
REMARK                         _______ _______ _______ _____ _____    ______ ____
ROOT
ATOM      1  C   UNL     1       5.192   3.308   2.366  0.00  0.00    +0.046 C 
ATOM      2  C   UNL     1       4.969   3.649   0.916  0.00  0.00    -0.027 A 
ATOM      3  C   UNL     1       5.625   4.727   0.362  0.00  0.00    +0.038 A 
ATOM      4  C   UNL     1       5.432   5.051  -0.968  0.00  0.00    +0.127 A 
ATOM      5  C   UNL     1       4.569   4.294  -1.738  0.00  0.00    +0.038 A 
ATOM      6  C   UNL     1       3.900   3.220  -1.189  0.00  0.00    -0.017 A 
ATOM      7  C   UNL     1       4.101   2.870   0.149  0.00  0.00    +0.034 A 
ATOM      8  N   UNL     1       3.489   1.785   0.772  0.00  0.00    -0.336 N 
ATOM      9  C   UNL     1       2.489   1.046  -0.016  0.00  0.00    +0.105 C 
ATOM     10  C   UNL     1       3.015   0.959  -1.433  0.00  0.00    +0.029 C 
ATOM     11  C   UNL     1       2.936   2.420  -1.974  0.00  0.00    +0.049 C 
ATOM     12  C   UNL     1       3.043   2.244  -3.442  0.00  0.00    -0.023 C 
ATOM     13  C   UNL     1       2.557   1.049  -3.760  0.00  0.00    -0.030 C 
ATOM     14  C   UNL     1       2.115   0.312  -2.493  0.00  0.00    +0.033 C 
ATOM     15  H   UNL     1       3.117   2.047   1.673  0.00  0.00    +0.147 HD
ENDROOT
BRANCH   9  16
ATOM     16  C   UNL     1       1.175   1.783   0.000  0.00  0.00    -0.023 A 
ATOM     17  C   UNL     1       1.152   3.147   0.228  0.00  0.00    +0.009 A 
ATOM     18  C   UNL     1      -0.051   3.828   0.244  0.00  0.00    +0.050 A 
ATOM     19  C   UNL     1      -1.237   3.143   0.032  0.00  0.00    +0.161 A 
ATOM     20  C   UNL     1      -1.213   1.772  -0.203  0.00  0.00    +0.159 A 
ATOM     21  C   UNL     1      -0.005   1.095  -0.212  0.00  0.00    +0.054 A 
BRANCH  20  22
ATOM     22  O   UNL     1      -2.374   1.097  -0.417  0.00  0.00    -0.503 OA
ATOM     23  H   UNL     1      -2.786   0.756   0.389  0.00  0.00    +0.292 HD
ENDBRANCH  20  22
BRANCH  19  24
ATOM     24  O   UNL     1      -2.421   3.812   0.046  0.00  0.00    -0.491 OA
ATOM     25  C   UNL     1      -2.369   5.220   0.286  0.00  0.00    +0.277 C 
ENDBRANCH  19  24
ENDBRANCH   9  16
BRANCH   4  26
ATOM     26  N   UNL     1       6.144   6.203  -1.564  0.00  0.00    +0.056 N 
ATOM     27  O   UNL     1       5.971   6.486  -2.736  0.00  0.00    -0.126 OA
ATOM     28  O   UNL     1       6.904   6.868  -0.883  0.00  0.00    -0.126 OA
ENDBRANCH   4  26
TORSDOF 4
