REMARK  Name = ZINC49756463
REMARK  5 active torsions:
REMARK  status: ('A' for Active; 'I' for Inactive)
REMARK    1  A    between atoms: C_1  and  C_2
REMARK    2  A    between atoms: C_2  and  C_25
REMARK    3  A    between atoms: C_8  and  N_13
REMARK    4  A    between atoms: C_14  and  C_16
REMARK    5  A    between atoms: C_17  and  C_18
REMARK                            x       y       z     vdW  Elec       q    Type
REMARK                         _______ _______ _______ _____ _____    ______ ____
ROOT
ATOM      1  C   UNL     1      -0.134   1.572   0.172  0.00  0.00    +0.065 C 
ATOM      2  C   UNL     1      -0.160   0.043   0.137  0.00  0.00    +0.180 C 
ATOM      3  C   UNL     1      -1.573  -0.441   0.339  0.00  0.00    +0.261 C 
ATOM      4  O   UNL     1      -2.508   0.249  -0.010  0.00  0.00    -0.271 OA
ATOM      5  N   UNL     1      -1.795  -1.645   0.909  0.00  0.00    -0.279 N 
ATOM      6  C   UNL     1      -0.698  -2.407   1.334  0.00  0.00    +0.077 A 
ATOM      7  C   UNL     1      -0.843  -3.754   1.622  0.00  0.00    +0.050 A 
ATOM      8  C   UNL     1       0.257  -4.491   2.043  0.00  0.00    +0.036 A 
ATOM      9  C   UNL     1       1.496  -3.878   2.175  0.00  0.00    +0.027 A 
ATOM     10  C   UNL     1       1.641  -2.534   1.886  0.00  0.00    +0.049 A 
ATOM     11  C   UNL     1       0.548  -1.795   1.466  0.00  0.00    +0.143 A 
ATOM     12  O   UNL     1       0.677  -0.472   1.176  0.00  0.00    -0.475 OA
ATOM     13  C   UNL     1       0.355  -0.444  -1.220  0.00  0.00    +0.065 C 
ATOM     14  H   UNL     1      -2.699  -1.977   1.022  0.00  0.00    +0.155 HD
ENDROOT
BRANCH   8  15
ATOM     15  N   UNL     1       0.115  -5.853   2.336  0.00  0.00    -0.282 N 
ATOM     16  C   UNL     1      -0.765  -6.603   1.644  0.00  0.00    +0.241 C 
ATOM     17  O   UNL     1      -1.366  -6.121   0.701  0.00  0.00    -0.270 OA
ATOM     18  H   UNL     1       0.650  -6.256   3.038  0.00  0.00    +0.155 HD
BRANCH  16  19
ATOM     19  C   UNL     1      -0.997  -7.997   2.025  0.00  0.00    +0.068 C 
ATOM     20  C   UNL     1      -1.877  -8.748   1.332  0.00  0.00    +0.013 C 
BRANCH  20  21
ATOM     21  C   UNL     1      -2.111 -10.149   1.715  0.00  0.00    -0.025 A 
ATOM     22  C   UNL     1      -1.426 -10.704   2.801  0.00  0.00    +0.009 A 
ATOM     23  C   UNL     1      -1.651 -12.017   3.155  0.00  0.00    +0.020 A 
ATOM     24  C   UNL     1      -2.551 -12.787   2.437  0.00  0.00    +0.041 A 
ATOM     25  C   UNL     1      -3.233 -12.244   1.360  0.00  0.00    +0.020 A 
ATOM     26  C   UNL     1      -3.023 -10.931   0.998  0.00  0.00    +0.009 A 
ATOM     27 CL   UNL     1      -2.826 -14.441   2.889  0.00  0.00    -0.084 Cl
ENDBRANCH  20  21
ENDBRANCH  16  19
ENDBRANCH   8  15
TORSDOF 3
