REMARK  Name = ZINC05387278
REMARK  10 active torsions:
REMARK  status: ('A' for Active; 'I' for Inactive)
REMARK    1  A    between atoms: C_1  and  C_2
REMARK    2  A    between atoms: C_5  and  N_9
REMARK    3  A    between atoms: C_7  and  C_8
REMARK    4  A    between atoms: N_9  and  C_10
REMARK    5  A    between atoms: C_10  and  C_11
REMARK    6  A    between atoms: C_11  and  C_13
REMARK    7  A    between atoms: C_11  and  O_27
REMARK    8  A    between atoms: C_13  and  N_14
REMARK    9  A    between atoms: N_21  and  C_26
REMARK   10  A    between atoms: N_24  and  C_25
REMARK                            x       y       z     vdW  Elec       q    Type
REMARK                         _______ _______ _______ _____ _____    ______ ____
ROOT
ATOM      1  C   UNL     1       1.841   3.802   4.974  0.00  0.00    +0.151 C 
ENDROOT
BRANCH   1   2
ATOM      2  O   UNL     1       1.992   3.911   3.557  0.00  0.00    -0.388 OA
ATOM      3  H   UNL     1       2.495   3.188   3.158  0.00  0.00    +0.210 HD
ENDBRANCH   1   2
BRANCH   1   4
ATOM      4  C   UNL     1       3.221   3.793   5.635  0.00  0.00    +0.134 C 
BRANCH   4   5
ATOM      5  N   UNL     1       3.877   5.084   5.413  0.00  0.00    -0.341 N 
ATOM      6  H   UNL     1       3.424   5.778   4.910  0.00  0.00    +0.146 HD
BRANCH   5  11
ATOM      7  C   UNL     1       9.066   6.022   7.498  0.00  0.00    +0.044 C 
ATOM      8  C   UNL     1       7.687   5.773   6.944  0.00  0.00    -0.047 A 
ATOM      9  C   UNL     1       7.069   4.553   7.154  0.00  0.00    +0.005 A 
ATOM     10  C   UNL     1       5.804   4.323   6.652  0.00  0.00    +0.023 A 
ATOM     11  C   UNL     1       5.155   5.315   5.927  0.00  0.00    +0.027 A 
ATOM     12  C   UNL     1       5.779   6.538   5.718  0.00  0.00    +0.026 A 
ATOM     13  C   UNL     1       7.043   6.763   6.227  0.00  0.00    -0.046 A 
ATOM     14  C   UNL     1       7.720   8.091   6.000  0.00  0.00    +0.044 C 
ENDBRANCH   5  11
ENDBRANCH   4   5
ENDBRANCH   1   4
BRANCH   1  15
ATOM     15  C   UNL     1       1.106   2.503   5.310  0.00  0.00    +0.156 C 
BRANCH  15  16
ATOM     16  N   UNL     1      -0.258   2.562   4.778  0.00  0.00    -0.322 N 
ATOM     17  C   UNL     1      -1.364   2.940   5.448  0.00  0.00    +0.202 A 
ATOM     18  N   UNL     1      -2.404   2.869   4.658  0.00  0.00    -0.218 NA
ATOM     19  C   UNL     1      -2.027   2.445   3.449  0.00  0.00    +0.168 A 
ATOM     20  C   UNL     1      -0.654   2.239   3.495  0.00  0.00    +0.152 A 
ATOM     21  C   UNL     1       0.013   1.783   2.338  0.00  0.00    +0.282 A 
ATOM     22  O   UNL     1       1.216   1.596   2.353  0.00  0.00    -0.265 OA
ATOM     23  N   UNL     1      -0.698   1.558   1.213  0.00  0.00    -0.262 N 
ATOM     24  C   UNL     1      -2.026   1.766   1.181  0.00  0.00    +0.333 A 
ATOM     25  O   UNL     1      -2.634   1.558   0.149  0.00  0.00    -0.246 OA
ATOM     26  N   UNL     1      -2.701   2.195   2.264  0.00  0.00    -0.280 N 
ATOM     27  C   UNL     1      -4.149   2.405   2.189  0.00  0.00    +0.155 C 
ATOM     28  C   UNL     1      -0.013   1.086   0.008  0.00  0.00    +0.157 C 
ENDBRANCH  15  16
ENDBRANCH   1  15
TORSDOF 6
