REMARK  Name = ZINC53557149
REMARK  5 active torsions:
REMARK  status: ('A' for Active; 'I' for Inactive)
REMARK    1  A    between atoms: C_1  and  N_2
REMARK    2  A    between atoms: C_3  and  C_5
REMARK    3  A    between atoms: C_8  and  S_14
REMARK    4  A    between atoms: C_9  and  N_11
REMARK    5  A    between atoms: S_14  and  C_15
REMARK                            x       y       z     vdW  Elec       q    Type
REMARK                         _______ _______ _______ _____ _____    ______ ____
ROOT
ATOM      1  C   UNL     1       1.113  -2.196  -1.611  0.00  0.00    +0.039 A 
ATOM      2  C   UNL     1       0.465  -2.699  -0.479  0.00  0.00    +0.014 A 
ATOM      3  C   UNL     1       0.331  -4.058  -0.312  0.00  0.00    +0.018 A 
ATOM      4  C   UNL     1       0.841  -4.932  -1.268  0.00  0.00    +0.046 A 
ATOM      5  C   UNL     1       1.488  -4.434  -2.396  0.00  0.00    +0.141 A 
ATOM      6  C   UNL     1       1.619  -3.076  -2.572  0.00  0.00    +0.047 A 
ENDROOT
BRANCH   1   9
ATOM      7  C   UNL     1       0.915   1.554  -1.046  0.00  0.00    +0.128 C 
ATOM      8  N   UNL     1       0.771   0.108  -0.866  0.00  0.00    -0.314 N 
ATOM      9  C   UNL     1       1.259  -0.739  -1.793  0.00  0.00    +0.244 C 
ATOM     10  O   UNL     1       1.819  -0.303  -2.780  0.00  0.00    -0.270 OA
ATOM     11  H   UNL     1       0.324  -0.240  -0.078  0.00  0.00    +0.149 HD
ENDBRANCH   1   9
BRANCH   5  12
ATOM     12  N   UNL     1       2.030  -5.367  -3.410  0.00  0.00    +0.058 N 
ATOM     13  O   UNL     1       2.591  -4.936  -4.389  0.00  0.00    -0.126 OA
ATOM     14  O   UNL     1       1.910  -6.561  -3.258  0.00  0.00    -0.126 OA
ENDBRANCH   5  12
BRANCH   4  15
ATOM     15  S   UNL     1       0.668  -6.672  -1.050  0.00  0.00    -0.050 S 
BRANCH  15  16
ATOM     16  C   UNL     1      -0.641  -7.111  -2.146  0.00  0.00    +0.172 A 
ATOM     17  N   UNL     1      -1.068  -8.386  -2.388  0.00  0.00    -0.333 N 
ATOM     18  H   UNL     1      -0.710  -9.197  -1.995  0.00  0.00    +0.168 HD
ATOM     19  C   UNL     1      -2.107  -8.304  -3.301  0.00  0.00    +0.070 A 
ATOM     20  C   UNL     1      -2.922  -9.244  -3.915  0.00  0.00    +0.069 A 
ATOM     21  C   UNL     1      -3.896  -8.833  -4.804  0.00  0.00    +0.160 A 
ATOM     22  C   UNL     1      -4.064  -7.481  -5.088  0.00  0.00    +0.161 A 
ATOM     23  C   UNL     1      -3.261  -6.537  -4.486  0.00  0.00    +0.071 A 
ATOM     24  C   UNL     1      -2.273  -6.939  -3.583  0.00  0.00    +0.093 A 
ATOM     25  N   UNL     1      -1.354  -6.263  -2.845  0.00  0.00    -0.222 NA
ATOM     26  F   UNL     1      -5.020  -7.093  -5.960  0.00  0.00    -0.202 F 
ATOM     27  F   UNL     1      -4.689  -9.748  -5.402  0.00  0.00    -0.202 F 
ENDBRANCH  15  16
ENDBRANCH   4  15
TORSDOF 4
