REMARK  Name = ZINC20892342
REMARK  9 active torsions:
REMARK  status: ('A' for Active; 'I' for Inactive)
REMARK    1  A    between atoms: C_1  and  C_2
REMARK    2  A    between atoms: C_5  and  C_33
REMARK    3  A    between atoms: C_6  and  N_8
REMARK    4  A    between atoms: C_9  and  C_11
REMARK    5  A    between atoms: C_11  and  C_13
REMARK    6  A    between atoms: C_11  and  S_19
REMARK    7  A    between atoms: S_19  and  C_20
REMARK    8  A    between atoms: C_23  and  C_26
REMARK    9  A    between atoms: N_24  and  N_25
REMARK                            x       y       z     vdW  Elec       q    Type
REMARK                         _______ _______ _______ _____ _____    ______ ____
ROOT
ATOM      1  C   UNL     1      -2.810   1.178   0.164  0.00  0.00    +0.170 C 
ENDROOT
BRANCH   1   2
ATOM      2  C   UNL     1      -2.734   0.423   1.465  0.00  0.00    -0.025 A 
ATOM      3  C   UNL     1      -3.025   1.064   2.655  0.00  0.00    +0.005 A 
ATOM      4  C   UNL     1      -2.960   0.370   3.848  0.00  0.00    +0.000 A 
ATOM      5  C   UNL     1      -2.595  -0.963   3.853  0.00  0.00    +0.000 A 
ATOM      6  C   UNL     1      -2.300  -1.604   2.664  0.00  0.00    +0.000 A 
ATOM      7  C   UNL     1      -2.369  -0.910   1.470  0.00  0.00    +0.005 A 
ENDBRANCH   1   2
BRANCH   1   9
ATOM      8  N   UNL     1      -5.172   0.866  -0.501  0.00  0.00    -0.284 N 
ATOM      9  C   UNL     1      -4.212   1.692  -0.039  0.00  0.00    +0.235 C 
ATOM     10  O   UNL     1      -4.477   2.848   0.215  0.00  0.00    -0.274 OA
ATOM     11  H   UNL     1      -4.952  -0.200  -0.658  0.00  0.00    +0.155 HD
BRANCH   8  17
ATOM     12  C   UNL     1      -8.721   4.150   0.388  0.00  0.00    +0.044 C 
ATOM     13  C   UNL     1      -8.194   2.956  -0.365  0.00  0.00    -0.049 A 
ATOM     14  C   UNL     1      -8.974   2.352  -1.336  0.00  0.00    +0.004 A 
ATOM     15  C   UNL     1      -8.494   1.256  -2.029  0.00  0.00    +0.005 A 
ATOM     16  C   UNL     1      -7.231   0.765  -1.759  0.00  0.00    -0.029 A 
ATOM     17  C   UNL     1      -6.449   1.365  -0.781  0.00  0.00    +0.037 A 
ATOM     18  C   UNL     1      -6.934   2.466  -0.086  0.00  0.00    +0.027 A 
ATOM     19  C   UNL     1      -6.706  -0.426  -2.519  0.00  0.00    +0.045 C 
ENDBRANCH   8  17
ENDBRANCH   1   9
BRANCH   1  20
ATOM     20  S   UNL     1      -1.657   2.573   0.208  0.00  0.00    -0.067 S 
BRANCH  20  21
ATOM     21  C   UNL     1      -0.128   1.703   0.297  0.00  0.00    +0.210 A 
ATOM     22  N   UNL     1       0.027   0.399   0.319  0.00  0.00    -0.121 NA
ATOM     23  N   UNL     1       1.276   0.103   0.381  0.00  0.00    -0.127 NA
ATOM     24  C   UNL     1       1.996   1.201   0.403  0.00  0.00    +0.184 A 
ATOM     25  N   UNL     1       1.119   2.260   0.349  0.00  0.00    -0.224 N 
BRANCH  24  26
ATOM     26  C   UNL     1       3.470   1.284   0.472  0.00  0.00    +0.056 A 
ATOM     27  C   UNL     1       4.082   2.161   1.369  0.00  0.00    +0.014 A 
ATOM     28  C   UNL     1       5.458   2.233   1.429  0.00  0.00    +0.001 A 
ATOM     29  C   UNL     1       6.233   1.440   0.603  0.00  0.00    +0.003 A 
ATOM     30  C   UNL     1       5.636   0.568  -0.289  0.00  0.00    +0.039 A 
ATOM     31  C   UNL     1       4.258   0.480  -0.356  0.00  0.00    +0.134 A 
ATOM     32  F   UNL     1       3.675  -0.376  -1.224  0.00  0.00    -0.205 F 
ENDBRANCH  24  26
BRANCH  25  33
ATOM     33  N   UNL     1       1.430   3.590   0.349  0.00  0.00    -0.295 N 
ATOM     34  H   UNL     1       2.482   3.909   0.395  0.00  0.00    +0.163 HD
ATOM     35  H   UNL     1       0.629   4.342   0.302  0.00  0.00    +0.163 HD
ENDBRANCH  25  33
ENDBRANCH  20  21
ENDBRANCH   1  20
TORSDOF 7
