REMARK  Name = ZINC04380954
REMARK  10 active torsions:
REMARK  status: ('A' for Active; 'I' for Inactive)
REMARK    1  A    between atoms: C_3  and  C_11
REMARK    2  A    between atoms: C_5  and  C_7
REMARK    3  A    between atoms: C_14  and  C_16
REMARK    4  A    between atoms: C_17  and  C_18
REMARK    5  A    between atoms: C_17  and  C_20
REMARK    6  A    between atoms: C_21  and  C_29
REMARK    7  A    between atoms: C_22  and  N_28
REMARK    8  A    between atoms: N_23  and  C_25
REMARK    9  A    between atoms: C_25  and  C_26
REMARK   10  A    between atoms: C_26  and  O_27
REMARK                            x       y       z     vdW  Elec       q    Type
REMARK                         _______ _______ _______ _____ _____    ______ ____
ROOT
ATOM      1  C   UNL     1       1.464   8.537   0.036  0.00  0.00    +0.067 C 
ATOM      2  C   UNL     1       2.833   8.370   0.023  0.00  0.00    +0.084 C 
ENDROOT
BRANCH   1   6
ATOM      3  C   UNL     1      -0.070   5.321   0.032  0.00  0.00    +0.136 A 
ATOM      4  C   UNL     1      -1.191   6.101   0.047  0.00  0.00    +0.050 A 
ATOM      5  C   UNL     1      -0.767   7.432   0.050  0.00  0.00    +0.050 A 
ATOM      6  C   UNL     1       0.617   7.410   0.037  0.00  0.00    +0.130 A 
ATOM      7  O   UNL     1       1.013   6.119   0.032  0.00  0.00    -0.455 OA
BRANCH   3  10
ATOM      8  C   UNL     1      -1.222   1.748   0.017  0.00  0.00    +0.001 A 
ATOM      9  C   UNL     1      -1.248   3.127   0.031  0.00  0.00    +0.011 A 
ATOM     10  C   UNL     1      -0.050   3.845   0.023  0.00  0.00    +0.018 A 
ATOM     11  C   UNL     1       1.167   3.160   0.008  0.00  0.00    +0.024 A 
ATOM     12  C   UNL     1       1.179   1.781   0.000  0.00  0.00    +0.055 A 
ATOM     13  C   UNL     1      -0.013   1.076   0.008  0.00  0.00    +0.012 A 
BRANCH  12  14
ATOM     14  C   UNL     1       2.491   1.040  -0.016  0.00  0.00    +0.417 C 
ATOM     15  F   UNL     1       2.248  -0.338  -0.020  0.00  0.00    -0.166 F 
ATOM     16  F   UNL     1       3.210   1.390  -1.163  0.00  0.00    -0.166 F 
ATOM     17  F   UNL     1       3.232   1.379   1.121  0.00  0.00    -0.166 F 
ENDBRANCH  12  14
ENDBRANCH   3  10
ENDBRANCH   1   6
BRANCH   2  18
ATOM     18  C   UNL     1       3.722   9.552   0.022  0.00  0.00    +0.122 A 
ATOM     19  C   UNL     1       5.190   9.539   0.008  0.00  0.00    +0.119 A 
ATOM     20  C   UNL     1       5.590  10.872   0.012  0.00  0.00    +0.133 A 
ATOM     21  N   UNL     1       4.477  11.632   0.026  0.00  0.00    -0.247 N 
ATOM     22  N   UNL     1       3.346  10.812   0.027  0.00  0.00    -0.167 NA
BRANCH  20  23
ATOM     23  N   UNL     1       6.893  11.332   0.002  0.00  0.00    -0.342 N 
ATOM     24  H   UNL     1       7.630  10.702  -0.009  0.00  0.00    +0.144 HD
ATOM     25  H   UNL     1       7.070  12.286   0.006  0.00  0.00    +0.144 HD
ENDBRANCH  20  23
BRANCH  19  26
ATOM     26  C   UNL     1       6.040   8.386  -0.006  0.00  0.00    +0.105 C 
ATOM     27  N   UNL     1       6.714   7.472  -0.017  0.00  0.00    -0.191 NA
ENDBRANCH  19  26
BRANCH  21  28
ATOM     28  C   UNL     1       4.457  13.097   0.034  0.00  0.00    +0.173 C 
BRANCH  28  29
ATOM     29  C   UNL     1       4.435  13.614  -1.406  0.00  0.00    +0.179 C 
BRANCH  29  30
ATOM     30  O   UNL     1       4.415  15.043  -1.398  0.00  0.00    -0.393 OA
ATOM     31  H   UNL     1       4.401  15.441  -2.279  0.00  0.00    +0.209 HD
ENDBRANCH  29  30
ENDBRANCH  28  29
ENDBRANCH  21  28
ENDBRANCH   2  18
BRANCH   2  32
ATOM     32  C   UNL     1       3.394   7.052   0.009  0.00  0.00    +0.102 C 
ATOM     33  N   UNL     1       3.839   6.007  -0.002  0.00  0.00    -0.191 NA
ENDBRANCH   2  32
TORSDOF 10
