REMARK  Name = ZINC15067442
REMARK  7 active torsions:
REMARK  status: ('A' for Active; 'I' for Inactive)
REMARK    1  A    between atoms: C_3  and  O_28
REMARK    2  A    between atoms: C_6  and  C_7
REMARK    3  A    between atoms: C_7  and  N_59
REMARK    4  A    between atoms: C_14  and  C_16
REMARK    5  A    between atoms: N_18  and  C_19
REMARK    6  A    between atoms: C_19  and  C_20
REMARK    7  A    between atoms: C_20  and  C_21
REMARK                            x       y       z     vdW  Elec       q    Type
REMARK                         _______ _______ _______ _____ _____    ______ ____
ROOT
ATOM      1  C   UNL     1      -2.571  -1.017   1.192  0.00  0.00    -0.078 C 
ATOM      2  C   UNL     1      -2.457  -0.409  -0.211  0.00  0.00    -0.011 C 
ATOM      3  C   UNL     1      -2.605   1.111  -0.099  0.00  0.00    -0.021 C 
ATOM      4  C   UNL     1      -3.839   1.580   0.678  0.00  0.00    -0.011 C 
ATOM      5  C   UNL     1      -3.871   0.856   2.029  0.00  0.00    -0.078 C 
ATOM      6  C   UNL     1      -2.140   1.962  -1.279  0.00  0.00    +0.020 C 
ATOM      7  C   UNL     1      -1.330   1.944   0.019  0.00  0.00    +0.082 C 
ATOM      8  N   UNL     1      -3.861  -0.604   1.787  0.00  0.00    +0.382 N 
ATOM      9  H   UNL     1      -4.618  -0.837   1.133  0.00  0.00    -0.081 HD
ENDROOT
BRANCH   7  10
ATOM     10  C   UNL     1      -0.014   1.209   0.009  0.00  0.00    +0.217 C 
ATOM     11  O   UNL     1       0.348   0.629  -0.993  0.00  0.00    -0.275 OA
ATOM     12  N   UNL     1       0.761   1.200   1.111  0.00  0.00    -0.315 N 
ATOM     13  H   UNL     1       0.471   1.664   1.912  0.00  0.00    +0.149 HD
BRANCH  12  14
ATOM     14  C   UNL     1       2.043   0.490   1.099  0.00  0.00    +0.108 C 
BRANCH  14  15
ATOM     15  C   UNL     1       2.719   0.635   2.463  0.00  0.00    +0.049 C 
BRANCH  15  16
ATOM     16  C   UNL     1       4.037  -0.095   2.451  0.00  0.00    -0.072 C 
ATOM     17  C   UNL     1       5.105   0.584   2.176  0.00  0.00    -0.028 C 
ATOM     18  C   UNL     1       6.484  -0.005   2.121  0.00  0.00    +0.027 C 
ATOM     19  C   UNL     1       6.507  -1.365   2.822  0.00  0.00    +0.004 C 
ATOM     20  C   UNL     1       5.340  -2.205   2.287  0.00  0.00    +0.005 C 
ATOM     21  C   UNL     1       4.030  -1.565   2.753  0.00  0.00    +0.030 C 
ENDBRANCH  15  16
ENDBRANCH  14  15
ENDBRANCH  12  14
ENDBRANCH   7  10
BRANCH   8  22
ATOM     22  C   UNL     1      -4.084  -1.326   3.055  0.00  0.00    -0.043 C 
BRANCH  22  28
ATOM     23  C   UNL     1      -5.034   0.311   4.691  0.00  0.00    +0.005 A 
ATOM     24  C   UNL     1      -6.102   0.888   5.352  0.00  0.00    +0.047 A 
ATOM     25  C   UNL     1      -7.391   0.441   5.107  0.00  0.00    +0.135 A 
ATOM     26  C   UNL     1      -7.606  -0.582   4.193  0.00  0.00    +0.082 A 
ATOM     27  C   UNL     1      -6.535  -1.152   3.531  0.00  0.00    +0.025 A 
ATOM     28  C   UNL     1      -5.251  -0.703   3.778  0.00  0.00    -0.062 A 
ATOM     29 CL   UNL     1      -9.219  -1.145   3.882  0.00  0.00    -0.080 Cl
BRANCH  25  30
ATOM     30  O   UNL     1      -8.443   1.003   5.760  0.00  0.00    -0.505 OA
ATOM     31  H   UNL     1      -8.663   0.570   6.596  0.00  0.00    +0.292 HD
ENDBRANCH  25  30
ENDBRANCH  22  28
ENDBRANCH   8  22
TORSDOF 7
