REMARK  Name = ZINC48334094
REMARK  4 active torsions:
REMARK  status: ('A' for Active; 'I' for Inactive)
REMARK    1  A    between atoms: C_6  and  C_7
REMARK    2  A    between atoms: C_7  and  N_8
REMARK    3  A    between atoms: N_11  and  C_12
REMARK    4  A    between atoms: C_15  and  N_18
REMARK                            x       y       z     vdW  Elec       q    Type
REMARK                         _______ _______ _______ _____ _____    ______ ____
ROOT
ATOM      1  N   UNL     1      -1.728  -1.012  -1.368  0.00  0.00    -0.295 N 
ATOM      2  C   UNL     1      -2.865  -1.696  -1.607  0.00  0.00    +0.304 C 
ATOM      3  O   UNL     1      -3.531  -2.112  -0.679  0.00  0.00    -0.252 OA
ATOM      4  N   UNL     1      -3.265  -1.917  -2.875  0.00  0.00    -0.269 N 
ATOM      5  H   UNL     1      -1.198  -0.680  -2.109  0.00  0.00    +0.151 HD
ATOM      6  H   UNL     1      -2.771  -1.528  -3.614  0.00  0.00    +0.156 HD
ENDROOT
BRANCH   4   7
ATOM      7  C   UNL     1      -4.391  -2.708  -3.126  0.00  0.00    +0.035 A 
ATOM      8  C   UNL     1      -4.428  -3.533  -4.242  0.00  0.00    +0.025 A 
ATOM      9  C   UNL     1      -5.541  -4.313  -4.487  0.00  0.00    +0.034 A 
ATOM     10  C   UNL     1      -6.619  -4.273  -3.621  0.00  0.00    +0.126 A 
ATOM     11  C   UNL     1      -6.586  -3.452  -2.509  0.00  0.00    +0.034 A 
ATOM     12  C   UNL     1      -5.473  -2.674  -2.256  0.00  0.00    +0.025 A 
BRANCH  10  13
ATOM     13  N   UNL     1      -7.811  -5.110  -3.886  0.00  0.00    +0.056 N 
ATOM     14  O   UNL     1      -7.841  -5.828  -4.858  0.00  0.00    -0.126 OA
ATOM     15  O   UNL     1      -8.754  -5.075  -3.131  0.00  0.00    -0.126 OA
ENDBRANCH  10  13
ENDBRANCH   4   7
BRANCH   1  16
ATOM     16  C   UNL     1      -1.294  -0.771   0.010  0.00  0.00    +0.141 C 
BRANCH  16  22
ATOM     17  C   UNL     1      -0.032   1.390   0.014  0.00  0.00    +0.006 A 
ATOM     18  C   UNL     1       1.150   2.105   0.006  0.00  0.00    +0.015 A 
ATOM     19  C   UNL     1       2.362   1.438  -0.013  0.00  0.00    +0.018 A 
ATOM     20  C   UNL     1       2.389   0.055  -0.025  0.00  0.00    +0.015 A 
ATOM     21  C   UNL     1       1.206  -0.659  -0.018  0.00  0.00    +0.006 A 
ATOM     22  C   UNL     1      -0.005   0.008   0.002  0.00  0.00    -0.030 A 
ATOM     23 BR   UNL     1       3.980   2.416  -0.025  0.00  0.00    -0.050 Br
ENDBRANCH  16  22
ENDBRANCH   1  16
TORSDOF 4
