REMARK  Name = ZINC00818045
REMARK  4 active torsions:
REMARK  status: ('A' for Active; 'I' for Inactive)
REMARK    1  A    between atoms: C_1  and  C_2
REMARK    2  A    between atoms: C_4  and  C_22
REMARK    3  A    between atoms: C_10  and  C_21
REMARK    4  A    between atoms: C_13  and  C_16
REMARK                            x       y       z     vdW  Elec       q    Type
REMARK                         _______ _______ _______ _____ _____    ______ ____
ROOT
ATOM      1  C   UNL     1      -0.018   1.503   0.010  0.00  0.00    +0.044 C 
ATOM      2  C   UNL     1       0.002  -0.004   0.002  0.00  0.00    -0.049 A 
ATOM      3  C   UNL     1       0.006  -0.687  -1.202  0.00  0.00    +0.008 A 
ATOM      4  C   UNL     1       0.036  -2.069  -1.230  0.00  0.00    -0.029 A 
ATOM      5  C   UNL     1       0.058  -2.782  -0.044  0.00  0.00    +0.041 A 
ATOM      6  C   UNL     1       0.034  -2.084   1.180  0.00  0.00    +0.022 A 
ATOM      7  C   UNL     1       0.023  -0.699   1.197  0.00  0.00    +0.015 A 
ATOM      8  C   UNL     1      -0.005  -2.905   2.405  0.00  0.00    +0.074 A 
ATOM      9  C   UNL     1       0.138  -2.580   3.708  0.00  0.00    +0.052 A 
ATOM     10  C   UNL     1       0.040  -3.760   4.454  0.00  0.00    +0.061 A 
ATOM     11  N   UNL     1      -0.161  -4.763   3.630  0.00  0.00    -0.174 NA
ATOM     12  N   UNL     1      -0.214  -4.263   2.334  0.00  0.00    -0.235 N 
ATOM     13  C   UNL     1      -0.463  -4.955   1.067  0.00  0.00    +0.258 C 
ATOM     14  N   UNL     1       0.122  -4.175  -0.032  0.00  0.00    -0.316 N 
ATOM     15  C   UNL     1       0.148  -3.863   5.953  0.00  0.00    +0.067 C 
ATOM     16  C   UNL     1       0.047  -2.798  -2.549  0.00  0.00    +0.045 C 
ATOM     17  H   UNL     1       0.562  -4.638  -0.763  0.00  0.00    +0.148 HD
ENDROOT
BRANCH  13  18
ATOM     18  C   UNL     1      -1.949  -5.092   0.852  0.00  0.00    +0.147 A 
ATOM     19  C   UNL     1      -2.680  -6.195   1.094  0.00  0.00    +0.048 A 
ATOM     20  C   UNL     1      -4.016  -5.883   0.755  0.00  0.00    +0.041 A 
ATOM     21  C   UNL     1      -4.022  -4.608   0.327  0.00  0.00    +0.195 A 
ATOM     22  O   UNL     1      -2.768  -4.132   0.393  0.00  0.00    -0.464 OA
ENDBRANCH  13  18
TORSDOF 1
