REMARK  Name = ZINC04081776
REMARK  8 active torsions:
REMARK  status: ('A' for Active; 'I' for Inactive)
REMARK    1  A    between atoms: C_4  and  C_7
REMARK    2  A    between atoms: C_16  and  O_18
REMARK    3  A    between atoms: O_18  and  C_19
REMARK    4  A    between atoms: C_21  and  O_34
REMARK    5  A    between atoms: C_23  and  O_33
REMARK    6  A    between atoms: C_25  and  O_32
REMARK    7  A    between atoms: C_27  and  C_30
REMARK    8  A    between atoms: C_30  and  O_31
REMARK                            x       y       z     vdW  Elec       q    Type
REMARK                         _______ _______ _______ _____ _____    ______ ____
ROOT
ATOM      1  C   UNL     1       4.364   9.605  -1.473  0.00  0.00    -0.000 A 
ATOM      2  C   UNL     1       5.582  10.257  -1.452  0.00  0.00    +0.101 A 
ATOM      3  C   UNL     1       6.767   9.506  -1.372  0.00  0.00    +0.338 A 
ATOM      4  O   UNL     1       7.837  10.089  -1.355  0.00  0.00    -0.245 OA
ATOM      5  O   UNL     1       6.753   8.165  -1.314  0.00  0.00    -0.422 OA
ATOM      6  C   UNL     1       5.601   7.462  -1.330  0.00  0.00    +0.143 A 
ATOM      7  C   UNL     1       4.369   8.134  -1.408  0.00  0.00    +0.026 A 
ATOM      8  C   UNL     1       3.175   7.410  -1.424  0.00  0.00    +0.016 A 
ATOM      9  C   UNL     1       3.207   6.045  -1.369  0.00  0.00    +0.046 A 
ATOM     10  C   UNL     1       4.424   5.373  -1.286  0.00  0.00    +0.128 A 
ATOM     11  C   UNL     1       5.617   6.077  -1.269  0.00  0.00    +0.092 A 
ENDROOT
BRANCH   1  15
ATOM     12  C   UNL     1       0.720  11.777  -1.715  0.00  0.00    +0.000 A 
ATOM     13  C   UNL     1       1.669  12.127  -0.770  0.00  0.00    +0.001 A 
ATOM     14  C   UNL     1       2.854  11.426  -0.686  0.00  0.00    +0.008 A 
ATOM     15  C   UNL     1       3.095  10.361  -1.557  0.00  0.00    -0.017 A 
ATOM     16  C   UNL     1       2.135  10.017  -2.510  0.00  0.00    +0.008 A 
ATOM     17  C   UNL     1       0.952  10.723  -2.580  0.00  0.00    +0.001 A 
ENDBRANCH   1  15
BRANCH  10  18
ATOM     18  O   UNL     1       4.441   4.017  -1.226  0.00  0.00    -0.461 OA
BRANCH  18  19
ATOM     19  C   UNL     1       3.177   3.350  -1.248  0.00  0.00    +0.339 C 
ATOM     20  C   UNL     1       3.399   1.836  -1.300  0.00  0.00    +0.214 C 
ATOM     21  C   UNL     1       2.042   1.128  -1.262  0.00  0.00    +0.180 C 
ATOM     22  C   UNL     1       1.286   1.562  -0.002  0.00  0.00    +0.177 C 
ATOM     23  C   UNL     1       1.146   3.086  -0.000  0.00  0.00    +0.179 C 
ATOM     24  O   UNL     1       2.443   3.683  -0.068  0.00  0.00    -0.331 OA
BRANCH  22  25
ATOM     25  O   UNL     1      -0.011   0.963   0.007  0.00  0.00    -0.386 OA
ATOM     26  H   UNL     1       0.002  -0.004   0.002  0.00  0.00    +0.210 HD
ENDBRANCH  22  25
BRANCH  21  27
ATOM     27  O   UNL     1       2.242  -0.287  -1.236  0.00  0.00    -0.386 OA
ATOM     28  H   UNL     1       2.715  -0.632  -2.005  0.00  0.00    +0.210 HD
ENDBRANCH  21  27
BRANCH  20  29
ATOM     29  O   UNL     1       4.083   1.494  -2.506  0.00  0.00    -0.383 OA
ATOM     30  H   UNL     1       4.952   1.908  -2.597  0.00  0.00    +0.210 HD
ENDBRANCH  20  29
BRANCH  23  31
ATOM     31  C   UNL     1       0.446   3.533   1.284  0.00  0.00    +0.190 C 
BRANCH  31  32
ATOM     32  O   UNL     1       0.210   4.941   1.234  0.00  0.00    -0.392 OA
ATOM     33  H   UNL     1      -0.232   5.295   2.018  0.00  0.00    +0.210 HD
ENDBRANCH  31  32
ENDBRANCH  23  31
ENDBRANCH  18  19
ENDBRANCH  10  18
TORSDOF 8
