REMARK  Name = ZINC08636867
REMARK  6 active torsions:
REMARK  status: ('A' for Active; 'I' for Inactive)
REMARK    1  A    between atoms: C_1  and  N_2
REMARK    2  A    between atoms: N_7  and  N_8
REMARK    3  A    between atoms: C_9  and  C_10
REMARK    4  A    between atoms: N_20  and  C_34
REMARK    5  A    between atoms: N_23  and  C_26
REMARK    6  A    between atoms: C_26  and  C_27
REMARK                            x       y       z     vdW  Elec       q    Type
REMARK                         _______ _______ _______ _____ _____    ______ ____
ROOT
ATOM      1  C   UNL     1       0.138   1.382   0.055  0.00  0.00    +0.152 C 
ATOM      2  N   UNL     1       0.098  -0.082   0.024  0.00  0.00    -0.308 N 
ATOM      3  C   UNL     1       0.062  -0.885  -1.107  0.00  0.00    +0.153 A 
ATOM      4  C   UNL     1       0.034  -2.200  -0.653  0.00  0.00    +0.170 A 
ATOM      5  N   UNL     1       0.053  -2.166   0.680  0.00  0.00    -0.195 NA
ATOM      6  C   UNL     1       0.096  -0.917   1.097  0.00  0.00    +0.218 A 
ATOM      7  N   UNL     1       0.131  -0.519   2.415  0.00  0.00    -0.206 N 
ATOM      8  N   UNL     1      -0.005  -3.226  -1.583  0.00  0.00    -0.279 N 
ATOM      9  C   UNL     1      -0.015  -2.944  -2.900  0.00  0.00    +0.334 A 
ATOM     10  O   UNL     1      -0.049  -3.857  -3.702  0.00  0.00    -0.246 OA
ATOM     11  N   UNL     1       0.012  -1.677  -3.349  0.00  0.00    -0.255 N 
ATOM     12  C   UNL     1       0.051  -0.636  -2.492  0.00  0.00    +0.283 A 
ATOM     13  O   UNL     1       0.075   0.507  -2.912  0.00  0.00    -0.265 OA
ATOM     14  C   UNL     1      -0.035  -4.620  -1.134  0.00  0.00    +0.155 C 
ATOM     15  H   UNL     1       0.159   0.425   2.636  0.00  0.00    +0.177 HD
ENDROOT
BRANCH   7  16
ATOM     16  N   UNL     1       0.124  -1.477   3.437  0.00  0.00    -0.186 NA
ATOM     17  C   UNL     1       0.157  -1.102   4.680  0.00  0.00    +0.158 C 
BRANCH  17  18
ATOM     18  C   UNL     1       0.150  -2.109   5.754  0.00  0.00    +0.084 A 
ATOM     19  C   UNL     1       0.180  -1.685   7.096  0.00  0.00    +0.030 A 
ATOM     20  C   UNL     1       0.174  -2.608   8.098  0.00  0.00    +0.012 A 
ATOM     21  C   UNL     1       0.138  -3.974   7.749  0.00  0.00    +0.000 A 
ATOM     22  C   UNL     1       0.129  -4.975   8.733  0.00  0.00    +0.010 A 
ATOM     23  C   UNL     1       0.093  -6.285   8.361  0.00  0.00    +0.001 A 
ATOM     24  C   UNL     1       0.065  -6.646   7.016  0.00  0.00    +0.002 A 
ATOM     25  C   UNL     1       0.073  -5.702   6.035  0.00  0.00    +0.028 A 
ATOM     26  C   UNL     1       0.109  -4.338   6.380  0.00  0.00    +0.072 A 
ATOM     27  N   UNL     1       0.111  -3.392   5.437  0.00  0.00    -0.246 NA
ENDBRANCH  17  18
ENDBRANCH   7  16
BRANCH  11  28
ATOM     28  C   UNL     1       0.000  -1.423  -4.792  0.00  0.00    +0.166 C 
BRANCH  28  29
ATOM     29  C   UNL     1      -1.417  -1.486  -5.301  0.00  0.00    -0.009 A 
ATOM     30  C   UNL     1      -1.915  -2.670  -5.814  0.00  0.00    +0.007 A 
ATOM     31  C   UNL     1      -3.215  -2.728  -6.281  0.00  0.00    +0.000 A 
ATOM     32  C   UNL     1      -4.017  -1.603  -6.236  0.00  0.00    +0.001 A 
ATOM     33  C   UNL     1      -3.520  -0.419  -5.723  0.00  0.00    +0.020 A 
ATOM     34  C   UNL     1      -2.221  -0.362  -5.250  0.00  0.00    +0.046 A 
ATOM     35 CL   UNL     1      -1.599   1.122  -4.600  0.00  0.00    -0.083 Cl
ENDBRANCH  28  29
ENDBRANCH  11  28
TORSDOF 4
