REMARK  Name = ZINC39626045
REMARK  11 active torsions:
REMARK  status: ('A' for Active; 'I' for Inactive)
REMARK    1  A    between atoms: C_1  and  C_2
REMARK    2  A    between atoms: C_2  and  C_3
REMARK    3  A    between atoms: C_3  and  C_4
REMARK    4  A    between atoms: C_4  and  C_6
REMARK    5  A    between atoms: C_4  and  C_7
REMARK    6  A    between atoms: C_11  and  C_20
REMARK    7  A    between atoms: N_22  and  C_23
REMARK    8  A    between atoms: C_23  and  C_24
REMARK    9  A    between atoms: C_24  and  N_25
REMARK   10  A    between atoms: N_25  and  C_26
REMARK   11  A    between atoms: N_25  and  C_27
REMARK                            x       y       z     vdW  Elec       q    Type
REMARK                         _______ _______ _______ _____ _____    ______ ____
ROOT
ATOM      1  C   UNL     1       1.334  -2.575   2.213  0.00  0.00    +0.218 C 
ATOM      2  O   UNL     1       1.790  -1.712   2.933  0.00  0.00    -0.275 OA
ATOM      3  N   UNL     1       1.590  -3.873   2.471  0.00  0.00    -0.300 N 
ATOM      4  C   UNL     1       1.130  -5.058   1.708  0.00  0.00    +0.121 C 
ATOM      5  C   UNL     1       2.342  -6.016   1.709  0.00  0.00    +0.100 C 
ATOM      6  C   UNL     1       3.166  -5.606   2.940  0.00  0.00    -0.004 C 
ATOM      7  C   UNL     1       2.399  -4.438   3.577  0.00  0.00    +0.115 C 
ATOM      8  C   UNL     1       3.267  -6.770   3.921  0.00  0.00    -0.010 C 
ATOM      9  C   UNL     1       4.139  -6.357   5.110  0.00  0.00    -0.082 C 
ATOM     10  N   UNL     1       5.474  -5.978   4.631  0.00  0.00    +0.379 N 
ATOM     11  C   UNL     1       5.378  -4.799   3.761  0.00  0.00    -0.082 C 
ATOM     12  C   UNL     1       4.558  -5.147   2.515  0.00  0.00    -0.010 C 
ATOM     13  H   UNL     1       6.065  -5.764   5.420  0.00  0.00    -0.086 HD
ATOM     14  H   UNL     1       5.874  -6.745   4.112  0.00  0.00    -0.086 HD
ENDROOT
BRANCH   5  15
ATOM     15  C   UNL     1       3.151  -5.839   0.450  0.00  0.00    +0.218 C 
ATOM     16  O   UNL     1       3.189  -4.759  -0.100  0.00  0.00    -0.275 OA
ATOM     17  N   UNL     1       3.834  -6.881  -0.065  0.00  0.00    -0.317 N 
ATOM     18  H   UNL     1       3.804  -7.745   0.375  0.00  0.00    +0.149 HD
BRANCH  17  19
ATOM     19  C   UNL     1       4.621  -6.710  -1.288  0.00  0.00    +0.085 C 
BRANCH  19  20
ATOM     20  C   UNL     1       5.290  -8.035  -1.654  0.00  0.00    -0.061 C 
BRANCH  20  21
ATOM     21  N   UNL     1       6.080  -7.863  -2.881  0.00  0.00    +0.377 N 
ATOM     22  C   UNL     1       6.818  -9.101  -3.167  0.00  0.00    -0.097 C 
ATOM     23  C   UNL     1       5.181  -7.559  -4.003  0.00  0.00    -0.097 C 
ATOM     24  H   UNL     1       6.732  -7.103  -2.758  0.00  0.00    -0.083 HD
ENDBRANCH  20  21
ENDBRANCH  19  20
ENDBRANCH  17  19
ENDBRANCH   5  15
BRANCH   1  25
ATOM     25  C   UNL     1       0.481  -2.195   1.030  0.00  0.00    +0.072 C 
ATOM     26  C   UNL     1      -0.906  -2.822   1.180  0.00  0.00    +0.017 C 
BRANCH  25  27
ATOM     27  C   UNL     1       0.348  -0.672   0.965  0.00  0.00    +0.012 C 
BRANCH  27  29
ATOM     28  C   UNL     1      -0.545   1.242  -0.368  0.00  0.00    +0.004 C 
ATOM     29  C   UNL     1      -0.412  -0.280  -0.303  0.00  0.00    -0.003 C 
ENDBRANCH  27  29
ENDBRANCH  25  27
ENDBRANCH   1  25
TORSDOF 7
