REMARK  Name = ZINC64057979
REMARK  5 active torsions:
REMARK  status: ('A' for Active; 'I' for Inactive)
REMARK    1  A    between atoms: C_1  and  C_2
REMARK    2  A    between atoms: C_3  and  C_22
REMARK    3  A    between atoms: C_8  and  C_10
REMARK    4  A    between atoms: C_13  and  C_17
REMARK    5  A    between atoms: N_27  and  C_28
REMARK                            x       y       z     vdW  Elec       q    Type
REMARK                         _______ _______ _______ _____ _____    ______ ____
ROOT
ATOM      1  C   UNL     1       0.402   1.470  -0.013  0.00  0.00    +0.067 C 
ATOM      2  C   UNL     1       0.139  -0.014  -0.005  0.00  0.00    +0.058 A 
ATOM      3  C   UNL     1      -0.114  -0.707  -1.162  0.00  0.00    +0.081 A 
ATOM      4  S   UNL     1      -0.334  -2.357  -0.517  0.00  0.00    -0.049 S 
ATOM      5  C   UNL     1      -0.088  -2.007   1.110  0.00  0.00    +0.165 A 
ATOM      6  N   UNL     1       0.147  -0.711   1.111  0.00  0.00    -0.229 NA
ATOM      7  N   UNL     1      -0.120  -2.875   2.191  0.00  0.00    -0.261 N 
ATOM      8  C   UNL     1       0.103  -2.410   3.436  0.00  0.00    +0.244 C 
ATOM      9  O   UNL     1       0.333  -1.227   3.612  0.00  0.00    -0.270 OA
ATOM     10  H   UNL     1      -0.302  -3.818   2.051  0.00  0.00    +0.157 HD
ENDROOT
BRANCH   8  11
ATOM     11  C   UNL     1       0.071  -3.295   4.538  0.00  0.00    +0.087 C 
ATOM     12  C   UNL     1       0.173  -2.813   5.794  0.00  0.00    +0.020 C 
ATOM     13  N   UNL     1       0.153  -1.488   6.045  0.00  0.00    -0.329 N 
ATOM     14  C   UNL     1       0.788  -1.037   7.304  0.00  0.00    +0.196 C 
ATOM     15  S   UNL     1       0.519  -2.523   8.363  0.00  0.00    -0.125 S 
ATOM     16  C   UNL     1       0.308  -3.738   6.993  0.00  0.00    +0.122 C 
ATOM     17  H   UNL     1      -0.257  -0.860   5.430  0.00  0.00    +0.147 HD
BRANCH  14  18
ATOM     18  C   UNL     1       0.084   0.171   7.867  0.00  0.00    +0.135 A 
ATOM     19  C   UNL     1       0.655   1.145   8.598  0.00  0.00    +0.047 A 
ATOM     20  C   UNL     1      -0.365   2.071   8.915  0.00  0.00    +0.041 A 
ATOM     21  C   UNL     1      -1.498   1.608   8.359  0.00  0.00    +0.195 A 
ATOM     22  O   UNL     1      -1.220   0.459   7.721  0.00  0.00    -0.465 OA
ENDBRANCH  14  18
ENDBRANCH   8  11
BRANCH   3  23
ATOM     23  C   UNL     1      -0.186  -0.224  -2.550  0.00  0.00    +0.173 A 
ATOM     24  N   UNL     1      -0.007   1.014  -2.958  0.00  0.00    -0.128 NA
ATOM     25  N   UNL     1      -0.142   1.079  -4.234  0.00  0.00    -0.121 NA
ATOM     26  C   UNL     1      -0.414  -0.109  -4.722  0.00  0.00    +0.202 A 
ATOM     27  S   UNL     1      -0.681  -0.506  -6.418  0.00  0.00    -0.009 SA
ATOM     28  N   UNL     1      -0.447  -0.982  -3.670  0.00  0.00    -0.304 N 
ATOM     29  C   UNL     1      -0.708  -2.423  -3.722  0.00  0.00    +0.153 C 
ENDBRANCH   3  23
TORSDOF 3
