REMARK  Name = ZINC63907279
REMARK  9 active torsions:
REMARK  status: ('A' for Active; 'I' for Inactive)
REMARK    1  A    between atoms: C_1  and  C_2
REMARK    2  A    between atoms: C_2  and  C_4
REMARK    3  A    between atoms: C_2  and  N_7
REMARK    4  A    between atoms: C_4  and  C_5
REMARK    5  A    between atoms: C_4  and  C_6
REMARK    6  A    between atoms: C_8  and  C_10
REMARK    7  A    between atoms: C_10  and  N_11
REMARK    8  A    between atoms: C_14  and  C_19
REMARK    9  A    between atoms: C_19  and  C_20
REMARK                            x       y       z     vdW  Elec       q    Type
REMARK                         _______ _______ _______ _____ _____    ______ ____
ROOT
ATOM      1  N   UNL     1      -3.929  -1.240   2.572  0.00  0.00    -0.216 N 
ATOM      2  C   UNL     1      -3.791  -2.314   3.375  0.00  0.00    +0.244 C 
ATOM      3  O   UNL     1      -3.260  -3.369   3.102  0.00  0.00    -0.273 OA
ATOM      4  C   UNL     1      -4.436  -1.927   4.691  0.00  0.00    +0.165 C 
ATOM      5  N   UNL     1      -4.907  -0.551   4.455  0.00  0.00    -0.287 N 
ATOM      6  C   UNL     1      -4.561  -0.238   3.193  0.00  0.00    +0.310 C 
ATOM      7  O   UNL     1      -4.799   0.835   2.674  0.00  0.00    -0.252 OA
ATOM      8  H   UNL     1      -5.373   0.018   5.086  0.00  0.00    +0.151 HD
ENDROOT
BRANCH   1   9
ATOM      9  C   UNL     1      -3.442  -1.177   1.191  0.00  0.00    +0.213 C 
BRANCH   9  11
ATOM     10  N   UNL     1      -1.372  -0.511   0.012  0.00  0.00    -0.311 N 
ATOM     11  C   UNL     1      -2.029  -0.655   1.181  0.00  0.00    +0.231 C 
ATOM     12  O   UNL     1      -1.481  -0.365   2.224  0.00  0.00    -0.274 OA
ATOM     13  H   UNL     1      -1.810  -0.743  -0.822  0.00  0.00    +0.149 HD
BRANCH  10  15
ATOM     14  C   UNL     1      -0.019   1.526   0.010  0.00  0.00    +0.028 C 
ATOM     15  C   UNL     1       0.002  -0.004   0.002  0.00  0.00    +0.072 C 
BRANCH  15  16
ATOM     16  C   UNL     1       0.718  -0.497  -1.257  0.00  0.00    +0.003 C 
ATOM     17  C   UNL     1       2.154   0.032  -1.268  0.00  0.00    +0.009 C 
ATOM     18  C   UNL     1       0.739  -2.027  -1.265  0.00  0.00    +0.009 C 
ENDBRANCH  15  16
ENDBRANCH  10  15
ENDBRANCH   9  11
ENDBRANCH   1   9
BRANCH   4  19
ATOM     19  C   UNL     1      -5.610  -2.855   5.008  0.00  0.00    +0.065 C 
BRANCH  19  20
ATOM     20  C   UNL     1      -6.154  -2.527   6.375  0.00  0.00    -0.039 C 
ATOM     21  C   UNL     1      -7.195  -1.713   6.662  0.00  0.00    -0.001 A 
ATOM     22  C   UNL     1      -8.097  -0.918   5.821  0.00  0.00    +0.010 A 
ATOM     23  C   UNL     1      -9.068  -0.184   6.410  0.00  0.00    +0.001 A 
ATOM     24  C   UNL     1      -9.233  -0.164   7.802  0.00  0.00    +0.002 A 
ATOM     25  C   UNL     1      -8.444  -0.868   8.641  0.00  0.00    +0.026 A 
ATOM     26  C   UNL     1      -7.391  -1.675   8.129  0.00  0.00    +0.043 A 
ATOM     27  N   UNL     1      -6.505  -2.435   8.725  0.00  0.00    -0.380 N 
ATOM     28  C   UNL     1      -5.650  -3.048   7.702  0.00  0.00    +0.144 C 
ATOM     29  H   UNL     1      -6.430  -2.573   9.682  0.00  0.00    +0.160 HD
ENDBRANCH  19  20
ENDBRANCH   4  19
TORSDOF 6
