REMARK  Name = ZINC35934842
REMARK  10 active torsions:
REMARK  status: ('A' for Active; 'I' for Inactive)
REMARK    1  A    between atoms: C_1  and  C_2
REMARK    2  A    between atoms: C_2  and  N_3
REMARK    3  A    between atoms: C_6  and  C_11
REMARK    4  A    between atoms: N_21  and  C_23
REMARK    5  A    between atoms: C_23  and  C_25
REMARK    6  A    between atoms: C_23  and  C_26
REMARK    7  A    between atoms: N_28  and  C_29
REMARK    8  A    between atoms: C_32  and  C_35
REMARK    9  A    between atoms: C_35  and  C_36
REMARK   10  A    between atoms: C_35  and  C_37
REMARK                            x       y       z     vdW  Elec       q    Type
REMARK                         _______ _______ _______ _____ _____    ______ ____
ROOT
ATOM      1  N   UNL     1       1.121  -1.019  -1.671  0.00  0.00    -0.257 N 
ATOM      2  C   UNL     1       0.251  -1.140  -2.717  0.00  0.00    +0.042 C 
ATOM      3  C   UNL     1       0.655  -1.623  -3.909  0.00  0.00    +0.058 C 
ATOM      4  C   UNL     1       2.109  -2.029  -4.049  0.00  0.00    +0.143 C 
ATOM      5  N   UNL     1       2.965  -1.859  -2.863  0.00  0.00    -0.288 N 
ATOM      6  C   UNL     1       2.415  -1.356  -1.740  0.00  0.00    +0.307 C 
ATOM      7  O   UNL     1       3.115  -1.209  -0.758  0.00  0.00    -0.252 OA
ATOM      8  C   UNL     1      -0.422  -1.650  -4.819  0.00  0.00    +0.247 C 
ATOM      9  O   UNL     1      -0.342  -2.040  -5.969  0.00  0.00    -0.270 OA
ATOM     10  N   UNL     1      -1.550  -1.187  -4.249  0.00  0.00    -0.281 N 
ATOM     11  C   UNL     1      -1.220  -0.823  -2.863  0.00  0.00    +0.160 C 
ATOM     12  H   UNL     1       3.904  -2.101  -2.891  0.00  0.00    +0.151 HD
ENDROOT
BRANCH   4  13
ATOM     13  C   UNL     1       2.150  -3.481  -4.448  0.00  0.00    -0.004 A 
ATOM     14  C   UNL     1       2.290  -4.459  -3.481  0.00  0.00    +0.008 A 
ATOM     15  C   UNL     1       2.328  -5.792  -3.845  0.00  0.00    +0.020 A 
ATOM     16  C   UNL     1       2.225  -6.148  -5.178  0.00  0.00    +0.042 A 
ATOM     17  C   UNL     1       2.084  -5.170  -6.146  0.00  0.00    +0.040 A 
ATOM     18  C   UNL     1       2.041  -3.837  -5.780  0.00  0.00    +0.048 A 
ATOM     19 CL   UNL     1       1.858  -2.609  -6.994  0.00  0.00    -0.083 Cl
ATOM     20 CL   UNL     1       2.273  -7.822  -5.636  0.00  0.00    -0.083 Cl
ENDBRANCH   4  13
BRANCH   1  22
ATOM     21  C   UNL     1       0.759   1.038  -0.398  0.00  0.00    +0.025 C 
ATOM     22  C   UNL     1       0.611  -0.485  -0.406  0.00  0.00    +0.111 C 
ENDBRANCH   1  22
BRANCH  10  23
ATOM     23  C   UNL     1      -2.862  -1.069  -4.891  0.00  0.00    +0.160 C 
ATOM     24  C   UNL     1      -3.330  -2.450  -5.353  0.00  0.00    +0.038 C 
BRANCH  23  25
ATOM     25  C   UNL     1      -2.758  -0.149  -6.080  0.00  0.00    +0.237 C 
ATOM     26  O   UNL     1      -1.693   0.357  -6.364  0.00  0.00    -0.273 OA
ATOM     27  N   UNL     1      -3.849   0.111  -6.828  0.00  0.00    -0.284 N 
ATOM     28  H   UNL     1      -4.682  -0.353  -6.648  0.00  0.00    +0.155 HD
BRANCH  27  29
ATOM     29  C   UNL     1      -3.779   1.048  -7.864  0.00  0.00    +0.033 A 
ATOM     30  C   UNL     1      -4.542   0.875  -9.012  0.00  0.00    +0.023 A 
ATOM     31  C   UNL     1      -4.471   1.802 -10.033  0.00  0.00    +0.006 A 
ATOM     32  C   UNL     1      -3.642   2.902  -9.914  0.00  0.00    -0.045 A 
ATOM     33  C   UNL     1      -2.881   3.078  -8.772  0.00  0.00    +0.006 A 
ATOM     34  C   UNL     1      -2.952   2.157  -7.745  0.00  0.00    +0.023 A 
BRANCH  32  35
ATOM     35  C   UNL     1      -3.567   3.912 -11.030  0.00  0.00    +0.013 C 
ATOM     36  C   UNL     1      -3.996   5.284 -10.506  0.00  0.00    +0.012 C 
ATOM     37  C   UNL     1      -2.131   3.991 -11.550  0.00  0.00    +0.012 C 
ENDBRANCH  32  35
ENDBRANCH  27  29
ENDBRANCH  23  25
ENDBRANCH  10  23
TORSDOF 6
