REMARK  Name = ZINC32261526
REMARK  9 active torsions:
REMARK  status: ('A' for Active; 'I' for Inactive)
REMARK    1  A    between atoms: C_1  and  C_2
REMARK    2  A    between atoms: C_2  and  C_3
REMARK    3  A    between atoms: C_2  and  C_4
REMARK    4  A    between atoms: C_2  and  N_5
REMARK    5  A    between atoms: N_5  and  S_6
REMARK    6  A    between atoms: S_6  and  C_9
REMARK    7  A    between atoms: C_11  and  C_16
REMARK    8  A    between atoms: N_18  and  N_19
REMARK    9  A    between atoms: C_20  and  C_22
REMARK                            x       y       z     vdW  Elec       q    Type
REMARK                         _______ _______ _______ _____ _____    ______ ____
ROOT
ATOM      1  C   UNL     1     -10.131   5.537   3.733  0.00  0.00    +0.141 A 
ATOM      2  C   UNL     1      -9.235   5.101   2.780  0.00  0.00    +0.044 A 
ATOM      3  C   UNL     1      -7.897   5.495   2.851  0.00  0.00    +0.040 A 
ATOM      4  C   UNL     1      -7.477   6.339   3.881  0.00  0.00    +0.016 A 
ATOM      5  C   UNL     1      -8.383   6.775   4.824  0.00  0.00    +0.041 A 
ATOM      6  C   UNL     1      -9.709   6.375   4.753  0.00  0.00    +0.150 A 
ATOM      7  F   UNL     1     -10.592   6.805   5.680  0.00  0.00    -0.203 F 
ENDROOT
BRANCH   3   8
ATOM      8  C   UNL     1      -6.931   5.025   1.837  0.00  0.00    +0.260 C 
ATOM      9  O   UNL     1      -7.299   4.290   0.942  0.00  0.00    -0.269 OA
ATOM     10  N   UNL     1      -5.642   5.411   1.905  0.00  0.00    -0.230 N 
ATOM     11  H   UNL     1      -5.309   6.076   2.716  0.00  0.00    +0.173 HD
BRANCH  10  12
ATOM     12  N   UNL     1      -4.726   4.965   0.944  0.00  0.00    -0.232 N 
ATOM     13  C   UNL     1      -3.436   5.351   1.011  0.00  0.00    +0.258 C 
ATOM     14  O   UNL     1      -3.069   6.085   1.905  0.00  0.00    -0.271 OA
ATOM     15  H   UNL     1      -5.059   4.300   0.133  0.00  0.00    +0.173 HD
BRANCH  13  16
ATOM     16  C   UNL     1      -2.451   4.872  -0.023  0.00  0.00    +0.205 C 
ATOM     17  C   UNL     1      -2.818   5.431  -1.415  0.00  0.00    +0.043 C 
ATOM     18  C   UNL     1      -1.451   5.729  -2.073  0.00  0.00    +0.031 C 
ATOM     19  C   UNL     1      -0.420   5.314  -1.000  0.00  0.00    +0.161 C 
ATOM     20  O   UNL     1      -1.133   5.402   0.254  0.00  0.00    -0.367 OA
ENDBRANCH  13  16
ENDBRANCH  10  12
ENDBRANCH   3   8
BRANCH   1  21
ATOM     21  S   UNL     1     -11.818   5.035   3.649  0.00  0.00    +0.062 S 
ATOM     22  O   UNL     1     -12.599   6.217   3.752  0.00  0.00    -0.153 OA
ATOM     23  O   UNL     1     -11.922   4.146   2.545  0.00  0.00    -0.153 OA
BRANCH  21  24
ATOM     24  N   UNL     1     -12.131   4.141   5.007  0.00  0.00    -0.185 NA
ATOM     25  H   UNL     1     -12.949   4.447   5.676  0.00  0.00    +0.149 HD
BRANCH  24  27
ATOM     26  C   UNL     1      -9.962   3.047   5.294  0.00  0.00    +0.029 C 
ATOM     27  C   UNL     1     -11.475   2.844   5.198  0.00  0.00    +0.032 C 
ATOM     28  C   UNL     1     -11.986   2.200   6.488  0.00  0.00    +0.029 C 
ATOM     29  C   UNL     1     -11.793   1.933   4.012  0.00  0.00    +0.029 C 
ENDBRANCH  24  27
ENDBRANCH  21  24
ENDBRANCH   1  21
TORSDOF 6
