REMARK  Name = ZINC40949320
REMARK  6 active torsions:
REMARK  status: ('A' for Active; 'I' for Inactive)
REMARK    1  A    between atoms: C_1  and  C_2
REMARK    2  A    between atoms: C_9  and  N_14
REMARK    3  A    between atoms: C_10  and  C_11
REMARK    4  A    between atoms: C_15  and  C_17
REMARK    5  A    between atoms: C_21  and  O_28
REMARK    6  A    between atoms: O_28  and  C_29
REMARK                            x       y       z     vdW  Elec       q    Type
REMARK                         _______ _______ _______ _____ _____    ______ ____
ROOT
ATOM      1  N   UNL     1       0.698  -5.846   2.432  0.00  0.00    -0.275 N 
ATOM      2  C   UNL     1       1.680  -6.095   3.321  0.00  0.00    +0.256 C 
ATOM      3  O   UNL     1       2.387  -5.187   3.715  0.00  0.00    -0.270 OA
ATOM      4  H   UNL     1       0.133  -6.570   2.118  0.00  0.00    +0.156 HD
ENDROOT
BRANCH   2   5
ATOM      5  C   UNL     1       1.896  -7.464   3.816  0.00  0.00    +0.122 A 
ATOM      6  C   UNL     1       2.896  -7.750   4.736  0.00  0.00    +0.032 A 
ATOM      7  C   UNL     1       3.064  -9.099   5.142  0.00  0.00    +0.022 A 
ATOM      8  C   UNL     1       3.916  -9.419   6.209  0.00  0.00    +0.057 A 
ATOM      9  C   UNL     1       4.035 -10.731   6.618  0.00  0.00    +0.121 A 
ATOM     10  C   UNL     1       3.320 -11.736   5.971  0.00  0.00    +0.049 A 
ATOM     11  C   UNL     1       2.496 -11.437   4.907  0.00  0.00    +0.050 A 
ATOM     12  C   UNL     1       2.367 -10.124   4.475  0.00  0.00    +0.139 A 
ATOM     13  O   UNL     1       1.591  -9.830   3.403  0.00  0.00    -0.422 OA
ATOM     14  C   UNL     1       1.056  -8.586   3.358  0.00  0.00    +0.350 A 
ATOM     15  O   UNL     1      -0.075  -8.399   2.950  0.00  0.00    -0.244 OA
BRANCH   9  16
ATOM     16  O   UNL     1       4.853 -11.044   7.657  0.00  0.00    -0.495 OA
ATOM     17  C   UNL     1       4.931 -12.422   8.029  0.00  0.00    +0.277 C 
ENDBRANCH   9  16
ENDBRANCH   2   5
BRANCH   1  25
ATOM     18  C   UNL     1      -0.019   1.526   0.010  0.00  0.00    +0.008 C 
ATOM     19  C   UNL     1       0.002  -0.004   0.002  0.00  0.00    -0.009 C 
ATOM     20  C   UNL     1      -1.434  -0.537   0.019  0.00  0.00    +0.008 C 
ATOM     21  C   UNL     1      -1.433  -2.045  -0.237  0.00  0.00    +0.037 C 
ATOM     22  C   UNL     1      -0.464  -2.704   0.734  0.00  0.00    -0.023 A 
ATOM     23  C   UNL     1       0.485  -1.986   1.374  0.00  0.00    -0.004 A 
ATOM     24  S   UNL     1       1.344  -3.167   2.372  0.00  0.00    -0.077 S 
ATOM     25  C   UNL     1       0.494  -4.558   1.967  0.00  0.00    +0.085 A 
ATOM     26  C   UNL     1      -0.459  -4.119   1.060  0.00  0.00    +0.068 A 
ATOM     27  C   UNL     1       0.739  -0.515   1.248  0.00  0.00    +0.046 C 
BRANCH  26  28
ATOM     28  C   UNL     1      -1.421  -5.045   0.456  0.00  0.00    +0.244 C 
ATOM     29  O   UNL     1      -1.149  -5.610  -0.588  0.00  0.00    -0.270 OA
ATOM     30  N   UNL     1      -2.607  -5.272   1.055  0.00  0.00    -0.325 N 
ATOM     31  H   UNL     1      -2.823  -4.822   1.887  0.00  0.00    +0.145 HD
ATOM     32  H   UNL     1      -3.243  -5.885   0.655  0.00  0.00    +0.145 HD
ENDBRANCH  26  28
ENDBRANCH   1  25
TORSDOF 4
