REMARK  Name = ZINC35469860
REMARK  6 active torsions:
REMARK  status: ('A' for Active; 'I' for Inactive)
REMARK    1  A    between atoms: C_1  and  C_2
REMARK    2  A    between atoms: C_8  and  C_12
REMARK    3  A    between atoms: N_14  and  C_15
REMARK    4  A    between atoms: N_14  and  C_22
REMARK    5  A    between atoms: C_15  and  C_16
REMARK    6  A    between atoms: C_22  and  C_23
REMARK                            x       y       z     vdW  Elec       q    Type
REMARK                         _______ _______ _______ _____ _____    ______ ____
ROOT
ATOM      1  C   UNL     1      -0.483  -5.684   1.383  0.00  0.00    +0.247 C 
ATOM      2  O   UNL     1      -0.360  -5.520   2.581  0.00  0.00    -0.270 OA
ATOM      3  N   UNL     1       0.016  -6.793   0.800  0.00  0.00    -0.291 N 
ENDROOT
BRANCH   1  11
ATOM      4  C   UNL     1      -5.464  -0.670  -0.779  0.00  0.00    +0.086 C 
ATOM      5  C   UNL     1      -4.314  -1.629  -0.607  0.00  0.00    +0.105 A 
ATOM      6  N   UNL     1      -3.317  -1.820  -1.513  0.00  0.00    -0.342 N 
ATOM      7  H   UNL     1      -3.223  -1.371  -2.367  0.00  0.00    +0.167 HD
ATOM      8  C   UNL     1      -2.464  -2.770  -0.992  0.00  0.00    +0.066 A 
ATOM      9  C   UNL     1      -1.292  -3.365  -1.446  0.00  0.00    +0.028 A 
ATOM     10  C   UNL     1      -0.658  -4.301  -0.682  0.00  0.00    +0.015 A 
ATOM     11  C   UNL     1      -1.179  -4.670   0.565  0.00  0.00    +0.039 A 
ATOM     12  C   UNL     1      -2.351  -4.085   1.036  0.00  0.00    +0.043 A 
ATOM     13  C   UNL     1      -3.001  -3.129   0.258  0.00  0.00    +0.090 A 
ATOM     14  N   UNL     1      -4.128  -2.390   0.431  0.00  0.00    -0.233 NA
ENDBRANCH   1  11
BRANCH   3  15
ATOM     15  C   UNL     1      -0.008  -6.928  -0.658  0.00  0.00    +0.162 C 
BRANCH  15  16
ATOM     16  C   UNL     1       1.392  -7.161  -1.165  0.00  0.00    +0.053 A 
ATOM     17  C   UNL     1       2.247  -6.225  -1.618  0.00  0.00    +0.135 A 
ATOM     18  N   UNL     1       3.385  -6.840  -1.973  0.00  0.00    -0.244 NA
ATOM     19  C   UNL     1       3.267  -8.121  -1.757  0.00  0.00    +0.196 A 
ATOM     20  N   UNL     1       2.040  -8.363  -1.248  0.00  0.00    -0.347 N 
ATOM     21  H   UNL     1       1.684  -9.228  -0.990  0.00  0.00    +0.167 HD
ENDBRANCH  15  16
ENDBRANCH   3  15
BRANCH   3  22
ATOM     22  C   UNL     1       0.584  -7.861   1.626  0.00  0.00    +0.112 C 
BRANCH  22  23
ATOM     23  C   UNL     1      -0.515  -8.860   1.993  0.00  0.00    +0.006 C 
ATOM     24  C   UNL     1      -1.554  -8.172   2.881  0.00  0.00    +0.005 C 
ATOM     25  C   UNL     1      -2.653  -9.171   3.249  0.00  0.00    +0.000 C 
ATOM     26  C   UNL     1      -2.038 -10.350   4.004  0.00  0.00    +0.000 C 
ATOM     27  C   UNL     1      -0.999 -11.039   3.117  0.00  0.00    +0.000 C 
ATOM     28  C   UNL     1       0.100 -10.040   2.749  0.00  0.00    +0.005 C 
ENDBRANCH  22  23
ENDBRANCH   3  22
TORSDOF 5
