REMARK  Name = ZINC12197706
REMARK  6 active torsions:
REMARK  status: ('A' for Active; 'I' for Inactive)
REMARK    1  A    between atoms: C_1  and  C_2
REMARK    2  A    between atoms: C_2  and  C_17
REMARK    3  A    between atoms: N_5  and  C_9
REMARK    4  A    between atoms: C_9  and  C_10
REMARK    5  A    between atoms: C_22  and  C_23
REMARK    6  A    between atoms: C_22  and  N_58
REMARK                            x       y       z     vdW  Elec       q    Type
REMARK                         _______ _______ _______ _____ _____    ______ ____
ROOT
ATOM      1  C   UNL     1      -2.525   3.483   4.913  0.00  0.00    +0.042 C 
ATOM      2  C   UNL     1      -2.965   2.022   4.812  0.00  0.00    +0.112 C 
ATOM      3  C   UNL     1      -4.476   1.923   4.736  0.00  0.00    +0.247 C 
ATOM      4  O   UNL     1      -5.197   2.385   3.877  0.00  0.00    -0.273 OA
ATOM      5  N   UNL     1      -4.847   1.214   5.824  0.00  0.00    -0.220 N 
ATOM      6  C   UNL     1      -3.792   0.859   6.566  0.00  0.00    +0.310 C 
ATOM      7  O   UNL     1      -3.875   0.216   7.595  0.00  0.00    -0.252 OA
ATOM      8  N   UNL     1      -2.629   1.292   6.047  0.00  0.00    -0.285 N 
ATOM      9  H   UNL     1      -1.743   1.153   6.415  0.00  0.00    +0.151 HD
ENDROOT
BRANCH   2  10
ATOM     10  C   UNL     1      -2.320   1.350   3.598  0.00  0.00    +0.018 C 
ATOM     11  C   UNL     1      -0.800   1.525   3.664  0.00  0.00    -0.013 C 
ATOM     12  C   UNL     1      -0.165   0.905   2.417  0.00  0.00    -0.078 C 
ATOM     13  C   UNL     1      -2.152   1.364   1.107  0.00  0.00    -0.078 C 
ATOM     14  C   UNL     1      -2.845   1.998   2.315  0.00  0.00    -0.013 C 
ATOM     15  N   UNL     1      -0.695   1.589   1.218  0.00  0.00    +0.383 N 
ATOM     16  H   UNL     1      -0.519   2.597   1.305  0.00  0.00    -0.081 HD
BRANCH  15  17
ATOM     17  C   UNL     1      -0.013   1.086   0.008  0.00  0.00    -0.036 C 
BRANCH  17  18
ATOM     18  C   UNL     1      -0.742   1.585  -1.213  0.00  0.00    -0.026 A 
ATOM     19  C   UNL     1      -0.547   2.728  -1.886  0.00  0.00    +0.017 A 
ATOM     20  C   UNL     1      -1.370   3.018  -3.051  0.00  0.00    -0.011 A 
ATOM     21  C   UNL     1      -1.336   4.150  -3.900  0.00  0.00    +0.009 A 
ATOM     22  C   UNL     1      -2.189   4.255  -4.953  0.00  0.00    +0.001 A 
ATOM     23  C   UNL     1      -3.119   3.263  -5.235  0.00  0.00    +0.001 A 
ATOM     24  C   UNL     1      -3.184   2.143  -4.431  0.00  0.00    +0.015 A 
ATOM     25  C   UNL     1      -2.324   2.025  -3.360  0.00  0.00    +0.020 A 
ATOM     26  S   UNL     1      -2.063   0.793  -2.110  0.00  0.00    -0.095 S 
ENDBRANCH  17  18
ENDBRANCH  15  17
ENDBRANCH   2  10
BRANCH   5  27
ATOM     27  C   UNL     1      -6.235   0.877   6.151  0.00  0.00    +0.153 C 
BRANCH  27  28
ATOM     28  C   UNL     1      -6.828   1.967   7.007  0.00  0.00    -0.029 A 
ATOM     29  C   UNL     1      -6.733   1.892   8.384  0.00  0.00    +0.008 A 
ATOM     30  C   UNL     1      -7.271   2.894   9.169  0.00  0.00    +0.038 A 
ATOM     31  C   UNL     1      -7.916   3.966   8.577  0.00  0.00    +0.123 A 
ATOM     32  C   UNL     1      -8.015   4.037   7.197  0.00  0.00    +0.038 A 
ATOM     33  C   UNL     1      -7.470   3.038   6.414  0.00  0.00    +0.008 A 
ATOM     34  F   UNL     1      -8.448   4.943   9.344  0.00  0.00    -0.205 F 
ENDBRANCH  27  28
ENDBRANCH   5  27
TORSDOF 5
