REMARK  Name = ZINC37444082
REMARK  9 active torsions:
REMARK  status: ('A' for Active; 'I' for Inactive)
REMARK    1  A    between atoms: C_1  and  C_2
REMARK    2  A    between atoms: C_7  and  N_12
REMARK    3  A    between atoms: C_9  and  C_11
REMARK    4  A    between atoms: C_13  and  C_15
REMARK    5  A    between atoms: C_15  and  C_33
REMARK    6  A    between atoms: N_28  and  C_29
REMARK    7  A    between atoms: C_29  and  C_30
REMARK    8  A    between atoms: C_30  and  O_31
REMARK    9  A    between atoms: O_31  and  C_32
REMARK                            x       y       z     vdW  Elec       q    Type
REMARK                         _______ _______ _______ _____ _____    ______ ____
ROOT
ATOM      1  C   UNL     1       1.694  -0.029   6.211  0.00  0.00    +0.129 C 
ATOM      2  C   UNL     1       1.920   1.131   7.180  0.00  0.00    +0.159 C 
ATOM      3  N   UNL     1       3.036   1.952   6.706  0.00  0.00    -0.317 N 
ATOM      4  C   UNL     1       3.294   3.272   6.848  0.00  0.00    +0.069 A 
ATOM      5  C   UNL     1       2.608   4.316   7.465  0.00  0.00    +0.028 A 
ATOM      6  C   UNL     1       3.191   5.569   7.413  0.00  0.00    +0.002 A 
ATOM      7  C   UNL     1       4.403   5.792   6.778  0.00  0.00    +0.002 A 
ATOM      8  C   UNL     1       5.101   4.787   6.162  0.00  0.00    +0.030 A 
ATOM      9  C   UNL     1       4.537   3.502   6.196  0.00  0.00    +0.090 A 
ATOM     10  N   UNL     1       4.953   2.335   5.697  0.00  0.00    -0.223 NA
ATOM     11  C   UNL     1       4.082   1.410   5.978  0.00  0.00    +0.198 A 
ATOM     12  C   UNL     1       4.080  -0.030   5.621  0.00  0.00    +0.283 C 
ATOM     13  O   UNL     1       5.056  -0.571   5.140  0.00  0.00    -0.267 OA
ATOM     14  N   UNL     1       2.935  -0.711   5.859  0.00  0.00    -0.277 N 
ATOM     15  C   UNL     1       0.743  -1.036   6.860  0.00  0.00    +0.043 C 
ENDROOT
BRANCH   1  17
ATOM     16  N   UNL     1       1.829   0.968   3.951  0.00  0.00    -0.310 N 
ATOM     17  C   UNL     1       1.057   0.504   4.954  0.00  0.00    +0.238 C 
ATOM     18  O   UNL     1      -0.151   0.515   4.844  0.00  0.00    -0.273 OA
ATOM     19  H   UNL     1       2.794   0.892   4.007  0.00  0.00    +0.149 HD
BRANCH  16  25
ATOM     20  C   UNL     1       0.257   3.960   1.348  0.00  0.00    +0.008 C 
ATOM     21  C   UNL     1       1.537   3.236   0.928  0.00  0.00    -0.009 C 
ATOM     22  C   UNL     1       1.197   2.153  -0.098  0.00  0.00    +0.003 C 
ATOM     23  C   UNL     1       0.224   1.149   0.522  0.00  0.00    +0.002 C 
ATOM     24  C   UNL     1       0.870   0.504   1.749  0.00  0.00    +0.022 C 
ATOM     25  C   UNL     1       1.210   1.586   2.776  0.00  0.00    +0.076 C 
ATOM     26  C   UNL     1       2.183   2.590   2.155  0.00  0.00    +0.009 C 
ATOM     27  C   UNL     1       2.523   3.672   3.182  0.00  0.00    +0.009 C 
ENDBRANCH  16  25
ENDBRANCH   1  17
BRANCH  14  28
ATOM     28  C   UNL     1       2.940  -2.172   5.760  0.00  0.00    +0.137 C 
BRANCH  28  29
ATOM     29  C   UNL     1       2.452  -2.591   4.372  0.00  0.00    +0.178 C 
BRANCH  29  30
ATOM     30  O   UNL     1       3.397  -2.169   3.387  0.00  0.00    -0.381 OA
ATOM     31  C   UNL     1       3.035  -2.513   2.048  0.00  0.00    +0.194 C 
ENDBRANCH  29  30
ENDBRANCH  28  29
ENDBRANCH  14  28
TORSDOF 5
