REMARK  Name = ZINC09310862
REMARK  7 active torsions:
REMARK  status: ('A' for Active; 'I' for Inactive)
REMARK    1  A    between atoms: C_1  and  C_2
REMARK    2  A    between atoms: C_6  and  N_8
REMARK    3  A    between atoms: C_12  and  C_13
REMARK    4  A    between atoms: C_15  and  C_28
REMARK    5  A    between atoms: N_16  and  C_19
REMARK    6  A    between atoms: C_17  and  C_18
REMARK    7  A    between atoms: C_23  and  N_25
REMARK                            x       y       z     vdW  Elec       q    Type
REMARK                         _______ _______ _______ _____ _____    ______ ____
ROOT
ATOM      1  N   UNL     1       0.753   0.036  -2.835  0.00  0.00    -0.190 N 
ATOM      2  C   UNL     1       0.525  -1.012  -2.018  0.00  0.00    +0.263 C 
ATOM      3  O   UNL     1      -0.398  -1.778  -2.226  0.00  0.00    -0.269 OA
ATOM      4  C   UNL     1       1.425  -1.207  -0.866  0.00  0.00    +0.100 C 
ATOM      5  C   UNL     1       1.253  -2.262   0.015  0.00  0.00    +0.028 C 
ATOM      6  C   UNL     1       2.516  -0.230  -0.695  0.00  0.00    +0.257 C 
ATOM      7  O   UNL     1       3.299  -0.324   0.232  0.00  0.00    -0.270 OA
ATOM      8  N   UNL     1       2.622   0.771  -1.592  0.00  0.00    -0.235 N 
ATOM      9  C   UNL     1       1.766   0.887  -2.618  0.00  0.00    +0.320 C 
ATOM     10  O   UNL     1       1.917   1.811  -3.392  0.00  0.00    -0.251 OA
ATOM     11  H   UNL     1       3.334   1.422  -1.494  0.00  0.00    +0.159 HD
ENDROOT
BRANCH   1  17
ATOM     12  C   UNL     1      -2.613   2.774  -5.150  0.00  0.00    +0.044 C 
ATOM     13  C   UNL     1      -1.727   1.557  -5.087  0.00  0.00    -0.049 A 
ATOM     14  C   UNL     1      -1.740   0.638  -6.120  0.00  0.00    +0.003 A 
ATOM     15  C   UNL     1      -0.929  -0.480  -6.066  0.00  0.00    +0.002 A 
ATOM     16  C   UNL     1      -0.097  -0.679  -4.981  0.00  0.00    +0.024 A 
ATOM     17  C   UNL     1      -0.085   0.239  -3.939  0.00  0.00    +0.046 A 
ATOM     18  C   UNL     1      -0.902   1.361  -3.997  0.00  0.00    +0.027 A 
ENDBRANCH   1  17
BRANCH   5  19
ATOM     19  C   UNL     1       0.094  -3.070  -0.065  0.00  0.00    -0.003 A 
ATOM     20  C   UNL     1      -1.294  -2.615  -0.236  0.00  0.00    +0.031 A 
ATOM     21  C   UNL     1      -2.055  -3.721  -0.262  0.00  0.00    +0.022 A 
ATOM     22  N   UNL     1      -1.256  -4.822  -0.113  0.00  0.00    -0.317 N 
ATOM     23  C   UNL     1       0.033  -4.454   0.006  0.00  0.00    +0.028 A 
ATOM     24  C   UNL     1       1.206  -5.384   0.185  0.00  0.00    +0.064 C 
ATOM     25  C   UNL     1      -3.553  -3.746  -0.425  0.00  0.00    +0.064 C 
BRANCH  22  26
ATOM     26  C   UNL     1      -1.716  -6.146  -0.089  0.00  0.00    +0.049 A 
ATOM     27  C   UNL     1      -1.584  -6.907   1.065  0.00  0.00    +0.026 A 
ATOM     28  C   UNL     1      -2.038  -8.211   1.085  0.00  0.00    +0.004 A 
ATOM     29  C   UNL     1      -2.623  -8.759  -0.042  0.00  0.00    +0.033 A 
ATOM     30  C   UNL     1      -2.755  -8.004  -1.192  0.00  0.00    +0.128 A 
ATOM     31  C   UNL     1      -2.308  -6.697  -1.217  0.00  0.00    +0.058 A 
BRANCH  30  32
ATOM     32  N   UNL     1      -3.381  -8.594  -2.396  0.00  0.00    +0.056 N 
ATOM     33  O   UNL     1      -3.780  -9.745  -2.373  0.00  0.00    -0.126 OA
ATOM     34  O   UNL     1      -3.498  -7.929  -3.410  0.00  0.00    -0.126 OA
ENDBRANCH  30  32
ENDBRANCH  22  26
ENDBRANCH   5  19
TORSDOF 4
