REMARK  Name = ZINC38974712
REMARK  7 active torsions:
REMARK  status: ('A' for Active; 'I' for Inactive)
REMARK    1  A    between atoms: C_1  and  C_2
REMARK    2  A    between atoms: C_8  and  C_14
REMARK    3  A    between atoms: C_14  and  N_15
REMARK    4  A    between atoms: N_15  and  C_16
REMARK    5  A    between atoms: C_22  and  C_24
REMARK    6  A    between atoms: C_24  and  C_25
REMARK    7  A    between atoms: C_24  and  C_26
REMARK                            x       y       z     vdW  Elec       q    Type
REMARK                         _______ _______ _______ _____ _____    ______ ____
ROOT
ATOM      1  C   UNL     1      -0.868   3.046   0.719  0.00  0.00    +0.045 C 
ATOM      2  C   UNL     1      -1.028   1.588   0.373  0.00  0.00    -0.029 A 
ATOM      3  C   UNL     1      -1.271   1.223  -0.913  0.00  0.00    +0.005 A 
ATOM      4  C   UNL     1      -1.429  -0.107  -1.301  0.00  0.00    +0.001 A 
ATOM      5  C   UNL     1      -1.347  -1.121  -0.401  0.00  0.00    +0.009 A 
ATOM      6  C   UNL     1      -1.087  -0.799   1.003  0.00  0.00    -0.007 A 
ATOM      7  C   UNL     1      -0.997  -1.783   1.942  0.00  0.00    -0.003 C 
ATOM      8  C   UNL     1      -0.726  -1.358   3.371  0.00  0.00    +0.116 C 
ATOM      9  C   UNL     1      -0.578   0.123   3.640  0.00  0.00    +0.226 C 
ATOM     10  O   UNL     1      -0.359   0.520   4.769  0.00  0.00    -0.275 OA
ATOM     11  N   UNL     1      -0.687   0.985   2.642  0.00  0.00    -0.284 N 
ATOM     12  C   UNL     1      -0.920   0.615   1.383  0.00  0.00    +0.043 A 
ATOM     13  H   UNL     1      -0.588   1.930   2.836  0.00  0.00    +0.155 HD
ENDROOT
BRANCH   8  14
ATOM     14  C   UNL     1       0.560  -2.048   3.831  0.00  0.00    +0.125 C 
BRANCH  14  15
ATOM     15  N   UNL     1       0.805  -1.736   5.241  0.00  0.00    -0.297 N 
ATOM     16  C   UNL     1       1.667  -0.754   5.574  0.00  0.00    +0.218 C 
ATOM     17  O   UNL     1       1.924  -0.542   6.740  0.00  0.00    -0.275 OA
BRANCH  15  18
ATOM     18  C   UNL     1       0.115  -2.491   6.289  0.00  0.00    +0.076 C 
ATOM     19  C   UNL     1      -0.726  -1.534   7.137  0.00  0.00    +0.022 C 
ATOM     20  C   UNL     1      -1.447  -2.322   8.232  0.00  0.00    +0.002 C 
ATOM     21  C   UNL     1      -0.416  -3.020   9.121  0.00  0.00    +0.000 C 
ATOM     22  C   UNL     1       0.424  -3.977   8.273  0.00  0.00    +0.002 C 
ATOM     23  C   UNL     1       1.146  -3.189   7.178  0.00  0.00    +0.022 C 
ENDBRANCH  15  18
BRANCH  16  24
ATOM     24  C   UNL     1       2.310   0.082   4.497  0.00  0.00    +0.069 C 
ATOM     25  C   UNL     1       2.813   1.394   5.101  0.00  0.00    +0.017 C 
ATOM     26  C   UNL     1       3.486  -0.686   3.890  0.00  0.00    +0.017 C 
ENDBRANCH  16  24
ENDBRANCH  14  15
ENDBRANCH   8  14
TORSDOF 4
