REMARK  Name = ZINC40266695
REMARK  8 active torsions:
REMARK  status: ('A' for Active; 'I' for Inactive)
REMARK    1  A    between atoms: C_1  and  C_2
REMARK    2  A    between atoms: C_2  and  C_3
REMARK    3  A    between atoms: C_2  and  C_4
REMARK    4  A    between atoms: C_4  and  O_5
REMARK    5  A    between atoms: O_5  and  C_6
REMARK    6  A    between atoms: C_11  and  C_12
REMARK    7  A    between atoms: C_15  and  O_28
REMARK    8  A    between atoms: N_21  and  C_22
REMARK                            x       y       z     vdW  Elec       q    Type
REMARK                         _______ _______ _______ _____ _____    ______ ____
ROOT
ATOM      1  C   UNL     1      -3.403   0.575  -3.591  0.00  0.00    +0.084 C 
ATOM      2  C   UNL     1      -4.174   1.877  -3.834  0.00  0.00    +0.110 C 
ATOM      3  C   UNL     1      -5.414   1.640  -4.644  0.00  0.00    +0.190 C 
ATOM      4  N   UNL     1      -5.504   0.721  -5.560  0.00  0.00    -0.197 NA
ATOM      5  C   UNL     1      -4.436  -0.097  -5.782  0.00  0.00    +0.165 A 
ATOM      6  C   UNL     1      -3.407  -0.211  -4.878  0.00  0.00    +0.094 A 
ATOM      7  N   UNL     1      -2.525  -1.077  -5.360  0.00  0.00    -0.237 NA
ATOM      8  C   UNL     1      -2.936  -1.516  -6.524  0.00  0.00    +0.206 A 
ATOM      9  N   UNL     1      -4.133  -0.922  -6.825  0.00  0.00    -0.282 N 
ENDROOT
BRANCH   1  15
ATOM     10  C   UNL     1      -3.380  -0.553  -1.351  0.00  0.00    +0.124 A 
ATOM     11  C   UNL     1      -4.006  -1.282  -0.350  0.00  0.00    +0.046 A 
ATOM     12  C   UNL     1      -5.319  -1.682  -0.506  0.00  0.00    +0.004 A 
ATOM     13  C   UNL     1      -6.010  -1.356  -1.659  0.00  0.00    +0.001 A 
ATOM     14  C   UNL     1      -5.389  -0.629  -2.658  0.00  0.00    +0.008 A 
ATOM     15  C   UNL     1      -4.077  -0.222  -2.504  0.00  0.00    +0.004 A 
BRANCH  10  16
ATOM     16  O   UNL     1      -2.089  -0.158  -1.200  0.00  0.00    -0.491 OA
BRANCH  16  17
ATOM     17  C   UNL     1      -1.433  -0.534   0.013  0.00  0.00    +0.232 C 
BRANCH  17  19
ATOM     18  C   UNL     1      -0.019   1.526   0.010  0.00  0.00    +0.010 C 
ATOM     19  C   UNL     1       0.002  -0.004   0.002  0.00  0.00    +0.020 C 
ATOM     20  C   UNL     1       0.742  -0.511   1.242  0.00  0.00    +0.010 C 
ENDBRANCH  17  19
ENDBRANCH  16  17
ENDBRANCH  10  16
ENDBRANCH   1  15
BRANCH   9  21
ATOM     21  C   UNL     1      -4.899  -1.122  -7.982  0.00  0.00    +0.067 A 
ATOM     22  C   UNL     1      -4.311  -1.040  -9.242  0.00  0.00    +0.029 A 
ATOM     23  C   UNL     1      -5.108  -1.246 -10.355  0.00  0.00    +0.022 A 
ATOM     24  C   UNL     1      -6.451  -1.524 -10.182  0.00  0.00    +0.111 A 
ATOM     25  N   UNL     1      -6.978  -1.595  -8.975  0.00  0.00    -0.261 NA
ATOM     26  C   UNL     1      -6.253  -1.412  -7.889  0.00  0.00    +0.137 A 
ENDBRANCH   9  21
BRANCH   3  27
ATOM     27  O   UNL     1      -6.491   2.420  -4.411  0.00  0.00    -0.495 OA
ATOM     28  H   UNL     1      -7.254   2.213  -4.967  0.00  0.00    +0.293 HD
ENDBRANCH   3  27
TORSDOF 6
