REMARK  Name = ZINC41060231
REMARK  5 active torsions:
REMARK  status: ('A' for Active; 'I' for Inactive)
REMARK    1  A    between atoms: C_1  and  C_2
REMARK    2  A    between atoms: C_2  and  C_3
REMARK    3  A    between atoms: C_4  and  C_14
REMARK    4  A    between atoms: C_6  and  C_8
REMARK    5  A    between atoms: C_8  and  N_13
REMARK                            x       y       z     vdW  Elec       q    Type
REMARK                         _______ _______ _______ _____ _____    ______ ____
ROOT
ATOM      1  C   UNL     1       0.731  -0.503   1.223  0.00  0.00    +0.051 A 
ATOM      2  C   UNL     1       2.072  -0.717   1.212  0.00  0.00    +0.010 A 
ATOM      3  S   UNL     1       2.329  -1.281   2.886  0.00  0.00    -0.075 S 
ATOM      4  C   UNL     1       0.733  -1.186   3.410  0.00  0.00    +0.099 A 
ATOM      5  N   UNL     1       0.097  -0.747   2.352  0.00  0.00    -0.247 NA
ATOM      6  C   UNL     1       3.067  -0.530   0.095  0.00  0.00    +0.053 C 
ENDROOT
BRANCH   4   7
ATOM      7  C   UNL     1       0.172  -1.518   4.769  0.00  0.00    +0.075 C 
ATOM      8  C   UNL     1       1.302  -2.035   5.675  0.00  0.00    +0.040 C 
ATOM      9  C   UNL     1       0.772  -2.070   7.137  0.00  0.00    +0.071 C 
ATOM     10  S   UNL     1      -0.181  -0.495   7.188  0.00  0.00    -0.158 S 
ATOM     11  C   UNL     1      -0.463  -0.250   5.388  0.00  0.00    +0.098 C 
BRANCH   7  12
ATOM     12  N   UNL     1      -0.855  -2.560   4.630  0.00  0.00    -0.319 NA
ATOM     13  H   UNL     1      -1.603  -2.252   4.027  0.00  0.00    +0.119 HD
ATOM     14  H   UNL     1      -0.453  -3.422   4.296  0.00  0.00    +0.119 HD
ENDBRANCH   7  12
ENDBRANCH   4   7
BRANCH   1  16
ATOM     15  C   UNL     1      -0.019   1.526   0.010  0.00  0.00    +0.010 C 
ATOM     16  C   UNL     1       0.002  -0.004   0.002  0.00  0.00    +0.053 C 
ENDBRANCH   1  16
TORSDOF 3
