REMARK  Name = ZINC05852706
REMARK  5 active torsions:
REMARK  status: ('A' for Active; 'I' for Inactive)
REMARK    1  A    between atoms: C_1  and  N_2
REMARK    2  A    between atoms: N_2  and  C_3
REMARK    3  A    between atoms: N_2  and  N_13
REMARK    4  A    between atoms: C_8  and  N_9
REMARK    5  A    between atoms: C_14  and  C_15
REMARK                            x       y       z     vdW  Elec       q    Type
REMARK                         _______ _______ _______ _____ _____    ______ ____
ROOT
ATOM      1  C   UNL     1      -0.111  -3.920   0.217  0.00  0.00    +0.081 A 
ATOM      2  C   UNL     1      -1.060  -4.037   1.236  0.00  0.00    +0.028 A 
ATOM      3  C   UNL     1      -1.720  -5.232   1.425  0.00  0.00    +0.022 A 
ATOM      4  C   UNL     1      -1.443  -6.317   0.608  0.00  0.00    +0.043 A 
ATOM      5  C   UNL     1      -0.501  -6.207  -0.404  0.00  0.00    +0.054 A 
ATOM      6  C   UNL     1       0.161  -5.015  -0.607  0.00  0.00    +0.150 A 
ATOM      7 CL   UNL     1      -2.278  -7.819   0.852  0.00  0.00    -0.083 Cl
ENDROOT
BRANCH   6   8
ATOM      8  N   UNL     1       1.161  -4.897  -1.692  0.00  0.00    +0.058 N 
ATOM      9  O   UNL     1       1.416  -5.931  -2.468  0.00  0.00    -0.126 OA
ATOM     10  O   UNL     1       1.796  -3.760  -1.881  0.00  0.00    -0.126 OA
ENDBRANCH   6   8
BRANCH   1  12
ATOM     11  C   UNL     1      -0.208  -1.493  -0.185  0.00  0.00    +0.158 C 
ATOM     12  N   UNL     1       0.552  -2.728   0.023  0.00  0.00    -0.225 N 
BRANCH  12  13
ATOM     13  N   UNL     1       1.842  -2.699   0.025  0.00  0.00    -0.187 NA
ATOM     14  C   UNL     1       2.497  -2.089   1.023  0.00  0.00    +0.145 C 
BRANCH  14  15
ATOM     15  C   UNL     1       1.804  -1.632   2.126  0.00  0.00    +0.032 A 
ATOM     16  C   UNL     1       2.324  -1.024   3.366  0.00  0.00    +0.017 A 
ATOM     17  C   UNL     1       1.403  -0.675   4.271  0.00  0.00    +0.008 A 
ATOM     18  C   UNL     1       0.050  -0.897   4.002  0.00  0.00    +0.046 A 
ATOM     19  S   UNL     1       0.045  -1.622   2.428  0.00  0.00    -0.096 S 
ENDBRANCH  14  15
ENDBRANCH  12  13
ENDBRANCH   1  12
TORSDOF 4
