REMARK  Name = ZINC08622725
REMARK  6 active torsions:
REMARK  status: ('A' for Active; 'I' for Inactive)
REMARK    1  A    between atoms: C_1  and  C_2
REMARK    2  A    between atoms: C_7  and  N_8
REMARK    3  A    between atoms: C_9  and  C_11
REMARK    4  A    between atoms: C_11  and  N_12
REMARK    5  A    between atoms: C_15  and  C_19
REMARK    6  A    between atoms: C_15  and  C_20
REMARK                            x       y       z     vdW  Elec       q    Type
REMARK                         _______ _______ _______ _____ _____    ______ ____
ROOT
ATOM      1  N   UNL     1       4.140   2.199   4.814  0.00  0.00    -0.215 N 
ATOM      2  C   UNL     1       4.333   1.359   5.851  0.00  0.00    +0.251 C 
ATOM      3  O   UNL     1       4.104   0.170   5.883  0.00  0.00    -0.272 OA
ATOM      4  C   UNL     1       4.898   2.213   6.969  0.00  0.00    +0.135 C 
ATOM      5  N   UNL     1       4.963   3.560   6.377  0.00  0.00    -0.281 N 
ATOM      6  C   UNL     1       4.504   3.450   5.117  0.00  0.00    +0.310 C 
ATOM      7  O   UNL     1       4.427   4.383   4.342  0.00  0.00    -0.252 OA
ATOM      8  C   UNL     1       3.964   2.198   8.181  0.00  0.00    +0.047 C 
ATOM      9  H   UNL     1       5.279   4.369   6.810  0.00  0.00    +0.152 HD
ENDROOT
BRANCH   4  10
ATOM     10  C   UNL     1       6.274   1.737   7.356  0.00  0.00    -0.015 A 
ATOM     11  C   UNL     1       6.606   0.401   7.226  0.00  0.00    +0.007 A 
ATOM     12  C   UNL     1       7.870  -0.035   7.576  0.00  0.00    +0.020 A 
ATOM     13  C   UNL     1       8.800   0.864   8.067  0.00  0.00    +0.041 A 
ATOM     14  C   UNL     1       8.466   2.200   8.202  0.00  0.00    +0.020 A 
ATOM     15  C   UNL     1       7.204   2.636   7.847  0.00  0.00    +0.007 A 
ATOM     16 CL   UNL     1      10.386   0.316   8.513  0.00  0.00    -0.084 Cl
ENDBRANCH   4  10
BRANCH   1  17
ATOM     17  C   UNL     1       3.602   1.790   3.514  0.00  0.00    +0.214 C 
BRANCH  17  19
ATOM     18  N   UNL     1       1.386   1.592   2.433  0.00  0.00    -0.284 N 
ATOM     19  C   UNL     1       2.101   1.915   3.529  0.00  0.00    +0.235 C 
ATOM     20  O   UNL     1       1.535   2.308   4.528  0.00  0.00    -0.274 OA
ATOM     21  H   UNL     1       1.831   1.217   1.657  0.00  0.00    +0.155 HD
BRANCH  18  28
ATOM     22  C   UNL     1       0.174   2.358  -0.024  0.00  0.00    +0.046 C 
ATOM     23  C   UNL     1      -0.630   2.171   1.236  0.00  0.00    -0.028 A 
ATOM     24  C   UNL     1      -1.996   2.377   1.222  0.00  0.00    +0.025 A 
ATOM     25  C   UNL     1      -2.736   2.202   2.377  0.00  0.00    +0.041 A 
ATOM     26  C   UNL     1      -2.108   1.829   3.554  0.00  0.00    +0.022 A 
ATOM     27  C   UNL     1      -0.743   1.626   3.575  0.00  0.00    +0.025 A 
ATOM     28  C   UNL     1       0.002   1.797   2.415  0.00  0.00    +0.036 A 
ATOM     29 CL   UNL     1      -4.453   2.456   2.354  0.00  0.00    -0.084 Cl
ENDBRANCH  18  28
ENDBRANCH  17  19
ENDBRANCH   1  17
TORSDOF 4
