REMARK  Name = ZINC19877977
REMARK  2 active torsions:
REMARK  status: ('A' for Active; 'I' for Inactive)
REMARK    1  A    between atoms: C_4  and  C_7
REMARK    2  A    between atoms: C_17  and  C_19
REMARK                            x       y       z     vdW  Elec       q    Type
REMARK                         _______ _______ _______ _____ _____    ______ ____
ROOT
ATOM      1  C   UNL     1      -0.482   1.038  -0.459  0.00  0.00    +0.031 C 
ATOM      2  C   UNL     1      -0.342   1.758  -1.810  0.00  0.00    +0.026 C 
ATOM      3  C   UNL     1      -0.818   3.221  -1.738  0.00  0.00    +0.172 C 
ATOM      4  S   UNL     1       0.459   4.157  -0.832  0.00  0.00    -0.014 S 
ATOM      5  O   UNL     1       1.612   4.272  -1.654  0.00  0.00    -0.173 OA
ATOM      6  O   UNL     1      -0.132   5.331  -0.291  0.00  0.00    -0.173 OA
ATOM      7  C   UNL     1       0.818   2.990   0.548  0.00  0.00    +0.225 C 
ATOM      8  C   UNL     1       0.903   1.588  -0.085  0.00  0.00    +0.044 C 
ATOM      9  C   UNL     1       1.180   1.647  -1.600  0.00  0.00    +0.031 C 
ATOM     10 CL   UNL     1       2.393   3.413   1.316  0.00  0.00    -0.097 Cl
ENDROOT
BRANCH   1  14
ATOM     11  C   UNL     1      -3.638   2.578   1.975  0.00  0.00    +0.000 A 
ATOM     12  C   UNL     1      -3.826   2.424   0.614  0.00  0.00    +0.000 A 
ATOM     13  C   UNL     1      -2.805   1.925  -0.174  0.00  0.00    +0.004 A 
ATOM     14  C   UNL     1      -1.595   1.582   0.400  0.00  0.00    -0.044 A 
ATOM     15  C   UNL     1      -1.408   1.731   1.761  0.00  0.00    +0.004 A 
ATOM     16  C   UNL     1      -2.428   2.233   2.548  0.00  0.00    +0.000 A 
ENDBRANCH   1  14
BRANCH   9  17
ATOM     17  C   UNL     1       1.774   0.377  -2.152  0.00  0.00    -0.044 A 
ATOM     18  C   UNL     1       3.119   0.323  -2.466  0.00  0.00    +0.004 A 
ATOM     19  C   UNL     1       3.665  -0.843  -2.970  0.00  0.00    +0.000 A 
ATOM     20  C   UNL     1       2.864  -1.952  -3.167  0.00  0.00    +0.000 A 
ATOM     21  C   UNL     1       1.518  -1.896  -2.857  0.00  0.00    +0.000 A 
ATOM     22  C   UNL     1       0.973  -0.732  -2.350  0.00  0.00    +0.004 A 
ENDBRANCH   9  17
TORSDOF 2
