REMARK  Name = ZINC35746720
REMARK  13 active torsions:
REMARK  status: ('A' for Active; 'I' for Inactive)
REMARK    1  A    between atoms: C_1  and  C_2
REMARK    2  A    between atoms: C_8  and  C_19
REMARK    3  A    between atoms: C_12  and  C_13
REMARK    4  A    between atoms: C_13  and  O_15
REMARK    5  A    between atoms: O_15  and  C_16
REMARK    6  A    between atoms: C_16  and  C_17
REMARK    7  A    between atoms: C_19  and  N_20
REMARK    8  A    between atoms: N_20  and  C_21
REMARK    9  A    between atoms: N_20  and  C_32
REMARK   10  A    between atoms: C_21  and  C_22
REMARK   11  A    between atoms: C_22  and  C_24
REMARK   12  A    between atoms: C_22  and  O_31
REMARK   13  A    between atoms: C_24  and  C_25
REMARK                            x       y       z     vdW  Elec       q    Type
REMARK                         _______ _______ _______ _____ _____    ______ ____
ROOT
ATOM      1  C   UNL     1      -0.179  -3.260  -4.643  0.00  0.00    -0.003 C 
ENDROOT
BRANCH   1   9
ATOM      2  C   UNL     1      -3.575   1.190  -1.047  0.00  0.00    +0.046 C 
ATOM      3  C   UNL     1      -3.339  -0.298  -1.013  0.00  0.00    -0.015 A 
ATOM      4  C   UNL     1      -2.531  -0.901  -1.979  0.00  0.00    +0.076 A 
ATOM      5  C   UNL     1      -1.812  -0.282  -3.116  0.00  0.00    +0.260 A 
ATOM      6  O   UNL     1      -1.876   0.918  -3.317  0.00  0.00    -0.267 OA
ATOM      7  N   UNL     1      -1.085  -1.080  -3.922  0.00  0.00    -0.312 N 
ATOM      8  H   UNL     1      -0.608  -0.691  -4.672  0.00  0.00    +0.170 HD
ATOM      9  C   UNL     1      -1.007  -2.416  -3.708  0.00  0.00    +0.094 A 
ATOM     10  N   UNL     1      -1.627  -2.994  -2.715  0.00  0.00    -0.229 NA
ATOM     11  C   UNL     1      -2.370  -2.301  -1.861  0.00  0.00    +0.116 A 
ATOM     12  S   UNL     1      -3.340  -2.704  -0.430  0.00  0.00    -0.062 S 
ATOM     13  C   UNL     1      -3.909  -1.060  -0.034  0.00  0.00    +0.102 A 
BRANCH  13  14
ATOM     14  C   UNL     1      -4.776  -0.633   1.067  0.00  0.00    +0.347 C 
ATOM     15  O   UNL     1      -5.070   0.540   1.190  0.00  0.00    -0.244 OA
BRANCH  14  16
ATOM     16  O   UNL     1      -5.248  -1.542   1.945  0.00  0.00    -0.457 OA
BRANCH  16  17
ATOM     17  C   UNL     1      -6.088  -1.056   2.994  0.00  0.00    +0.259 C 
BRANCH  17  18
ATOM     18  C   UNL     1      -6.515  -2.206   3.869  0.00  0.00    +0.006 C 
ATOM     19  C   UNL     1      -6.476  -2.087   5.173  0.00  0.00    +0.007 C 
ENDBRANCH  17  18
ENDBRANCH  16  17
ENDBRANCH  14  16
ENDBRANCH  13  14
ENDBRANCH   1   9
BRANCH   1  20
ATOM     20  N   UNL     1      -0.097  -4.631  -4.122  0.00  0.00    +0.388 N 
ATOM     21  H   UNL     1      -0.972  -4.878  -3.686  0.00  0.00    -0.081 HD
BRANCH  20  22
ATOM     22  C   UNL     1       0.985  -4.715  -3.132  0.00  0.00    -0.068 C 
ATOM     23  C   UNL     1       0.710  -3.732  -1.992  0.00  0.00    -0.015 C 
ATOM     24  C   UNL     1       1.837  -3.819  -0.961  0.00  0.00    -0.002 C 
ATOM     25  C   UNL     1       3.168  -3.468  -1.628  0.00  0.00    -0.000 C 
ATOM     26  C   UNL     1       3.442  -4.451  -2.768  0.00  0.00    -0.002 C 
ATOM     27  C   UNL     1       2.316  -4.363  -3.799  0.00  0.00    -0.015 C 
ENDBRANCH  20  22
BRANCH  20  28
ATOM     28  C   UNL     1       0.178  -5.559  -5.227  0.00  0.00    -0.046 C 
BRANCH  28  29
ATOM     29  C   UNL     1       0.161  -6.996  -4.703  0.00  0.00    +0.102 C 
BRANCH  29  30
ATOM     30  O   UNL     1      -1.118  -7.279  -4.131  0.00  0.00    -0.393 OA
ATOM     31  H   UNL     1      -1.854  -7.193  -4.752  0.00  0.00    +0.210 HD
ENDBRANCH  29  30
BRANCH  29  32
ATOM     32  C   UNL     1       0.428  -7.964  -5.858  0.00  0.00    +0.064 C 
BRANCH  32  33
ATOM     33  C   UNL     1       0.532  -9.368  -5.323  0.00  0.00    -0.045 A 
ATOM     34  C   UNL     1       1.758  -9.865  -4.921  0.00  0.00    +0.004 A 
ATOM     35  C   UNL     1       1.854 -11.154  -4.430  0.00  0.00    +0.000 A 
ATOM     36  C   UNL     1       0.725 -11.945  -4.340  0.00  0.00    +0.000 A 
ATOM     37  C   UNL     1      -0.501 -11.448  -4.741  0.00  0.00    +0.000 A 
ATOM     38  C   UNL     1      -0.598 -10.158  -5.228  0.00  0.00    +0.004 A 
ENDBRANCH  32  33
ENDBRANCH  29  32
ENDBRANCH  28  29
ENDBRANCH  20  28
ENDBRANCH   1  20
TORSDOF 12
