REMARK  Name = ZINC67128294
REMARK  10 active torsions:
REMARK  status: ('A' for Active; 'I' for Inactive)
REMARK    1  A    between atoms: C_1  and  C_2
REMARK    2  A    between atoms: C_2  and  C_4
REMARK    3  A    between atoms: C_2  and  O_22
REMARK    4  A    between atoms: N_6  and  N_7
REMARK    5  A    between atoms: C_8  and  C_10
REMARK    6  A    between atoms: C_10  and  N_11
REMARK    7  A    between atoms: C_12  and  O_14
REMARK    8  A    between atoms: O_14  and  C_15
REMARK    9  A    between atoms: C_15  and  C_16
REMARK   10  A    between atoms: O_22  and  C_23
REMARK                            x       y       z     vdW  Elec       q    Type
REMARK                         _______ _______ _______ _____ _____    ______ ____
ROOT
ATOM      1  N   UNL     1      -3.674  -0.350  -0.761  0.00  0.00    -0.233 N 
ATOM      2  C   UNL     1      -4.514  -0.093  -1.783  0.00  0.00    +0.246 C 
ATOM      3  O   UNL     1      -4.087   0.387  -2.812  0.00  0.00    -0.273 OA
ATOM      4  H   UNL     1      -4.015  -0.734   0.062  0.00  0.00    +0.173 HD
ENDROOT
BRANCH   1   7
ATOM      5  C   UNL     1      -1.469  -0.321   0.135  0.00  0.00    +0.270 C 
ATOM      6  O   UNL     1      -1.895  -0.800   1.165  0.00  0.00    -0.270 OA
ATOM      7  N   UNL     1      -2.309  -0.064  -0.887  0.00  0.00    -0.231 N 
ATOM      8  H   UNL     1      -1.968   0.320  -1.710  0.00  0.00    +0.173 HD
BRANCH   5  10
ATOM      9  C   UNL     1       0.193   1.499  -0.139  0.00  0.00    +0.062 C 
ATOM     10  C   UNL     1       0.000  -0.013  -0.000  0.00  0.00    +0.257 C 
BRANCH  10  11
ATOM     11  O   UNL     1       0.693  -0.477   1.160  0.00  0.00    -0.477 OA
BRANCH  11  12
ATOM     12  C   UNL     1       2.014  -0.764   1.016  0.00  0.00    +0.157 A 
ATOM     13  C   UNL     1       2.657  -0.496  -0.184  0.00  0.00    +0.048 A 
ATOM     14  C   UNL     1       3.999  -0.788  -0.328  0.00  0.00    +0.004 A 
ATOM     15  C   UNL     1       4.704  -1.348   0.722  0.00  0.00    +0.003 A 
ATOM     16  C   UNL     1       4.067  -1.617   1.919  0.00  0.00    +0.042 A 
ATOM     17  C   UNL     1       2.725  -1.321   2.072  0.00  0.00    +0.165 A 
ATOM     18  F   UNL     1       2.104  -1.578   3.244  0.00  0.00    -0.202 F 
ENDBRANCH  11  12
ENDBRANCH  10  11
ENDBRANCH   5  10
ENDBRANCH   1   7
BRANCH   2  19
ATOM     19  C   UNL     1      -5.983  -0.401  -1.648  0.00  0.00    +0.205 C 
BRANCH  19  20
ATOM     20  N   UNL     1      -6.675  -0.034  -2.885  0.00  0.00    -0.272 N 
ATOM     21  C   UNL     1      -8.005  -0.221  -2.995  0.00  0.00    +0.401 C 
ATOM     22  O   UNL     1      -8.630  -0.695  -2.067  0.00  0.00    -0.226 OA
ATOM     23  H   UNL     1      -6.176   0.345  -3.626  0.00  0.00    +0.153 HD
BRANCH  21  24
ATOM     24  O   UNL     1      -8.642   0.117  -4.132  0.00  0.00    -0.446 OA
BRANCH  24  25
ATOM     25  C   UNL     1     -10.052  -0.110  -4.178  0.00  0.00    +0.269 C 
BRANCH  25  26
ATOM     26  C   UNL     1     -10.587   0.326  -5.518  0.00  0.00    -0.010 A 
ATOM     27  C   UNL     1     -11.018   1.626  -5.701  0.00  0.00    +0.007 A 
ATOM     28  C   UNL     1     -11.508   2.026  -6.930  0.00  0.00    +0.000 A 
ATOM     29  C   UNL     1     -11.568   1.124  -7.976  0.00  0.00    +0.000 A 
ATOM     30  C   UNL     1     -11.136  -0.176  -7.794  0.00  0.00    +0.000 A 
ATOM     31  C   UNL     1     -10.642  -0.574  -6.566  0.00  0.00    +0.007 A 
ENDBRANCH  25  26
ENDBRANCH  24  25
ENDBRANCH  21  24
ENDBRANCH  19  20
ENDBRANCH   2  19
TORSDOF 9
