REMARK  Name = ZINC30874961
REMARK  4 active torsions:
REMARK  status: ('A' for Active; 'I' for Inactive)
REMARK    1  A    between atoms: C_1  and  C_2
REMARK    2  A    between atoms: C_8  and  N_10
REMARK    3  A    between atoms: N_16  and  S_17
REMARK    4  A    between atoms: S_17  and  C_20
REMARK                            x       y       z     vdW  Elec       q    Type
REMARK                         _______ _______ _______ _____ _____    ______ ____
ROOT
ATOM      1  N   UNL     1      -1.437   3.583   2.484  0.00  0.00    -0.268 NA
ATOM      2  C   UNL     1      -1.373   5.052   2.587  0.00  0.00    +0.193 C 
ATOM      3  N   UNL     1      -2.166   5.447   3.762  0.00  0.00    -0.303 N 
ATOM      4  C   UNL     1      -2.051   4.692   4.908  0.00  0.00    +0.202 C 
ATOM      5  N   UNL     1      -1.462   3.537   4.893  0.00  0.00    -0.303 N 
ATOM      6  C   UNL     1      -0.870   2.964   3.688  0.00  0.00    +0.193 C 
ATOM      7  N   UNL     1      -2.570   5.170   6.088  0.00  0.00    -0.097 NA
ATOM      8  H   UNL     1      -2.827   6.325   3.710  0.00  0.00    +0.150 HD
ATOM      9  H   UNL     1      -1.420   2.985   5.843  0.00  0.00    +0.150 HD
ENDROOT
BRANCH   1  16
ATOM     10  C   UNL     1      -2.164   1.050   1.278  0.00  0.00    +0.009 C 
ATOM     11  C   UNL     1      -0.729   1.579   1.267  0.00  0.00    +0.003 C 
ATOM     12  C   UNL     1      -0.013   1.086   0.008  0.00  0.00    +0.005 C 
ATOM     13  C   UNL     1      -0.753   1.593  -1.232  0.00  0.00    +0.000 C 
ATOM     14  C   UNL     1      -0.773   3.123  -1.223  0.00  0.00    +0.002 C 
ATOM     15  C   UNL     1      -1.490   3.616   0.036  0.00  0.00    +0.019 C 
ATOM     16  C   UNL     1      -0.750   3.109   1.275  0.00  0.00    +0.062 C 
ENDBRANCH   1  16
BRANCH   7  17
ATOM     17  S   UNL     1      -2.440   4.274   7.474  0.00  0.00    +0.102 S 
ATOM     18  O   UNL     1      -3.039   5.039   8.510  0.00  0.00    -0.146 OA
ATOM     19  O   UNL     1      -2.873   2.960   7.149  0.00  0.00    -0.146 OA
BRANCH  17  20
ATOM     20  C   UNL     1      -0.725   4.158   7.860  0.00  0.00    +0.113 A 
ATOM     21  C   UNL     1       0.026   3.109   7.362  0.00  0.00    +0.032 A 
ATOM     22  C   UNL     1       1.373   3.020   7.661  0.00  0.00    +0.040 A 
ATOM     23  C   UNL     1       1.967   3.975   8.468  0.00  0.00    +0.124 A 
ATOM     24  C   UNL     1       1.213   5.022   8.971  0.00  0.00    +0.040 A 
ATOM     25  C   UNL     1      -0.132   5.112   8.666  0.00  0.00    +0.032 A 
ATOM     26  F   UNL     1       3.282   3.886   8.764  0.00  0.00    -0.205 F 
ENDBRANCH  17  20
ENDBRANCH   7  17
TORSDOF 3
