REMARK  Name = ZINC35564782
REMARK  5 active torsions:
REMARK  status: ('A' for Active; 'I' for Inactive)
REMARK    1  A    between atoms: C_3  and  C_8
REMARK    2  A    between atoms: C_8  and  N_9
REMARK    3  A    between atoms: C_22  and  C_24
REMARK    4  A    between atoms: C_24  and  N_25
REMARK    5  A    between atoms: N_28  and  C_31
REMARK                            x       y       z     vdW  Elec       q    Type
REMARK                         _______ _______ _______ _____ _____    ______ ____
ROOT
ATOM      1  N   UNL     1       4.936   4.123   5.411  0.00  0.00    +0.383 N 
ATOM      2  C   UNL     1       4.469   2.778   5.741  0.00  0.00    -0.077 C 
ATOM      3  C   UNL     1       3.728   2.203   4.555  0.00  0.00    +0.000 C 
ATOM      4  C   UNL     1       4.701   1.379   3.692  0.00  0.00    +0.106 C 
ATOM      5  N   UNL     1       6.017   2.044   3.594  0.00  0.00    -0.303 N 
ATOM      6  C   UNL     1       6.150   3.474   3.410  0.00  0.00    +0.089 C 
ATOM      7  C   UNL     1       6.202   4.178   4.787  0.00  0.00    -0.059 C 
ATOM      8  C   UNL     1       7.150   1.281   3.681  0.00  0.00    +0.198 A 
ATOM      9  N   UNL     1       8.366   1.891   3.712  0.00  0.00    -0.295 N 
ATOM     10  H   UNL     1       8.426   2.858   3.672  0.00  0.00    +0.172 HD
ATOM     11  C   UNL     1       9.488   1.145   3.797  0.00  0.00    +0.253 A 
ATOM     12  O   UNL     1      10.586   1.675   3.826  0.00  0.00    -0.268 OA
ATOM     13  C   UNL     1       9.366  -0.255   3.853  0.00  0.00    +0.094 A 
ATOM     14  C   UNL     1       8.120  -0.811   3.819  0.00  0.00    +0.064 A 
ATOM     15  N   UNL     1       7.044  -0.032   3.739  0.00  0.00    -0.219 NA
ATOM     16  H   UNL     1       4.260   4.551   4.797  0.00  0.00    -0.081 HD
ENDROOT
BRANCH   1  17
ATOM     17  C   UNL     1       4.996   4.910   6.650  0.00  0.00    -0.043 C 
BRANCH  17  20
ATOM     18  C   UNL     1       4.359   8.532   5.797  0.00  0.00    +0.003 A 
ATOM     19  C   UNL     1       4.149   7.201   6.106  0.00  0.00    +0.002 A 
ATOM     20  C   UNL     1       5.227   6.360   6.314  0.00  0.00    -0.061 A 
ATOM     21  C   UNL     1       6.516   6.850   6.214  0.00  0.00    +0.040 A 
ATOM     22  C   UNL     1       6.727   8.183   5.905  0.00  0.00    +0.124 A 
ATOM     23  C   UNL     1       5.647   9.024   5.696  0.00  0.00    +0.038 A 
ATOM     24  F   UNL     1       7.986   8.663   5.807  0.00  0.00    -0.205 F 
ENDBRANCH  17  20
ENDBRANCH   1  17
BRANCH  14  25
ATOM     25  C   UNL     1       7.963  -2.308   3.877  0.00  0.00    +0.140 C 
BRANCH  25  26
ATOM     26  N   UNL     1       7.271  -2.680   5.118  0.00  0.00    -0.300 NA
ATOM     27  C   UNL     1       8.098  -2.375   6.294  0.00  0.00    +0.066 C 
ATOM     28  C   UNL     1       7.320  -2.720   7.566  0.00  0.00    -0.063 C 
ATOM     29  N   UNL     1       6.966  -4.146   7.551  0.00  0.00    +0.383 N 
ATOM     30  C   UNL     1       6.120  -4.430   6.385  0.00  0.00    -0.063 C 
ATOM     31  C   UNL     1       6.888  -4.099   5.104  0.00  0.00    +0.066 C 
ATOM     32  H   UNL     1       7.807  -4.700   7.499  0.00  0.00    -0.081 HD
BRANCH  29  33
ATOM     33  C   UNL     1       6.235  -4.481   8.780  0.00  0.00    -0.068 C 
ATOM     34  C   UNL     1       7.117  -4.187   9.995  0.00  0.00    -0.015 C 
ATOM     35  C   UNL     1       6.355  -4.536  11.275  0.00  0.00    -0.002 C 
ATOM     36  C   UNL     1       5.986  -6.021  11.260  0.00  0.00    -0.000 C 
ATOM     37  C   UNL     1       5.104  -6.315  10.046  0.00  0.00    -0.002 C 
ATOM     38  C   UNL     1       5.866  -5.966   8.765  0.00  0.00    -0.015 C 
ENDBRANCH  29  33
ENDBRANCH  25  26
ENDBRANCH  14  25
TORSDOF 5
