REMARK  Name = ZINC38547035
REMARK  10 active torsions:
REMARK  status: ('A' for Active; 'I' for Inactive)
REMARK    1  A    between atoms: C_1  and  C_2
REMARK    2  A    between atoms: N_8  and  C_9
REMARK    3  A    between atoms: C_9  and  C_11
REMARK    4  A    between atoms: C_9  and  C_19
REMARK    5  A    between atoms: C_16  and  O_17
REMARK    6  A    between atoms: O_17  and  C_18
REMARK    7  A    between atoms: C_20  and  C_34
REMARK    8  A    between atoms: C_21  and  C_33
REMARK    9  A    between atoms: C_23  and  N_24
REMARK   10  A    between atoms: C_25  and  C_27
REMARK                            x       y       z     vdW  Elec       q    Type
REMARK                         _______ _______ _______ _____ _____    ______ ____
ROOT
ATOM      1  C   UNL     1       0.130  -1.958   3.836  0.00  0.00    +0.138 C 
ENDROOT
BRANCH   1   9
ATOM      2  C   UNL     1       0.874   2.128   0.834  0.00  0.00    +0.044 C 
ATOM      3  C   UNL     1       0.817   0.639   0.613  0.00  0.00    -0.046 A 
ATOM      4  C   UNL     1       0.990   0.102  -0.657  0.00  0.00    +0.021 A 
ATOM      5  C   UNL     1       0.933  -1.266  -0.826  0.00  0.00    +0.084 A 
ATOM      6  N   UNL     1       0.716  -2.067   0.201  0.00  0.00    -0.350 N 
ATOM      7  C   UNL     1       0.546  -1.594   1.426  0.00  0.00    +0.097 A 
ATOM      8  C   UNL     1       0.597  -0.225   1.670  0.00  0.00    +0.045 A 
ATOM      9  N   UNL     1       0.320  -2.474   2.478  0.00  0.00    -0.319 N 
ATOM     10  H   UNL     1       0.287  -3.429   2.313  0.00  0.00    +0.148 HD
ATOM     11  H   UNL     1       0.681  -3.025   0.054  0.00  0.00    +0.166 HD
ENDBRANCH   1   9
BRANCH   1  12
ATOM     12  C   UNL     1      -0.564  -2.998   4.676  0.00  0.00    +0.009 A 
ATOM     13  C   UNL     1      -1.663  -2.662   5.446  0.00  0.00    -0.033 A 
ATOM     14  C   UNL     1      -2.264  -3.622   6.190  0.00  0.00    -0.008 A 
ATOM     15  S   UNL     1      -1.273  -5.059   5.816  0.00  0.00    -0.078 S 
ATOM     16  C   UNL     1      -0.125  -4.288   4.687  0.00  0.00    +0.078 A 
ATOM     17  C   UNL     1      -3.460  -3.506   7.100  0.00  0.00    +0.052 C 
ATOM     18  C   UNL     1      -2.184  -1.248   5.458  0.00  0.00    +0.045 C 
BRANCH  16  19
ATOM     19  N   UNL     1       0.946  -4.858   3.996  0.00  0.00    -0.276 N 
ATOM     20  C   UNL     1       1.153  -6.189   4.052  0.00  0.00    +0.249 C 
ATOM     21  O   UNL     1       0.406  -6.893   4.705  0.00  0.00    -0.270 OA
ATOM     22  H   UNL     1       1.541  -4.296   3.475  0.00  0.00    +0.156 HD
BRANCH  20  23
ATOM     23  C   UNL     1       2.287  -6.792   3.321  0.00  0.00    +0.037 A 
ATOM     24  C   UNL     1       3.148  -5.986   2.575  0.00  0.00    +0.013 A 
ATOM     25  C   UNL     1       4.205  -6.555   1.895  0.00  0.00    +0.001 A 
ATOM     26  C   UNL     1       4.411  -7.922   1.951  0.00  0.00    +0.000 A 
ATOM     27  C   UNL     1       3.560  -8.727   2.688  0.00  0.00    +0.001 A 
ATOM     28  C   UNL     1       2.503  -8.170   3.377  0.00  0.00    +0.013 A 
ENDBRANCH  20  23
ENDBRANCH  16  19
ENDBRANCH   1  12
BRANCH   1  29
ATOM     29  C   UNL     1       1.472  -1.636   4.443  0.00  0.00    +0.019 A 
ATOM     30  C   UNL     1       2.620  -2.196   3.918  0.00  0.00    +0.009 A 
ATOM     31  C   UNL     1       3.851  -1.902   4.474  0.00  0.00    +0.001 A 
ATOM     32  C   UNL     1       3.936  -1.046   5.557  0.00  0.00    +0.004 A 
ATOM     33  C   UNL     1       2.791  -0.482   6.085  0.00  0.00    +0.046 A 
ATOM     34  C   UNL     1       1.555  -0.772   5.525  0.00  0.00    +0.125 A 
BRANCH  34  35
ATOM     35  O   UNL     1       0.427  -0.215   6.040  0.00  0.00    -0.495 OA
ATOM     36  C   UNL     1       0.588   0.665   7.154  0.00  0.00    +0.277 C 
ENDBRANCH  34  35
ENDBRANCH   1  29
TORSDOF 6
