REMARK  Name = ZINC04236684
REMARK  12 active torsions:
REMARK  status: ('A' for Active; 'I' for Inactive)
REMARK    1  A    between atoms: C_1  and  C_2
REMARK    2  A    between atoms: C_2  and  C_3
REMARK    3  A    between atoms: C_3  and  N_4
REMARK    4  A    between atoms: C_5  and  O_7
REMARK    5  A    between atoms: O_7  and  C_8
REMARK    6  A    between atoms: C_12  and  C_35
REMARK    7  A    between atoms: C_15  and  C_16
REMARK    8  A    between atoms: C_15  and  C_17
REMARK    9  A    between atoms: C_17  and  O_18
REMARK   10  A    between atoms: C_21  and  O_34
REMARK   11  A    between atoms: C_23  and  C_25
REMARK   12  A    between atoms: C_25  and  C_26
REMARK                            x       y       z     vdW  Elec       q    Type
REMARK                         _______ _______ _______ _____ _____    ______ ____
ROOT
ATOM      1  C   UNL     1      -2.566   1.644  -0.219  0.00  0.00    +0.186 C 
ATOM      2  C   UNL     1      -3.012   1.054  -1.558  0.00  0.00    +0.046 C 
ATOM      3  C   UNL     1      -4.154   0.062  -1.323  0.00  0.00    +0.011 C 
ATOM      4  C   UNL     1      -5.331   0.787  -0.667  0.00  0.00    -0.023 C 
ATOM      5  C   UNL     1      -4.885   1.377   0.672  0.00  0.00    +0.007 C 
ATOM      6  C   UNL     1      -3.743   2.368   0.437  0.00  0.00    +0.031 C 
ATOM      7  C   UNL     1      -3.297   2.959   1.776  0.00  0.00    +0.017 C 
ATOM      8  C   UNL     1      -4.403   0.252   1.590  0.00  0.00    +0.007 C 
ATOM      9  C   UNL     1      -5.545  -0.739   1.825  0.00  0.00    +0.032 C 
ATOM     10  C   UNL     1      -5.991  -1.329   0.486  0.00  0.00    +0.119 C 
ATOM     11  C   UNL     1      -6.473  -0.204  -0.432  0.00  0.00    +0.032 C 
ATOM     12  C   UNL     1      -5.813   1.912  -1.585  0.00  0.00    +0.012 C 
ENDROOT
BRANCH  10  13
ATOM     13  O   UNL     1      -7.057  -2.255   0.705  0.00  0.00    -0.391 OA
ATOM     14  H   UNL     1      -6.823  -2.996   1.280  0.00  0.00    +0.210 HD
ENDBRANCH  10  13
BRANCH   1  15
ATOM     15  O   UNL     1      -1.482   2.584  -0.441  0.00  0.00    -0.446 OA
BRANCH  15  17
ATOM     16  N   UNL     1       0.822   2.911  -0.614  0.00  0.00    -0.281 N 
ATOM     17  C   UNL     1      -0.229   2.092  -0.409  0.00  0.00    +0.401 C 
ATOM     18  O   UNL     1      -0.046   0.909  -0.201  0.00  0.00    -0.226 OA
ATOM     19  H   UNL     1       0.676   3.855  -0.780  0.00  0.00    +0.152 HD
BRANCH  16  20
ATOM     20  C   UNL     1       2.185   2.374  -0.585  0.00  0.00    +0.107 C 
BRANCH  20  22
ATOM     21  C   UNL     1       4.606   2.944  -0.814  0.00  0.00    +0.005 C 
ATOM     22  C   UNL     1       3.183   3.504  -0.844  0.00  0.00    +0.015 C 
ENDBRANCH  20  22
ENDBRANCH  16  20
ENDBRANCH  15  17
ENDBRANCH   1  15
BRANCH   6  23
ATOM     23  C   UNL     1      -4.225   3.493  -0.481  0.00  0.00    +0.166 C 
BRANCH  23  24
ATOM     24  O   UNL     1      -3.233   4.521  -0.536  0.00  0.00    -0.394 OA
ATOM     25  H   UNL     1      -3.472   5.268  -1.101  0.00  0.00    +0.209 HD
ENDBRANCH  23  24
ENDBRANCH   6  23
BRANCH  11  26
ATOM     26  C   UNL     1      -7.650   0.520   0.224  0.00  0.00    +0.102 C 
BRANCH  26  27
ATOM     27  C   UNL     1      -8.857  -0.382   0.224  0.00  0.00    +0.216 C 
ATOM     28  O   UNL     1      -8.839  -1.421  -0.401  0.00  0.00    -0.276 OA
ATOM     29  N   UNL     1      -9.958  -0.034   0.920  0.00  0.00    -0.297 N 
ATOM     30  C   UNL     1     -10.002   1.219   1.691  0.00  0.00    +0.136 C 
ATOM     31  C   UNL     1     -11.284   1.975   1.304  0.00  0.00    +0.179 C 
ATOM     32  O   UNL     1     -12.406   1.101   1.449  0.00  0.00    -0.377 OA
ATOM     33  C   UNL     1     -12.373  -0.041   0.590  0.00  0.00    +0.179 C 
ATOM     34  C   UNL     1     -11.149  -0.898   0.935  0.00  0.00    +0.136 C 
ENDBRANCH  26  27
ENDBRANCH  11  26
TORSDOF 9
