REMARK  Name = ZINC06721663
REMARK  8 active torsions:
REMARK  status: ('A' for Active; 'I' for Inactive)
REMARK    1  A    between atoms: C_1  and  C_2
REMARK    2  A    between atoms: C_5  and  O_33
REMARK    3  A    between atoms: C_6  and  C_8
REMARK    4  A    between atoms: C_21  and  C_23
REMARK    5  A    between atoms: C_26  and  O_31
REMARK    6  A    between atoms: C_27  and  O_29
REMARK    7  A    between atoms: O_29  and  C_30
REMARK    8  A    between atoms: O_31  and  C_32
REMARK                            x       y       z     vdW  Elec       q    Type
REMARK                         _______ _______ _______ _____ _____    ______ ____
ROOT
ATOM      1  C   UNL     1       3.977  -3.945   1.623  0.00  0.00    +0.072 C 
ATOM      2  N   UNL     1       2.764  -3.495   1.596  0.00  0.00    -0.184 NA
ATOM      3  N   UNL     1       2.503  -2.678   0.513  0.00  0.00    -0.205 N 
ATOM      4  C   UNL     1       3.779  -2.370  -0.173  0.00  0.00    +0.136 C 
ATOM      5  C   UNL     1       4.750  -3.383   0.448  0.00  0.00    +0.086 C 
ATOM      6  C   UNL     1       3.548  -2.635  -1.638  0.00  0.00    +0.017 A 
ATOM      7  C   UNL     1       4.636  -2.760  -2.482  0.00  0.00    +0.009 A 
ATOM      8  C   UNL     1       4.450  -2.989  -3.831  0.00  0.00    +0.001 A 
ATOM      9  C   UNL     1       3.168  -3.091  -4.338  0.00  0.00    +0.004 A 
ATOM     10  C   UNL     1       2.080  -2.973  -3.500  0.00  0.00    +0.046 A 
ATOM     11  C   UNL     1       2.258  -2.750  -2.134  0.00  0.00    +0.129 A 
ATOM     12  O   UNL     1       1.139  -2.672  -1.366  0.00  0.00    -0.465 OA
ATOM     13  C   UNL     1       1.227  -2.186  -0.021  0.00  0.00    +0.310 C 
ENDROOT
BRANCH   1  19
ATOM     14  C   UNL     1       7.792  -6.590   3.443  0.00  0.00    +0.044 C 
ATOM     15  C   UNL     1       6.356  -6.139   3.523  0.00  0.00    -0.050 A 
ATOM     16  C   UNL     1       5.549  -6.586   4.555  0.00  0.00    +0.007 A 
ATOM     17  C   UNL     1       4.231  -6.178   4.638  0.00  0.00    +0.046 A 
ATOM     18  C   UNL     1       3.710  -5.313   3.690  0.00  0.00    +0.126 A 
ATOM     19  C   UNL     1       4.522  -4.862   2.641  0.00  0.00    +0.039 A 
ATOM     20  C   UNL     1       5.852  -5.281   2.568  0.00  0.00    +0.016 A 
BRANCH  18  21
ATOM     21  O   UNL     1       2.417  -4.907   3.775  0.00  0.00    -0.506 OA
ATOM     22  H   UNL     1       1.793  -5.481   3.309  0.00  0.00    +0.292 HD
ENDBRANCH  18  21
ENDBRANCH   1  19
BRANCH  13  23
ATOM     23  C   UNL     1       1.208  -0.679  -0.013  0.00  0.00    +0.016 A 
ATOM     24  C   UNL     1       1.796   0.012   1.030  0.00  0.00    +0.013 A 
ATOM     25  C   UNL     1       1.781   1.395   1.043  0.00  0.00    +0.050 A 
ATOM     26  C   UNL     1       1.177   2.090   0.007  0.00  0.00    +0.162 A 
ATOM     27  C   UNL     1       0.587   1.395  -1.043  0.00  0.00    +0.162 A 
ATOM     28  C   UNL     1       0.605   0.009  -1.049  0.00  0.00    +0.058 A 
BRANCH  27  29
ATOM     29  O   UNL     1      -0.002   2.073  -2.064  0.00  0.00    -0.491 OA
ATOM     30  C   UNL     1      -0.583   1.293  -3.111  0.00  0.00    +0.277 C 
ENDBRANCH  27  29
BRANCH  26  31
ATOM     31  O   UNL     1       1.163   3.450   0.018  0.00  0.00    -0.491 OA
ATOM     32  C   UNL     1       1.788   4.097   1.128  0.00  0.00    +0.277 C 
ENDBRANCH  26  31
ENDBRANCH  13  23
TORSDOF 5
