REMARK  Name = ZINC13630153
REMARK  7 active torsions:
REMARK  status: ('A' for Active; 'I' for Inactive)
REMARK    1  A    between atoms: C_3  and  C_6
REMARK    2  A    between atoms: C_6  and  N_7
REMARK    3  A    between atoms: C_9  and  C_14
REMARK    4  A    between atoms: N_16  and  N_17
REMARK    5  A    between atoms: N_17  and  C_18
REMARK    6  A    between atoms: C_18  and  N_20
REMARK    7  A    between atoms: C_21  and  C_23
REMARK                            x       y       z     vdW  Elec       q    Type
REMARK                         _______ _______ _______ _____ _____    ______ ____
ROOT
ATOM      1  C   UNL     1       6.587   4.958  -0.034  0.00  0.00    +0.234 C 
ATOM      2  O   UNL     1       7.735   4.569  -0.047  0.00  0.00    -0.274 OA
ATOM      3  N   UNL     1       5.574   4.068  -0.029  0.00  0.00    -0.235 N 
ATOM      4  H   UNL     1       4.655   4.379  -0.019  0.00  0.00    +0.173 HD
ENDROOT
BRANCH   1   7
ATOM      5  N   UNL     1       7.233   8.407   0.964  0.00  0.00    -0.293 N 
ATOM      6  C   UNL     1       7.590   7.258   0.123  0.00  0.00    +0.121 C 
ATOM      7  C   UNL     1       6.291   6.435  -0.024  0.00  0.00    +0.102 C 
ATOM      8  C   UNL     1       5.518   6.836   1.254  0.00  0.00    +0.110 C 
ATOM      9  C   UNL     1       6.077   8.194   1.615  0.00  0.00    +0.217 C 
ATOM     10  O   UNL     1       5.557   8.978   2.381  0.00  0.00    -0.276 OA
BRANCH   5  11
ATOM     11  C   UNL     1       8.035   9.628   1.079  0.00  0.00    +0.182 C 
BRANCH  11  14
ATOM     12  C   UNL     1      10.843   9.020   3.387  0.00  0.00    +0.041 A 
ATOM     13  C   UNL     1      10.270   8.977   2.095  0.00  0.00    +0.046 A 
ATOM     14  C   UNL     1       9.025   9.475   2.205  0.00  0.00    +0.122 A 
ATOM     15  O   UNL     1       8.812   9.807   3.489  0.00  0.00    -0.466 OA
ATOM     16  C   UNL     1       9.912   9.533   4.210  0.00  0.00    +0.195 A 
ENDBRANCH  11  14
ENDBRANCH   5  11
ENDBRANCH   1   7
BRANCH   3  17
ATOM     17  N   UNL     1       5.849   2.694  -0.039  0.00  0.00    -0.246 N 
ATOM     18  H   UNL     1       6.768   2.383  -0.050  0.00  0.00    +0.172 HD
BRANCH  17  19
ATOM     19  C   UNL     1       4.837   1.804  -0.034  0.00  0.00    +0.153 C 
ATOM     20  S   UNL     1       5.173   0.126  -0.046  0.00  0.00    -0.017 S 
BRANCH  19  21
ATOM     21  N   UNL     1       3.560   2.236  -0.020  0.00  0.00    -0.262 N 
ATOM     22  C   UNL     1       2.548   1.346  -0.015  0.00  0.00    +0.256 C 
ATOM     23  O   UNL     1       2.787   0.153  -0.024  0.00  0.00    -0.269 OA
ATOM     24  H   UNL     1       3.370   3.187  -0.013  0.00  0.00    +0.157 HD
BRANCH  22  25
ATOM     25  C   UNL     1       1.160   1.816   0.001  0.00  0.00    +0.074 A 
ATOM     26  C   UNL     1      -0.013   1.076   0.008  0.00  0.00    +0.021 A 
ATOM     27  C   UNL     1      -1.193   1.776   0.017  0.00  0.00    +0.008 A 
ATOM     28  C   UNL     1      -1.158   3.135   0.029  0.00  0.00    +0.046 A 
ATOM     29  S   UNL     1       0.539   3.488   0.015  0.00  0.00    -0.092 S 
ENDBRANCH  22  25
ENDBRANCH  19  21
ENDBRANCH  17  19
ENDBRANCH   3  17
TORSDOF 7
