REMARK  Name = ZINC19344925
REMARK  7 active torsions:
REMARK  status: ('A' for Active; 'I' for Inactive)
REMARK    1  A    between atoms: C_1  and  C_2
REMARK    2  A    between atoms: C_2  and  C_3
REMARK    3  A    between atoms: C_3  and  C_17
REMARK    4  A    between atoms: N_4  and  N_5
REMARK    5  A    between atoms: C_6  and  C_8
REMARK    6  A    between atoms: N_10  and  C_11
REMARK    7  A    between atoms: C_11  and  C_12
REMARK                            x       y       z     vdW  Elec       q    Type
REMARK                         _______ _______ _______ _____ _____    ______ ____
ROOT
ATOM      1  N   UNL     1       0.607   3.496  -1.174  0.00  0.00    -0.199 N 
ATOM      2  C   UNL     1       0.942   4.681  -1.721  0.00  0.00    +0.318 C 
ATOM      3  O   UNL     1       0.355   5.083  -2.705  0.00  0.00    -0.263 OA
ATOM      4  H   UNL     1       1.139   3.132  -0.283  0.00  0.00    +0.178 HD
ENDROOT
BRANCH   2   5
ATOM      5  C   UNL     1       2.034   5.499  -1.118  0.00  0.00    +0.301 C 
ATOM      6  O   UNL     1       2.621   5.097  -0.135  0.00  0.00    -0.265 OA
ATOM      7  N   UNL     1       2.369   6.684  -1.665  0.00  0.00    -0.300 N 
ATOM      8  H   UNL     1       1.837   7.049  -2.556  0.00  0.00    +0.150 HD
BRANCH   7   9
ATOM      9  C   UNL     1       3.442   7.487  -1.073  0.00  0.00    +0.179 C 
BRANCH   9  10
ATOM     10  C   UNL     1       3.617   8.756  -1.867  0.00  0.00    +0.122 A 
ATOM     11  C   UNL     1       2.980   9.919  -1.643  0.00  0.00    +0.046 A 
ATOM     12  C   UNL     1       3.441  10.834  -2.617  0.00  0.00    +0.041 A 
ATOM     13  C   UNL     1       4.333  10.175  -3.379  0.00  0.00    +0.195 A 
ATOM     14  O   UNL     1       4.439   8.919  -2.917  0.00  0.00    -0.466 OA
ENDBRANCH   9  10
ENDBRANCH   7   9
ENDBRANCH   2   5
BRANCH   1  16
ATOM     15  C   UNL     1      -0.742   1.585  -1.213  0.00  0.00    +0.070 C 
ATOM     16  N   UNL     1      -0.419   2.728  -1.740  0.00  0.00    -0.184 NA
BRANCH  15  17
ATOM     17  C   UNL     1      -1.820   0.778  -1.808  0.00  0.00    +0.047 A 
ATOM     18  C   UNL     1      -2.167  -0.455  -1.248  0.00  0.00    +0.033 A 
ATOM     19  C   UNL     1      -3.180  -1.204  -1.807  0.00  0.00    +0.043 A 
ATOM     20  C   UNL     1      -3.851  -0.745  -2.930  0.00  0.00    +0.044 A 
ATOM     21  C   UNL     1      -3.514   0.470  -3.497  0.00  0.00    +0.090 A 
ATOM     22  C   UNL     1      -2.500   1.238  -2.944  0.00  0.00    +0.206 A 
ATOM     23  O   UNL     1      -2.169   2.432  -3.500  0.00  0.00    -0.286 OA
ATOM     24 CL   UNL     1      -4.361   1.036  -4.903  0.00  0.00    -0.080 Cl
ATOM     25 CL   UNL     1      -3.614  -2.732  -1.107  0.00  0.00    -0.083 Cl
ENDBRANCH  15  17
BRANCH  15  27
ATOM     26  C   UNL     1      -0.729   1.579   1.267  0.00  0.00    +0.010 C 
ATOM     27  C   UNL     1      -0.013   1.086   0.008  0.00  0.00    +0.054 C 
ENDBRANCH  15  27
ENDBRANCH   1  16
TORSDOF 6
