REMARK  Name = ZINC27667184
REMARK  8 active torsions:
REMARK  status: ('A' for Active; 'I' for Inactive)
REMARK    1  A    between atoms: C_1  and  O_2
REMARK    2  A    between atoms: O_2  and  C_3
REMARK    3  A    between atoms: C_6  and  C_9
REMARK    4  A    between atoms: C_9  and  C_11
REMARK    5  A    between atoms: C_9  and  N_29
REMARK    6  A    between atoms: C_11  and  N_12
REMARK    7  A    between atoms: C_13  and  C_15
REMARK    8  A    between atoms: C_15  and  N_16
REMARK                            x       y       z     vdW  Elec       q    Type
REMARK                         _______ _______ _______ _____ _____    ______ ____
ROOT
ATOM      1  C   UNL     1      -2.094  -2.919   6.324  0.00  0.00    +0.093 C 
ENDROOT
BRANCH   1   2
ATOM      2  N   UNL     1      -0.899  -3.545   5.753  0.00  0.00    -0.315 N 
ATOM      3  C   UNL     1      -0.710  -3.541   4.418  0.00  0.00    +0.231 C 
ATOM      4  O   UNL     1      -1.528  -3.020   3.691  0.00  0.00    -0.274 OA
ATOM      5  H   UNL     1      -0.157  -4.018   6.412  0.00  0.00    +0.149 HD
BRANCH   3   6
ATOM      6  C   UNL     1       0.519  -4.185   3.830  0.00  0.00    +0.212 C 
BRANCH   6   7
ATOM      7  N   UNL     1       0.491  -4.049   2.372  0.00  0.00    -0.233 N 
ATOM      8  C   UNL     1      -0.079  -4.966   1.548  0.00  0.00    +0.226 C 
ATOM      9  O   UNL     1      -0.805  -5.882   1.871  0.00  0.00    -0.275 OA
ATOM     10  C   UNL     1       0.370  -4.623   0.162  0.00  0.00    +0.091 C 
ATOM     11  C   UNL     1      -0.600  -4.836  -0.981  0.00  0.00    +0.040 C 
ATOM     12  C   UNL     1      -0.043  -4.094  -2.178  0.00  0.00    -0.030 C 
ATOM     13  C   UNL     1       0.855  -3.158  -2.107  0.00  0.00    -0.030 C 
ATOM     14  C   UNL     1       1.460  -2.650  -0.816  0.00  0.00    +0.040 C 
ATOM     15  C   UNL     1       0.531  -3.076   0.302  0.00  0.00    +0.091 C 
ATOM     16  C   UNL     1       1.034  -2.992   1.712  0.00  0.00    +0.226 C 
ATOM     17  O   UNL     1       1.776  -2.151   2.171  0.00  0.00    -0.275 OA
ENDBRANCH   6   7
ENDBRANCH   3   6
ENDBRANCH   1   2
BRANCH   1  18
ATOM     18  C   UNL     1      -2.137  -3.184   7.831  0.00  0.00    -0.020 C 
BRANCH  18  19
ATOM     19  N   UNL     1      -3.295  -2.495   8.416  0.00  0.00    +0.385 N 
ATOM     20  C   UNL     1      -3.244  -1.053   8.143  0.00  0.00    -0.078 C 
ATOM     21  C   UNL     1      -4.532  -0.393   8.638  0.00  0.00    -0.019 C 
ATOM     22  C   UNL     1      -4.682  -0.641  10.142  0.00  0.00    -0.004 C 
ATOM     23  C   UNL     1      -4.684  -2.150  10.404  0.00  0.00    -0.019 C 
ATOM     24  C   UNL     1      -3.392  -2.759   9.857  0.00  0.00    -0.078 C 
ATOM     25  H   UNL     1      -4.204  -2.894   7.941  0.00  0.00    -0.081 HD
ENDBRANCH  18  19
BRANCH  18  29
ATOM     26  C   UNL     1      -2.475  -7.386   8.530  0.00  0.00    +0.120 A 
ATOM     27  C   UNL     1      -1.241  -6.760   8.640  0.00  0.00    +0.046 A 
ATOM     28  C   UNL     1      -1.135  -5.402   8.413  0.00  0.00    +0.005 A 
ATOM     29  C   UNL     1      -2.256  -4.665   8.078  0.00  0.00    -0.059 A 
ATOM     30  C   UNL     1      -3.487  -5.286   7.973  0.00  0.00    +0.005 A 
ATOM     31  C   UNL     1      -3.598  -6.645   8.194  0.00  0.00    +0.046 A 
BRANCH  26  33
ATOM     32  C   UNL     1      -3.883  -9.299   8.622  0.00  0.00    +0.277 C 
ATOM     33  O   UNL     1      -2.582  -8.722   8.752  0.00  0.00    -0.495 OA
ENDBRANCH  26  33
ENDBRANCH  18  29
ENDBRANCH   1  18
TORSDOF 7
