REMARK  Name = ZINC12904977
REMARK  4 active torsions:
REMARK  status: ('A' for Active; 'I' for Inactive)
REMARK    1  A    between atoms: C_1  and  C_2
REMARK    2  A    between atoms: C_2  and  C_3
REMARK    3  A    between atoms: N_11  and  C_15
REMARK    4  A    between atoms: C_15  and  C_16
REMARK                            x       y       z     vdW  Elec       q    Type
REMARK                         _______ _______ _______ _____ _____    ______ ____
ROOT
ATOM      1  C   UNL     1      -3.209  -4.779  -6.159  0.00  0.00    -0.011 C 
ATOM      2  C   UNL     1      -2.071  -3.790  -5.897  0.00  0.00    +0.006 C 
ATOM      3  C   UNL     1      -2.285  -3.115  -4.540  0.00  0.00    +0.035 C 
ATOM      4  C   UNL     1      -2.321  -4.176  -3.444  0.00  0.00    +0.113 C 
ATOM      5  C   UNL     1      -3.438  -5.181  -3.703  0.00  0.00    +0.035 C 
ATOM      6  C   UNL     1      -3.220  -5.848  -5.064  0.00  0.00    +0.006 C 
ATOM      7  C   UNL     1      -2.499  -3.534  -2.087  0.00  0.00    +0.247 C 
ATOM      8  O   UNL     1      -3.437  -2.865  -1.709  0.00  0.00    -0.273 OA
ATOM      9  N   UNL     1      -1.394  -3.860  -1.387  0.00  0.00    -0.215 N 
ATOM     10  C   UNL     1      -0.559  -4.618  -2.108  0.00  0.00    +0.310 C 
ATOM     11  O   UNL     1       0.502  -5.041  -1.691  0.00  0.00    -0.252 OA
ATOM     12  N   UNL     1      -1.025  -4.860  -3.348  0.00  0.00    -0.285 N 
ATOM     13  H   UNL     1      -0.592  -5.383  -4.040  0.00  0.00    +0.151 HD
ENDROOT
BRANCH   1  15
ATOM     14  C   UNL     1      -4.202  -6.340  -7.837  0.00  0.00    +0.004 C 
ATOM     15  C   UNL     1      -3.002  -5.445  -7.520  0.00  0.00    -0.000 C 
ENDBRANCH   1  15
BRANCH   9  16
ATOM     16  C   UNL     1      -1.141  -3.442  -0.005  0.00  0.00    +0.214 C 
BRANCH  16  17
ATOM     17  C   UNL     1      -0.402  -2.129  -0.005  0.00  0.00    +0.215 A 
ATOM     18  N   UNL     1      -0.967  -0.959   0.006  0.00  0.00    -0.212 NA
ATOM     19  C   UNL     1       0.002  -0.004   0.002  0.00  0.00    +0.110 A 
ATOM     20  C   UNL     1      -0.017   1.392   0.010  0.00  0.00    +0.031 A 
ATOM     21  C   UNL     1       1.169   2.091   0.002  0.00  0.00    +0.002 A 
ATOM     22  C   UNL     1       2.382   1.417  -0.013  0.00  0.00    +0.004 A 
ATOM     23  C   UNL     1       2.416   0.038  -0.021  0.00  0.00    +0.048 A 
ATOM     24  C   UNL     1       1.230  -0.682  -0.013  0.00  0.00    +0.155 A 
ATOM     25  O   UNL     1       0.934  -2.000  -0.018  0.00  0.00    -0.438 OA
ENDBRANCH  16  17
ENDBRANCH   9  16
TORSDOF 3
