REMARK  Name = ZINC04934946
REMARK  6 active torsions:
REMARK  status: ('A' for Active; 'I' for Inactive)
REMARK    1  A    between atoms: C_1  and  O_2
REMARK    2  A    between atoms: O_2  and  C_3
REMARK    3  A    between atoms: C_3  and  C_5
REMARK    4  A    between atoms: C_6  and  C_20
REMARK    5  A    between atoms: C_11  and  C_13
REMARK    6  A    between atoms: C_20  and  N_21
REMARK                            x       y       z     vdW  Elec       q    Type
REMARK                         _______ _______ _______ _____ _____    ______ ____
ROOT
ATOM      1  C   UNL     1      -0.818   1.484   1.165  0.00  0.00    +0.080 C 
ATOM      2  C   UNL     1      -0.329   2.412   2.015  0.00  0.00    +0.044 C 
ATOM      3  N   UNL     1       0.942   2.894   1.878  0.00  0.00    -0.271 N 
ATOM      4  C   UNL     1       1.786   2.498   0.917  0.00  0.00    +0.304 C 
ATOM      5  O   UNL     1       2.899   2.985   0.876  0.00  0.00    -0.252 OA
ATOM      6  N   UNL     1       1.442   1.577  -0.005  0.00  0.00    -0.288 N 
ATOM      7  C   UNL     1       0.091   0.995   0.055  0.00  0.00    +0.145 C 
ATOM      8  H   UNL     1       1.250   3.560   2.512  0.00  0.00    +0.156 HD
ATOM      9  H   UNL     1       2.070   1.305  -0.693  0.00  0.00    +0.151 HD
ENDROOT
BRANCH   7  10
ATOM     10  C   UNL     1      -0.592   1.270  -1.259  0.00  0.00    -0.004 A 
ATOM     11  C   UNL     1      -0.283   2.412  -1.974  0.00  0.00    +0.007 A 
ATOM     12  C   UNL     1      -0.910   2.664  -3.180  0.00  0.00    +0.000 A 
ATOM     13  C   UNL     1      -1.846   1.774  -3.672  0.00  0.00    +0.001 A 
ATOM     14  C   UNL     1      -2.156   0.631  -2.959  0.00  0.00    +0.020 A 
ATOM     15  C   UNL     1      -1.525   0.376  -1.754  0.00  0.00    +0.046 A 
ATOM     16 CL   UNL     1      -1.908  -1.063  -0.861  0.00  0.00    -0.083 Cl
ENDBRANCH   7  10
BRANCH   1  17
ATOM     17  C   UNL     1      -2.134   0.985   1.305  0.00  0.00    +0.339 C 
ATOM     18  O   UNL     1      -2.323  -0.087   1.848  0.00  0.00    -0.245 OA
BRANCH  17  20
ATOM     19  C   UNL     1      -4.469   1.088   0.918  0.00  0.00    +0.280 C 
ATOM     20  O   UNL     1      -3.179   1.698   0.837  0.00  0.00    -0.465 OA
ENDBRANCH  17  20
ENDBRANCH   1  17
BRANCH   2  21
ATOM     21  C   UNL     1      -1.199   2.925   3.133  0.00  0.00    +0.174 C 
BRANCH  21  22
ATOM     22  N   UNL     1      -0.869   2.219   4.373  0.00  0.00    -0.324 N 
ATOM     23  C   UNL     1      -1.500   1.121   4.869  0.00  0.00    +0.200 A 
ATOM     24  N   UNL     1      -0.947   0.754   5.988  0.00  0.00    -0.236 NA
ATOM     25  C   UNL     1       0.077   1.593   6.287  0.00  0.00    +0.089 A 
ATOM     26  C   UNL     1       0.146   2.542   5.253  0.00  0.00    +0.069 A 
ATOM     27  C   UNL     1       1.115   3.535   5.288  0.00  0.00    +0.028 A 
ATOM     28  C   UNL     1       2.006   3.581   6.340  0.00  0.00    +0.002 A 
ATOM     29  C   UNL     1       1.940   2.643   7.360  0.00  0.00    +0.002 A 
ATOM     30  C   UNL     1       0.989   1.662   7.344  0.00  0.00    +0.030 A 
ENDBRANCH  21  22
ENDBRANCH   2  21
TORSDOF 5
