REMARK  Name = ZINC59038095
REMARK  16 active torsions:
REMARK  status: ('A' for Active; 'I' for Inactive)
REMARK    1  A    between atoms: C_1  and  C_2
REMARK    2  A    between atoms: C_2  and  C_3
REMARK    3  A    between atoms: C_3  and  C_4
REMARK    4  A    between atoms: C_4  and  N_5
REMARK    5  A    between atoms: N_5  and  C_6
REMARK    6  A    between atoms: C_7  and  N_18
REMARK    7  A    between atoms: N_8  and  C_15
REMARK    8  A    between atoms: C_15  and  C_16
REMARK    9  A    between atoms: C_16  and  C_17
REMARK   10  A    between atoms: C_19  and  C_21
REMARK   11  A    between atoms: C_21  and  N_22
REMARK   12  A    between atoms: N_22  and  C_23
REMARK   13  A    between atoms: N_22  and  C_31
REMARK   14  A    between atoms: C_23  and  C_24
REMARK   15  A    between atoms: C_31  and  C_32
REMARK   16  A    between atoms: C_31  and  C_33
REMARK                            x       y       z     vdW  Elec       q    Type
REMARK                         _______ _______ _______ _____ _____    ______ ____
ROOT
ATOM      1  N   UNL     1       1.394  -2.315  -3.676  0.00  0.00    -0.266 N 
ATOM      2  C   UNL     1       0.516  -2.837  -4.558  0.00  0.00    +0.203 C 
ATOM      3  O   UNL     1       0.871  -3.090  -5.690  0.00  0.00    -0.277 OA
ENDROOT
BRANCH   1   4
ATOM      4  C   UNL     1       2.695  -1.967  -4.097  0.00  0.00    +0.140 A 
ATOM      5  C   UNL     1       3.794  -2.646  -3.613  0.00  0.00    +0.127 A 
ATOM      6  N   UNL     1       5.050  -2.284  -4.043  0.00  0.00    -0.280 N 
ATOM      7  C   UNL     1       5.204  -1.279  -4.924  0.00  0.00    +0.331 A 
ATOM      8  O   UNL     1       6.322  -0.974  -5.292  0.00  0.00    -0.246 OA
ATOM      9  N   UNL     1       4.144  -0.607  -5.407  0.00  0.00    -0.273 N 
ATOM     10  H   UNL     1       4.282   0.113  -6.042  0.00  0.00    +0.173 HD
ATOM     11  C   UNL     1       2.892  -0.926  -5.023  0.00  0.00    +0.277 A 
ATOM     12  O   UNL     1       1.938  -0.313  -5.471  0.00  0.00    -0.266 OA
BRANCH   5  13
ATOM     13  N   UNL     1       3.637  -3.671  -2.712  0.00  0.00    -0.343 N 
ATOM     14  H   UNL     1       2.757  -3.875  -2.358  0.00  0.00    +0.144 HD
ATOM     15  H   UNL     1       4.406  -4.191  -2.430  0.00  0.00    +0.144 HD
ENDBRANCH   5  13
BRANCH   6  16
ATOM     16  C   UNL     1       6.226  -2.995  -3.537  0.00  0.00    +0.128 C 
BRANCH  16  17
ATOM     17  C   UNL     1       6.534  -4.184  -4.450  0.00  0.00    +0.018 C 
ATOM     18  C   UNL     1       7.763  -4.927  -3.922  0.00  0.00    +0.005 C 
ENDBRANCH  16  17
ENDBRANCH   6  16
ENDBRANCH   1   4
BRANCH   1  19
ATOM     19  C   UNL     1       0.996  -2.110  -2.281  0.00  0.00    +0.114 C 
BRANCH  19  20
ATOM     20  C   UNL     1       0.499  -0.675  -2.098  0.00  0.00    +0.019 C 
BRANCH  20  22
ATOM     21  C   UNL     1      -0.414   0.975  -0.459  0.00  0.00    +0.004 C 
ATOM     22  C   UNL     1       0.084  -0.460  -0.641  0.00  0.00    -0.002 C 
ENDBRANCH  20  22
ENDBRANCH  19  20
ENDBRANCH   1  19
BRANCH   2  23
ATOM     23  C   UNL     1      -0.906  -3.106  -4.136  0.00  0.00    +0.020 C 
BRANCH  23  24
ATOM     24  N   UNL     1      -1.603  -3.835  -5.203  0.00  0.00    +0.390 N 
ATOM     25  H   UNL     1      -1.309  -3.480  -6.101  0.00  0.00    -0.080 HD
BRANCH  24  26
ATOM     26  C   UNL     1      -1.280  -5.265  -5.112  0.00  0.00    -0.074 C 
ATOM     27  C   UNL     1       0.232  -5.456  -5.258  0.00  0.00    -0.013 C 
ATOM     28  C   UNL     1      -1.733  -5.805  -3.755  0.00  0.00    -0.013 C 
ENDBRANCH  24  26
BRANCH  24  29
ATOM     29  C   UNL     1      -3.053  -3.651  -5.055  0.00  0.00    -0.042 C 
BRANCH  29  30
ATOM     30  C   UNL     1      -3.761  -4.270  -6.233  0.00  0.00    -0.063 A 
ATOM     31  C   UNL     1      -3.903  -3.556  -7.408  0.00  0.00    +0.002 A 
ATOM     32  C   UNL     1      -4.552  -4.123  -8.488  0.00  0.00    +0.002 A 
ATOM     33  C   UNL     1      -5.060  -5.405  -8.394  0.00  0.00    +0.020 A 
ATOM     34  C   UNL     1      -4.919  -6.121  -7.219  0.00  0.00    +0.041 A 
ATOM     35  C   UNL     1      -4.264  -5.554  -6.140  0.00  0.00    +0.021 A 
ATOM     36 CL   UNL     1      -5.557  -7.731  -7.100  0.00  0.00    -0.084 Cl
ENDBRANCH  29  30
ENDBRANCH  24  29
ENDBRANCH  23  24
ENDBRANCH   2  23
TORSDOF 12
