REMARK  Name = ZINC03535555
REMARK  7 active torsions:
REMARK  status: ('A' for Active; 'I' for Inactive)
REMARK    1  A    between atoms: C_1  and  C_2
REMARK    2  A    between atoms: C_2  and  C_4
REMARK    3  A    between atoms: C_2  and  S_10
REMARK    4  A    between atoms: S_10  and  C_11
REMARK    5  A    between atoms: N_21  and  C_22
REMARK    6  A    between atoms: C_22  and  C_23
REMARK    7  A    between atoms: C_23  and  C_24
REMARK                            x       y       z     vdW  Elec       q    Type
REMARK                         _______ _______ _______ _____ _____    ______ ____
ROOT
ATOM      1  C   UNL     1      -5.141   0.755   0.658  0.00  0.00    +0.173 A 
ATOM      2  N   UNL     1      -4.899  -0.480   0.293  0.00  0.00    -0.223 NA
ATOM      3  C   UNL     1      -5.864  -1.421   0.302  0.00  0.00    +0.079 A 
ATOM      4  C   UNL     1      -5.606  -2.739  -0.087  0.00  0.00    +0.028 A 
ATOM      5  C   UNL     1      -6.614  -3.661  -0.063  0.00  0.00    +0.002 A 
ATOM      6  C   UNL     1      -7.895  -3.309   0.343  0.00  0.00    +0.001 A 
ATOM      7  C   UNL     1      -8.178  -2.028   0.730  0.00  0.00    +0.015 A 
ATOM      8  C   UNL     1      -7.169  -1.067   0.715  0.00  0.00    +0.065 A 
ATOM      9  C   UNL     1      -7.415   0.324   1.119  0.00  0.00    +0.262 A 
ATOM     10  O   UNL     1      -8.517   0.690   1.484  0.00  0.00    -0.267 OA
ATOM     11  N   UNL     1      -6.369   1.182   1.075  0.00  0.00    -0.287 N 
ENDROOT
BRANCH   1  12
ATOM     12  S   UNL     1      -3.818   1.918   0.614  0.00  0.00    -0.075 S 
BRANCH  12  14
ATOM     13  C   UNL     1      -2.799   0.384  -1.403  0.00  0.00    +0.029 C 
ATOM     14  C   UNL     1      -2.482   0.853   0.018  0.00  0.00    +0.137 C 
BRANCH  14  15
ATOM     15  C   UNL     1      -1.187   1.624   0.017  0.00  0.00    +0.233 C 
ATOM     16  O   UNL     1      -1.204   2.836   0.023  0.00  0.00    -0.274 OA
ATOM     17  N   UNL     1      -0.011   0.966   0.007  0.00  0.00    -0.239 N 
ATOM     18  C   UNL     1       1.147   1.655   0.000  0.00  0.00    +0.303 C 
ATOM     19  O   UNL     1       1.130   2.871   0.007  0.00  0.00    -0.253 OA
ATOM     20  N   UNL     1       2.323   0.998  -0.015  0.00  0.00    -0.313 N 
ATOM     21  H   UNL     1       0.002  -0.004   0.002  0.00  0.00    +0.159 HD
ATOM     22  H   UNL     1       2.336   0.028  -0.020  0.00  0.00    +0.146 HD
ATOM     23  H   UNL     1       3.156   1.494  -0.020  0.00  0.00    +0.146 HD
ENDBRANCH  14  15
ENDBRANCH  12  14
ENDBRANCH   1  12
BRANCH  11  24
ATOM     24  C   UNL     1      -6.558   2.579   1.473  0.00  0.00    +0.131 C 
BRANCH  24  25
ATOM     25  C   UNL     1      -6.967   3.406   0.252  0.00  0.00    +0.052 C 
BRANCH  25  26
ATOM     26  C   UNL     1      -7.161   4.843   0.660  0.00  0.00    -0.072 C 
ATOM     27  C   UNL     1      -6.167   5.657   0.507  0.00  0.00    -0.028 C 
ATOM     28  C   UNL     1      -6.206   7.112   0.876  0.00  0.00    +0.027 C 
ATOM     29  C   UNL     1      -7.655   7.574   1.042  0.00  0.00    +0.004 C 
ATOM     30  C   UNL     1      -8.380   6.579   1.955  0.00  0.00    +0.005 C 
ATOM     31  C   UNL     1      -8.497   5.243   1.214  0.00  0.00    +0.030 C 
ENDBRANCH  25  26
ENDBRANCH  24  25
ENDBRANCH  11  24
TORSDOF 6
