REMARK  Name = ZINC12589154
REMARK  7 active torsions:
REMARK  status: ('A' for Active; 'I' for Inactive)
REMARK    1  A    between atoms: C_4  and  C_7
REMARK    2  A    between atoms: C_7  and  C_8
REMARK    3  A    between atoms: C_8  and  N_9
REMARK    4  A    between atoms: C_10  and  C_12
REMARK    5  A    between atoms: C_12  and  C_13
REMARK    6  A    between atoms: C_20  and  C_21
REMARK    7  A    between atoms: C_20  and  N_55
REMARK                            x       y       z     vdW  Elec       q    Type
REMARK                         _______ _______ _______ _____ _____    ______ ____
ROOT
ATOM      1  C   UNL     1      -0.681   1.938   1.172  0.00  0.00    +0.028 C 
ATOM      2  C   UNL     1      -0.231   3.371   1.140  0.00  0.00    +0.200 C 
ATOM      3  O   UNL     1      -0.807   4.177   1.839  0.00  0.00    -0.278 OA
ATOM      4  N   UNL     1       0.778   3.795   0.371  0.00  0.00    -0.318 N 
ATOM      5  C   UNL     1       1.512   2.914  -0.532  0.00  0.00    +0.085 C 
ATOM      6  C   UNL     1       1.282   1.453  -0.142  0.00  0.00    -0.059 C 
ATOM      7  H   UNL     1       1.034   4.729   0.416  0.00  0.00    +0.149 HD
ATOM      8  N   UNL     1      -0.173   1.235  -0.021  0.00  0.00    +0.389 N 
ATOM      9  H   UNL     1      -0.639   1.611  -0.855  0.00  0.00    -0.081 HD
ENDROOT
BRANCH   1  10
ATOM     10  C   UNL     1      -2.210   1.885   1.167  0.00  0.00    +0.089 C 
BRANCH  10  12
ATOM     11  N   UNL     1      -4.048   2.440  -0.392  0.00  0.00    -0.315 N 
ATOM     12  C   UNL     1      -2.728   2.473  -0.120  0.00  0.00    +0.212 C 
ATOM     13  O   UNL     1      -1.958   2.975  -0.911  0.00  0.00    -0.276 OA
ATOM     14  H   UNL     1      -4.664   2.038   0.241  0.00  0.00    +0.149 HD
BRANCH  11  15
ATOM     15  C   UNL     1      -4.552   3.011  -1.643  0.00  0.00    +0.110 C 
BRANCH  15  16
ATOM     16  C   UNL     1      -6.072   2.845  -1.704  0.00  0.00    +0.075 C 
BRANCH  16  20
ATOM     17  C   UNL     1      -7.536   4.428  -5.286  0.00  0.00    +0.130 A 
ATOM     18  C   UNL     1      -6.770   5.201  -4.432  0.00  0.00    +0.130 A 
ATOM     19  N   UNL     1      -6.319   4.687  -3.301  0.00  0.00    -0.257 NA
ATOM     20  C   UNL     1      -6.591   3.432  -2.991  0.00  0.00    +0.061 A 
ATOM     21  C   UNL     1      -7.357   2.659  -3.845  0.00  0.00    +0.134 A 
ATOM     22  N   UNL     1      -7.812   3.174  -4.974  0.00  0.00    -0.260 NA
ENDBRANCH  16  20
ENDBRANCH  15  16
ENDBRANCH  11  15
ENDBRANCH  10  12
ENDBRANCH   1  10
BRANCH   8  23
ATOM     23  C   UNL     1      -0.464  -0.213   0.082  0.00  0.00    -0.074 C 
BRANCH  23  24
ATOM     24  C   UNL     1      -0.108  -0.887  -1.245  0.00  0.00    -0.028 C 
ATOM     25  C   UNL     1      -0.984  -0.311  -2.360  0.00  0.00    +0.002 C 
ATOM     26  C   UNL     1      -0.628  -0.985  -3.687  0.00  0.00    +0.000 C 
ATOM     27  C   UNL     1      -0.871  -2.491  -3.575  0.00  0.00    +0.000 C 
ATOM     28  C   UNL     1       0.005  -3.067  -2.460  0.00  0.00    +0.000 C 
ATOM     29  C   UNL     1      -0.351  -2.394  -1.133  0.00  0.00    +0.002 C 
ENDBRANCH  23  24
ENDBRANCH   8  23
TORSDOF 7
