REMARK  Name = ZINC62915498
REMARK  7 active torsions:
REMARK  status: ('A' for Active; 'I' for Inactive)
REMARK    1  A    between atoms: C_1  and  C_2
REMARK    2  A    between atoms: C_2  and  C_3
REMARK    3  A    between atoms: C_2  and  C_4
REMARK    4  A    between atoms: C_4  and  C_6
REMARK    5  A    between atoms: C_4  and  N_17
REMARK    6  A    between atoms: C_11  and  C_13
REMARK    7  A    between atoms: C_11  and  C_14
REMARK                            x       y       z     vdW  Elec       q    Type
REMARK                         _______ _______ _______ _____ _____    ______ ____
ROOT
ATOM      1  C   UNL     1      -2.162  -0.034  -1.208  0.00  0.00    +0.201 C 
ATOM      2  O   UNL     1      -2.301  -0.759  -2.170  0.00  0.00    -0.277 OA
ATOM      3  N   UNL     1      -2.660   1.218  -1.230  0.00  0.00    -0.302 N 
ATOM      4  C   UNL     1      -2.576   2.231  -0.153  0.00  0.00    +0.109 C 
ATOM      5  C   UNL     1      -3.968   2.910  -0.195  0.00  0.00    +0.038 C 
ATOM      6  C   UNL     1      -4.283   2.956  -1.708  0.00  0.00    +0.086 C 
ATOM      7  C   UNL     1      -3.395   1.862  -2.335  0.00  0.00    +0.125 C 
ATOM      8  C   UNL     1      -3.919   4.325  -2.285  0.00  0.00    +0.024 C 
ENDROOT
BRANCH   6   9
ATOM      9  C   UNL     1      -5.739   2.655  -1.949  0.00  0.00    +0.363 C 
ATOM     10  O   UNL     1      -6.598   3.383  -1.481  0.00  0.00    -0.246 OA
ATOM     11  O   UNL     1      -6.060   1.683  -2.611  0.00  0.00    -0.246 OA
ENDBRANCH   6   9
BRANCH   1  12
ATOM     12  C   UNL     1      -1.433  -0.534   0.013  0.00  0.00    +0.016 C 
BRANCH  12  13
ATOM     13  N   UNL     1      -1.413  -2.002   0.005  0.00  0.00    +0.386 N 
ATOM     14  H   UNL     1      -0.925  -2.337   0.822  0.00  0.00    -0.089 HD
ATOM     15  H   UNL     1      -2.360  -2.352   0.012  0.00  0.00    -0.089 HD
ATOM     16  H   UNL     1      -0.941  -2.328  -0.825  0.00  0.00    -0.089 HD
ENDBRANCH  12  13
BRANCH  12  18
ATOM     17  C   UNL     1      -0.019   1.526   0.010  0.00  0.00    +0.006 C 
ATOM     18  C   UNL     1       0.002  -0.004   0.002  0.00  0.00    -0.023 C 
ATOM     19  C   UNL     1       0.742  -0.511   1.242  0.00  0.00    +0.006 C 
ENDBRANCH  12  18
ENDBRANCH   1  12
TORSDOF 4
