REMARK  Name = ZINC06238764
REMARK  7 active torsions:
REMARK  status: ('A' for Active; 'I' for Inactive)
REMARK    1  A    between atoms: C_1  and  C_2
REMARK    2  A    between atoms: C_2  and  C_3
REMARK    3  A    between atoms: C_2  and  C_4
REMARK    4  A    between atoms: N_9  and  C_12
REMARK    5  A    between atoms: C_15  and  N_18
REMARK    6  A    between atoms: C_19  and  C_21
REMARK    7  A    between atoms: C_24  and  N_27
REMARK                            x       y       z     vdW  Elec       q    Type
REMARK                         _______ _______ _______ _____ _____    ______ ____
ROOT
ATOM      1  C   UNL     1      -0.799   1.576  -1.130  0.00  0.00    +0.030 A 
ATOM      2  C   UNL     1      -1.231   0.653  -2.074  0.00  0.00    +0.025 A 
ATOM      3  C   UNL     1      -1.970   1.072  -3.161  0.00  0.00    +0.025 A 
ATOM      4  C   UNL     1      -2.273   2.418  -3.318  0.00  0.00    +0.034 A 
ATOM      5  C   UNL     1      -1.836   3.342  -2.377  0.00  0.00    +0.025 A 
ATOM      6  C   UNL     1      -1.101   2.922  -1.287  0.00  0.00    +0.025 A 
ENDROOT
BRANCH   1  12
ATOM      7  C   UNL     1       3.206  -0.556   1.725  0.00  0.00    +0.218 C 
ATOM      8  O   UNL     1       3.254  -1.757   1.884  0.00  0.00    -0.275 OA
ATOM      9  N   UNL     1       2.027   0.042   1.460  0.00  0.00    -0.298 N 
ATOM     10  C   UNL     1       0.807  -0.753   1.254  0.00  0.00    +0.126 C 
ATOM     11  C   UNL     1       0.149  -0.304  -0.056  0.00  0.00    +0.124 C 
ATOM     12  N   UNL     1      -0.054   1.150  -0.025  0.00  0.00    -0.327 N 
ATOM     13  C   UNL     1       1.226   1.866   0.055  0.00  0.00    +0.124 C 
ATOM     14  C   UNL     1       1.928   1.507   1.369  0.00  0.00    +0.126 C 
BRANCH   7  16
ATOM     15  C   UNL     1       5.493  -0.472   2.680  0.00  0.00    +0.017 C 
ATOM     16  C   UNL     1       4.464   0.268   1.823  0.00  0.00    +0.069 C 
ATOM     17  C   UNL     1       5.035   0.495   0.422  0.00  0.00    +0.017 C 
ENDBRANCH   7  16
ENDBRANCH   1  12
BRANCH   4  18
ATOM     18  N   UNL     1      -3.018   2.844  -4.425  0.00  0.00    -0.282 N 
ATOM     19  C   UNL     1      -3.971   2.045  -4.944  0.00  0.00    +0.248 C 
ATOM     20  O   UNL     1      -4.249   0.996  -4.396  0.00  0.00    -0.270 OA
ATOM     21  H   UNL     1      -2.848   3.715  -4.818  0.00  0.00    +0.155 HD
BRANCH  19  22
ATOM     22  C   UNL     1      -4.679   2.445  -6.178  0.00  0.00    +0.037 A 
ATOM     23  C   UNL     1      -4.367   3.651  -6.806  0.00  0.00    +0.015 A 
ATOM     24  C   UNL     1      -5.028   4.016  -7.961  0.00  0.00    +0.033 A 
ATOM     25  C   UNL     1      -6.005   3.193  -8.491  0.00  0.00    +0.126 A 
ATOM     26  C   UNL     1      -6.324   1.998  -7.871  0.00  0.00    +0.033 A 
ATOM     27  C   UNL     1      -5.667   1.619  -6.718  0.00  0.00    +0.015 A 
BRANCH  25  28
ATOM     28  N   UNL     1      -6.714   3.593  -9.727  0.00  0.00    +0.056 N 
ATOM     29  O   UNL     1      -7.575   2.870 -10.197  0.00  0.00    -0.126 OA
ATOM     30  O   UNL     1      -6.436   4.644 -10.276  0.00  0.00    -0.126 OA
ENDBRANCH  25  28
ENDBRANCH  19  22
ENDBRANCH   4  18
TORSDOF 5
