REMARK  Name = ZINC32281956
REMARK  9 active torsions:
REMARK  status: ('A' for Active; 'I' for Inactive)
REMARK    1  A    between atoms: C_1  and  C_2
REMARK    2  A    between atoms: C_5  and  C_9
REMARK    3  A    between atoms: C_7  and  C_8
REMARK    4  A    between atoms: C_9  and  C_11
REMARK    5  A    between atoms: C_11  and  C_12
REMARK    6  A    between atoms: C_12  and  C_13
REMARK    7  A    between atoms: N_15  and  C_16
REMARK    8  A    between atoms: C_16  and  C_18
REMARK    9  A    between atoms: C_16  and  C_19
REMARK                            x       y       z     vdW  Elec       q    Type
REMARK                         _______ _______ _______ _____ _____    ______ ____
ROOT
ATOM      1  C   UNL     1      -3.492  -0.721  -1.434  0.00  0.00    +0.214 C 
ATOM      2  O   UNL     1      -4.584  -0.252  -1.195  0.00  0.00    -0.276 OA
ATOM      3  N   UNL     1      -2.390  -0.181  -0.876  0.00  0.00    -0.309 N 
ATOM      4  H   UNL     1      -1.399  -0.606  -1.093  0.00  0.00    +0.149 HD
ENDROOT
BRANCH   3   5
ATOM      5  C   UNL     1      -2.512   0.972   0.019  0.00  0.00    +0.100 C 
ATOM      6  C   UNL     1      -2.814   0.487   1.438  0.00  0.00    +0.033 C 
BRANCH   5   7
ATOM      7  C   UNL     1      -1.220   1.748   0.017  0.00  0.00    -0.024 A 
ATOM      8  C   UNL     1      -0.013   1.076   0.008  0.00  0.00    +0.009 A 
ATOM      9  C   UNL     1       1.177   1.782   0.000  0.00  0.00    +0.050 A 
ATOM     10  C   UNL     1       1.154   3.166   0.009  0.00  0.00    +0.162 A 
ATOM     11  C   UNL     1      -0.058   3.841   0.023  0.00  0.00    +0.162 A 
ATOM     12  C   UNL     1      -1.247   3.131   0.031  0.00  0.00    +0.055 A 
ATOM     13  O   UNL     1      -0.070   5.205   0.031  0.00  0.00    -0.488 OA
ATOM     14  C   UNL     1       0.390   5.841  -1.163  0.00  0.00    +0.232 C 
ATOM     15  C   UNL     1       1.905   5.965  -1.160  0.00  0.00    +0.082 C 
ATOM     16  C   UNL     1       2.597   4.612  -1.190  0.00  0.00    +0.232 C 
ATOM     17  O   UNL     1       2.321   3.874   0.002  0.00  0.00    -0.488 OA
ENDBRANCH   5   7
ENDBRANCH   3   5
BRANCH   1  18
ATOM     18  C   UNL     1      -3.366  -1.907  -2.355  0.00  0.00    +0.103 C 
BRANCH  18  19
ATOM     19  C   UNL     1      -4.755  -2.321  -2.847  0.00  0.00    +0.089 C 
BRANCH  19  20
ATOM     20  C   UNL     1      -4.629  -3.507  -3.767  0.00  0.00    +0.164 C 
ATOM     21  O   UNL     1      -3.537  -3.976  -4.006  0.00  0.00    -0.292 OA
BRANCH  20  26
ATOM     22  C   UNL     1      -9.329  -5.811  -6.145  0.00  0.00    +0.044 C 
ATOM     23  C   UNL     1      -8.097  -5.207  -5.522  0.00  0.00    -0.047 A 
ATOM     24  C   UNL     1      -8.216  -4.117  -4.677  0.00  0.00    +0.004 A 
ATOM     25  C   UNL     1      -7.095  -3.562  -4.098  0.00  0.00    +0.011 A 
ATOM     26  C   UNL     1      -5.832  -4.096  -4.376  0.00  0.00    +0.018 A 
ATOM     27  C   UNL     1      -5.720  -5.197  -5.231  0.00  0.00    +0.015 A 
ATOM     28  C   UNL     1      -6.852  -5.745  -5.797  0.00  0.00    -0.047 A 
ATOM     29  C   UNL     1      -6.733  -6.931  -6.719  0.00  0.00    +0.044 C 
ENDBRANCH  20  26
ENDBRANCH  19  20
ENDBRANCH  18  19
ENDBRANCH   1  18
TORSDOF 6
