REMARK  Name = ZINC12412495
REMARK  12 active torsions:
REMARK  status: ('A' for Active; 'I' for Inactive)
REMARK    1  A    between atoms: C_1  and  C_2
REMARK    2  A    between atoms: C_2  and  O_3
REMARK    3  A    between atoms: O_3  and  C_4
REMARK    4  A    between atoms: C_4  and  C_6
REMARK    5  A    between atoms: C_7  and  C_22
REMARK    6  A    between atoms: C_12  and  C_14
REMARK    7  A    between atoms: C_16  and  C_21
REMARK    8  A    between atoms: C_19  and  C_20
REMARK    9  A    between atoms: C_22  and  N_72
REMARK   10  A    between atoms: C_23  and  C_25
REMARK   11  A    between atoms: C_23  and  C_26
REMARK   12  A    between atoms: C_23  and  N_72
REMARK                            x       y       z     vdW  Elec       q    Type
REMARK                         _______ _______ _______ _____ _____    ______ ____
ROOT
ATOM      1  C   UNL     1      -2.005  -0.488   1.214  0.00  0.00    +0.076 C 
ATOM      2  C   UNL     1      -2.211  -1.563   2.005  0.00  0.00    +0.007 C 
ATOM      3  N   UNL     1      -1.848  -2.816   1.601  0.00  0.00    -0.274 N 
ATOM      4  C   UNL     1      -1.273  -3.078   0.420  0.00  0.00    +0.304 C 
ATOM      5  O   UNL     1      -0.985  -4.227   0.148  0.00  0.00    -0.252 OA
ATOM      6  N   UNL     1      -1.004  -2.108  -0.477  0.00  0.00    -0.288 N 
ATOM      7  C   UNL     1      -1.358  -0.720  -0.136  0.00  0.00    +0.144 C 
ATOM      8  H   UNL     1      -2.015  -3.558   2.203  0.00  0.00    +0.156 HD
ATOM      9  H   UNL     1      -0.587  -2.320  -1.327  0.00  0.00    +0.151 HD
ENDROOT
BRANCH   7  10
ATOM     10  C   UNL     1      -0.100   0.108  -0.196  0.00  0.00    -0.019 A 
ATOM     11  C   UNL     1       0.560   0.448   0.970  0.00  0.00    +0.009 A 
ATOM     12  C   UNL     1       1.714   1.207   0.915  0.00  0.00    -0.050 A 
ATOM     13  C   UNL     1       2.207   1.627  -0.306  0.00  0.00    +0.003 A 
ATOM     14  C   UNL     1       1.546   1.289  -1.472  0.00  0.00    +0.004 A 
ATOM     15  C   UNL     1       0.393   0.529  -1.417  0.00  0.00    -0.045 A 
ATOM     16  C   UNL     1      -0.324   0.154  -2.688  0.00  0.00    +0.044 C 
ATOM     17  C   UNL     1       2.434   1.578   2.186  0.00  0.00    +0.044 C 
ENDBRANCH   7  10
BRANCH   1  18
ATOM     18  C   UNL     1      -2.381   0.810   1.633  0.00  0.00    +0.339 C 
ATOM     19  O   UNL     1      -3.364   1.343   1.153  0.00  0.00    -0.245 OA
BRANCH  18  20
ATOM     20  O   UNL     1      -1.649   1.457   2.563  0.00  0.00    -0.462 OA
BRANCH  20  22
ATOM     21  C   UNL     1      -1.133   3.350   3.974  0.00  0.00    +0.048 C 
ATOM     22  C   UNL     1      -2.147   2.716   3.020  0.00  0.00    +0.229 C 
ENDBRANCH  20  22
ENDBRANCH  18  20
ENDBRANCH   1  18
BRANCH   2  23
ATOM     23  C   UNL     1      -2.853  -1.378   3.356  0.00  0.00    -0.030 C 
BRANCH  23  24
ATOM     24  N   UNL     1      -4.163  -2.056   3.367  0.00  0.00    +0.385 N 
ATOM     25  H   UNL     1      -4.028  -3.056   3.179  0.00  0.00    -0.085 HD
ATOM     26  H   UNL     1      -4.761  -1.649   2.638  0.00  0.00    -0.085 HD
BRANCH  24  27
ATOM     27  C   UNL     1      -4.815  -1.890   4.680  0.00  0.00    -0.068 C 
ATOM     28  C   UNL     1      -5.572  -0.561   4.710  0.00  0.00    -0.013 C 
BRANCH  27  29
ATOM     29  C   UNL     1      -5.797  -3.042   4.901  0.00  0.00    -0.041 C 
ATOM     30  C   UNL     1      -5.039  -4.371   4.871  0.00  0.00    +0.009 C 
ATOM     31  C   UNL     1      -6.021  -5.523   5.093  0.00  0.00    -0.010 C 
ATOM     32  C   UNL     1      -6.705  -5.356   6.452  0.00  0.00    +0.007 C 
ATOM     33  C   UNL     1      -7.462  -4.027   6.482  0.00  0.00    -0.010 C 
ATOM     34  C   UNL     1      -6.480  -2.875   6.260  0.00  0.00    +0.009 C 
ATOM     35  C   UNL     1      -8.519  -4.017   5.375  0.00  0.00    +0.007 C 
ATOM     36  C   UNL     1      -7.835  -4.184   4.016  0.00  0.00    -0.010 C 
ATOM     37  C   UNL     1      -7.078  -5.513   3.986  0.00  0.00    +0.007 C 
ATOM     38  C   UNL     1      -6.853  -3.032   3.795  0.00  0.00    +0.009 C 
ENDBRANCH  27  29
ENDBRANCH  24  27
ENDBRANCH  23  24
ENDBRANCH   2  23
TORSDOF 8
