REMARK  Name = ZINC12881810
REMARK  7 active torsions:
REMARK  status: ('A' for Active; 'I' for Inactive)
REMARK    1  A    between atoms: C_1  and  C_2
REMARK    2  A    between atoms: C_16  and  C_18
REMARK    3  A    between atoms: C_18  and  C_19
REMARK    4  A    between atoms: C_22  and  O_25
REMARK    5  A    between atoms: N_28  and  C_31
REMARK    6  A    between atoms: C_31  and  C_32
REMARK    7  A    between atoms: C_32  and  C_33
REMARK                            x       y       z     vdW  Elec       q    Type
REMARK                         _______ _______ _______ _____ _____    ______ ____
ROOT
ATOM      1  C   UNL     1       1.274  -2.168  -0.018  0.00  0.00    +0.047 C 
ATOM      2  C   UNL     1       1.229  -0.662  -0.011  0.00  0.00    -0.011 A 
ATOM      3  C   UNL     1       2.405   0.062  -0.019  0.00  0.00    +0.046 A 
ATOM      4  C   UNL     1       2.374   1.445  -0.013  0.00  0.00    +0.020 A 
ATOM      5  C   UNL     1       1.158   2.106   0.002  0.00  0.00    +0.006 A 
ATOM      6  C   UNL     1      -0.017   1.388   0.010  0.00  0.00    -0.027 A 
ATOM      7  C   UNL     1       0.002  -0.004   0.002  0.00  0.00    +0.040 A 
ATOM      8  N   UNL     1      -1.302  -0.505   0.009  0.00  0.00    -0.286 N 
ATOM      9  C   UNL     1      -2.223   0.478   0.022  0.00  0.00    +0.211 C 
ATOM     10  O   UNL     1      -3.428   0.340   0.028  0.00  0.00    -0.277 OA
ATOM     11  C   UNL     1      -1.468   1.778   0.032  0.00  0.00    +0.050 C 
ATOM     12  C   UNL     1      -1.805   2.619   1.269  0.00  0.00    +0.088 C 
ATOM     13  C   UNL     1      -2.861   3.644   0.770  0.00  0.00    +0.073 C 
ATOM     14  C   UNL     1      -3.072   3.302  -0.720  0.00  0.00    -0.053 C 
ATOM     15  C   UNL     1      -4.111   3.285   1.543  0.00  0.00    +0.224 C 
ATOM     16  O   UNL     1      -5.176   3.856   1.456  0.00  0.00    -0.275 OA
ATOM     17  N   UNL     1      -3.857   2.239   2.338  0.00  0.00    -0.241 N 
ATOM     18  C   UNL     1      -2.602   1.779   2.266  0.00  0.00    +0.225 C 
ATOM     19  O   UNL     1      -2.163   0.842   2.898  0.00  0.00    -0.275 OA
ATOM     20 CL   UNL     1       3.930  -0.768  -0.036  0.00  0.00    -0.083 Cl
ATOM     21  H   UNL     1      -1.519  -1.450   0.005  0.00  0.00    +0.155 HD
ATOM     22  N   UNL     1      -1.840   2.608  -1.101  0.00  0.00    +0.394 N 
ATOM     23  H   UNL     1      -2.003   2.024  -1.930  0.00  0.00    -0.083 HD
ATOM     24  H   UNL     1      -1.097   3.288  -1.303  0.00  0.00    -0.083 HD
ENDROOT
BRANCH  14  25
ATOM     25  C   UNL     1      -3.269   4.579  -1.540  0.00  0.00    +0.020 C 
BRANCH  25  26
ATOM     26  C   UNL     1      -3.520   4.217  -2.981  0.00  0.00    -0.049 A 
ATOM     27  C   UNL     1      -2.458   4.101  -3.858  0.00  0.00    +0.007 A 
ATOM     28  C   UNL     1      -2.685   3.764  -5.178  0.00  0.00    +0.045 A 
ATOM     29  C   UNL     1      -3.981   3.553  -5.627  0.00  0.00    +0.117 A 
ATOM     30  C   UNL     1      -5.045   3.676  -4.746  0.00  0.00    +0.045 A 
ATOM     31  C   UNL     1      -4.813   4.008  -3.425  0.00  0.00    +0.007 A 
BRANCH  29  32
ATOM     32  O   UNL     1      -4.207   3.227  -6.926  0.00  0.00    -0.507 OA
ATOM     33  H   UNL     1      -4.341   3.989  -7.506  0.00  0.00    +0.292 HD
ENDBRANCH  29  32
ENDBRANCH  25  26
ENDBRANCH  14  25
BRANCH  17  34
ATOM     34  C   UNL     1      -4.869   1.646   3.215  0.00  0.00    +0.121 C 
BRANCH  34  35
ATOM     35  C   UNL     1      -5.612   0.540   2.462  0.00  0.00    +0.054 C 
BRANCH  35  36
ATOM     36  C   UNL     1      -6.653  -0.070   3.364  0.00  0.00    -0.046 A 
ATOM     37  C   UNL     1      -6.330  -1.154   4.158  0.00  0.00    +0.004 A 
ATOM     38  C   UNL     1      -7.284  -1.710   4.989  0.00  0.00    +0.000 A 
ATOM     39  C   UNL     1      -8.565  -1.189   5.018  0.00  0.00    +0.000 A 
ATOM     40  C   UNL     1      -8.889  -0.109   4.219  0.00  0.00    +0.000 A 
ATOM     41  C   UNL     1      -7.933   0.451   3.392  0.00  0.00    +0.004 A 
ENDBRANCH  35  36
ENDBRANCH  34  35
ENDBRANCH  17  34
TORSDOF 6
