REMARK  Name = ZINC36354140
REMARK  4 active torsions:
REMARK  status: ('A' for Active; 'I' for Inactive)
REMARK    1  A    between atoms: C_1  and  O_2
REMARK    2  A    between atoms: O_2  and  C_3
REMARK    3  A    between atoms: C_5  and  C_10
REMARK    4  A    between atoms: C_8  and  O_9
REMARK                            x       y       z     vdW  Elec       q    Type
REMARK                         _______ _______ _______ _____ _____    ______ ____
ROOT
ATOM      1  C   UNL     1       2.403   0.379  -4.230  0.00  0.00    +0.068 C 
ATOM      2  C   UNL     1       1.737   0.047  -5.574  0.00  0.00    +0.109 C 
ATOM      3  C   UNL     1       2.271  -1.245  -6.124  0.00  0.00    +0.219 C 
ATOM      4  O   UNL     1       1.503  -1.989  -6.697  0.00  0.00    -0.275 OA
ATOM      5  N   UNL     1       3.559  -1.617  -6.013  0.00  0.00    -0.270 N 
ATOM      6  C   UNL     1       4.415  -0.864  -5.168  0.00  0.00    +0.138 A 
ATOM      7  C   UNL     1       3.855   0.069  -4.342  0.00  0.00    +0.041 A 
ATOM      8  S   UNL     1       5.261   0.742  -3.509  0.00  0.00    -0.055 S 
ATOM      9  C   UNL     1       6.434  -0.218  -4.247  0.00  0.00    +0.163 A 
ATOM     10  N   UNL     1       5.734  -0.976  -5.071  0.00  0.00    -0.210 NA
ATOM     11  N   UNL     1       7.805  -0.212  -4.038  0.00  0.00    -0.310 N 
ATOM     12  C   UNL     1       8.410   0.708  -3.066  0.00  0.00    +0.107 C 
ATOM     13  C   UNL     1       9.268  -0.102  -2.089  0.00  0.00    +0.019 C 
ATOM     14  C   UNL     1      10.279  -0.939  -2.876  0.00  0.00    +0.003 C 
ATOM     15  C   UNL     1       9.534  -1.916  -3.788  0.00  0.00    +0.019 C 
ATOM     16  C   UNL     1       8.678  -1.131  -4.781  0.00  0.00    +0.107 C 
ATOM     17  H   UNL     1       3.896  -2.385  -6.500  0.00  0.00    +0.156 HD
ENDROOT
BRANCH   1  20
ATOM     18  C   UNL     1       0.606  -0.608  -1.056  0.00  0.00    +0.162 A 
ATOM     19  C   UNL     1       1.173   0.159  -2.062  0.00  0.00    +0.053 A 
ATOM     20  C   UNL     1       1.787  -0.456  -3.137  0.00  0.00    -0.035 A 
ATOM     21  C   UNL     1       1.837  -1.836  -3.212  0.00  0.00    +0.008 A 
ATOM     22  C   UNL     1       1.273  -2.606  -2.212  0.00  0.00    +0.049 A 
ATOM     23  C   UNL     1       0.662  -1.996  -1.129  0.00  0.00    +0.158 A 
BRANCH  18  25
ATOM     24  C   UNL     1      -0.017   1.425   0.010  0.00  0.00    +0.277 C 
ATOM     25  O   UNL     1       0.002  -0.004   0.002  0.00  0.00    -0.491 OA
ENDBRANCH  18  25
BRANCH  23  26
ATOM     26  O   UNL     1       0.112  -2.753  -0.142  0.00  0.00    -0.503 OA
ATOM     27  H   UNL     1      -0.816  -2.979  -0.291  0.00  0.00    +0.292 HD
ENDBRANCH  23  26
ENDBRANCH   1  20
TORSDOF 3
