REMARK  Name = ZINC66178176
REMARK  11 active torsions:
REMARK  status: ('A' for Active; 'I' for Inactive)
REMARK    1  A    between atoms: C_1  and  C_2
REMARK    2  A    between atoms: C_2  and  C_3
REMARK    3  A    between atoms: C_3  and  C_5
REMARK    4  A    between atoms: C_3  and  N_6
REMARK    5  A    between atoms: N_6  and  C_7
REMARK    6  A    between atoms: N_6  and  C_8
REMARK    7  A    between atoms: C_8  and  C_9
REMARK    8  A    between atoms: C_9  and  N_10
REMARK    9  A    between atoms: N_13  and  C_14
REMARK   10  A    between atoms: C_14  and  C_16
REMARK   11  A    between atoms: C_14  and  C_17
REMARK                            x       y       z     vdW  Elec       q    Type
REMARK                         _______ _______ _______ _____ _____    ______ ____
ROOT
ATOM      1  N   UNL     1      -1.085   2.954  -4.259  0.00  0.00    -0.301 N 
ATOM      2  C   UNL     1      -1.798   3.446  -5.292  0.00  0.00    +0.300 C 
ATOM      3  O   UNL     1      -2.408   2.691  -6.024  0.00  0.00    -0.253 OA
ATOM      4  N   UNL     1      -1.835   4.775  -5.512  0.00  0.00    -0.293 N 
ATOM      5  H   UNL     1      -0.599   3.556  -3.675  0.00  0.00    +0.150 HD
ATOM      6  H   UNL     1      -1.349   5.377  -4.928  0.00  0.00    +0.151 HD
ENDROOT
BRANCH   4   7
ATOM      7  C   UNL     1      -2.610   5.310  -6.634  0.00  0.00    +0.102 C 
ATOM      8  C   UNL     1      -4.069   5.487  -6.208  0.00  0.00    +0.033 C 
BRANCH   7   9
ATOM      9  C   UNL     1      -2.042   6.643  -7.048  0.00  0.00    -0.024 A 
ATOM     10  C   UNL     1      -1.611   7.536  -6.084  0.00  0.00    +0.009 A 
ATOM     11  C   UNL     1      -1.087   8.761  -6.456  0.00  0.00    +0.050 A 
ATOM     12  C   UNL     1      -0.995   9.090  -7.798  0.00  0.00    +0.162 A 
ATOM     13  C   UNL     1      -1.428   8.193  -8.764  0.00  0.00    +0.162 A 
ATOM     14  C   UNL     1      -1.947   6.966  -8.389  0.00  0.00    +0.055 A 
ATOM     15  O   UNL     1      -1.332   8.527 -10.084  0.00  0.00    -0.488 OA
ATOM     16  C   UNL     1      -2.191   9.580 -10.527  0.00  0.00    +0.232 C 
ATOM     17  C   UNL     1      -1.564  10.938 -10.253  0.00  0.00    +0.082 C 
ATOM     18  C   UNL     1      -1.404  11.213  -8.766  0.00  0.00    +0.232 C 
ATOM     19  O   UNL     1      -0.479  10.295  -8.178  0.00  0.00    -0.488 OA
ENDBRANCH   7   9
ENDBRANCH   4   7
BRANCH   1  20
ATOM     20  C   UNL     1      -1.045   1.509  -4.019  0.00  0.00    +0.087 C 
BRANCH  20  21
ATOM     21  C   UNL     1      -0.173   1.219  -2.796  0.00  0.00    -0.060 C 
BRANCH  21  22
ATOM     22  N   UNL     1      -0.132  -0.230  -2.556  0.00  0.00    +0.381 N 
ATOM     23  C   UNL     1       0.528  -0.895  -3.687  0.00  0.00    -0.096 C 
ATOM     24  H   UNL     1      -1.073  -0.582  -2.461  0.00  0.00    -0.082 HD
BRANCH  22  25
ATOM     25  C   UNL     1       0.618  -0.501  -1.323  0.00  0.00    -0.072 C 
ATOM     26  C   UNL     1       2.081  -0.095  -1.516  0.00  0.00    -0.013 C 
BRANCH  25  28
ATOM     27  C   UNL     1      -0.913  -2.382  -0.725  0.00  0.00    +0.002 C 
ATOM     28  C   UNL     1       0.541  -1.994  -0.997  0.00  0.00    -0.019 C 
ENDBRANCH  25  28
ENDBRANCH  22  25
ENDBRANCH  21  22
ENDBRANCH  20  21
ENDBRANCH   1  20
TORSDOF 7
