REMARK  Name = ZINC56509386
REMARK  9 active torsions:
REMARK  status: ('A' for Active; 'I' for Inactive)
REMARK    1  A    between atoms: C_1  and  C_2
REMARK    2  A    between atoms: C_2  and  N_3
REMARK    3  A    between atoms: N_3  and  C_4
REMARK    4  A    between atoms: N_3  and  C_9
REMARK    5  A    between atoms: C_4  and  C_5
REMARK    6  A    between atoms: N_7  and  C_8
REMARK    7  A    between atoms: C_9  and  C_10
REMARK    8  A    between atoms: N_12  and  C_13
REMARK    9  A    between atoms: C_13  and  C_18
REMARK                            x       y       z     vdW  Elec       q    Type
REMARK                         _______ _______ _______ _____ _____    ______ ____
ROOT
ATOM      1  C   UNL     1      -0.105  -3.457  -0.641  0.00  0.00    +0.197 C 
ATOM      2  O   UNL     1      -0.487  -4.066   0.335  0.00  0.00    -0.278 OA
ATOM      3  N   UNL     1      -0.797  -3.530  -1.795  0.00  0.00    -0.307 N 
ATOM      4  H   UNL     1      -0.451  -3.107  -2.597  0.00  0.00    +0.149 HD
ENDROOT
BRANCH   3   5
ATOM      5  C   UNL     1      -2.074  -4.248  -1.839  0.00  0.00    +0.060 C 
ATOM      6  C   UNL     1      -2.616  -4.273  -3.283  0.00  0.00    +0.030 C 
ATOM      7  C   UNL     1      -2.140  -5.636  -3.845  0.00  0.00    +0.002 C 
ATOM      8  C   UNL     1      -2.293  -6.580  -2.626  0.00  0.00    +0.002 C 
ATOM      9  C   UNL     1      -1.868  -5.715  -1.422  0.00  0.00    +0.030 C 
BRANCH   5  10
ATOM     10  C   UNL     1      -3.070  -3.586  -0.924  0.00  0.00    -0.020 A 
ATOM     11  C   UNL     1      -4.185  -4.283  -0.497  0.00  0.00    +0.009 A 
ATOM     12  C   UNL     1      -5.102  -3.678   0.342  0.00  0.00    +0.050 A 
ATOM     13  C   UNL     1      -4.906  -2.369   0.758  0.00  0.00    +0.162 A 
ATOM     14  C   UNL     1      -3.784  -1.669   0.331  0.00  0.00    +0.162 A 
ATOM     15  C   UNL     1      -2.865  -2.284  -0.507  0.00  0.00    +0.055 A 
ATOM     16  O   UNL     1      -3.567  -0.387   0.734  0.00  0.00    -0.485 OA
ATOM     17  C   UNL     1      -4.691   0.315   1.275  0.00  0.00    +0.270 C 
ATOM     18  C   UNL     1      -5.399  -0.608   2.277  0.00  0.00    +0.270 C 
ATOM     19  O   UNL     1      -5.819  -1.786   1.581  0.00  0.00    -0.485 OA
ENDBRANCH   5  10
ENDBRANCH   3   5
BRANCH   1  20
ATOM     20  C   UNL     1       1.145  -2.618  -0.565  0.00  0.00    +0.019 C 
BRANCH  20  21
ATOM     21  N   UNL     1       1.710  -2.704   0.789  0.00  0.00    +0.391 N 
ATOM     22  H   UNL     1       1.007  -2.442   1.464  0.00  0.00    -0.080 HD
BRANCH  21  24
ATOM     23  C   UNL     1       2.590  -4.208   2.510  0.00  0.00    -0.017 C 
ATOM     24  C   UNL     1       2.149  -4.081   1.050  0.00  0.00    -0.081 C 
ENDBRANCH  21  24
BRANCH  21  25
ATOM     25  C   UNL     1       2.858  -1.795   0.899  0.00  0.00    +0.019 C 
BRANCH  25  26
ATOM     26  C   UNL     1       2.382  -0.369   0.792  0.00  0.00    +0.196 C 
ATOM     27  O   UNL     1       1.197  -0.132   0.690  0.00  0.00    -0.278 OA
ATOM     28  N   UNL     1       3.272   0.642   0.810  0.00  0.00    -0.320 N 
ATOM     29  C   UNL     1       2.809   2.028   0.706  0.00  0.00    +0.128 C 
ATOM     30  H   UNL     1       4.220   0.453   0.891  0.00  0.00    +0.148 HD
ENDBRANCH  25  26
ENDBRANCH  21  25
ENDBRANCH  20  21
ENDBRANCH   1  20
TORSDOF 7
