REMARK  Name = ZINC21969325
REMARK  9 active torsions:
REMARK  status: ('A' for Active; 'I' for Inactive)
REMARK    1  A    between atoms: C_1  and  C_2
REMARK    2  A    between atoms: C_2  and  C_3
REMARK    3  A    between atoms: C_2  and  C_4
REMARK    4  A    between atoms: C_2  and  C_5
REMARK    5  A    between atoms: C_12  and  C_14
REMARK    6  A    between atoms: N_16  and  N_17
REMARK    7  A    between atoms: C_18  and  C_20
REMARK    8  A    between atoms: C_20  and  C_21
REMARK    9  A    between atoms: C_21  and  N_22
REMARK                            x       y       z     vdW  Elec       q    Type
REMARK                         _______ _______ _______ _____ _____    ______ ____
ROOT
ATOM      1  C   UNL     1      -1.193   2.055   0.019  0.00  0.00    +0.267 C 
ATOM      2  O   UNL     1      -2.239   1.432   0.021  0.00  0.00    -0.268 OA
ATOM      3  N   UNL     1      -0.017   1.397   0.010  0.00  0.00    -0.230 N 
ATOM      4  H   UNL     1       0.928   1.960   0.008  0.00  0.00    +0.173 HD
ENDROOT
BRANCH   1  11
ATOM      5  C   UNL     1      -2.598   8.118   0.521  0.00  0.00    -0.001 C 
ATOM      6  C   UNL     1      -1.373   8.483  -0.323  0.00  0.00    +0.009 C 
ATOM      7  C   UNL     1      -0.222   7.535   0.042  0.00  0.00    +0.043 C 
ATOM      8  C   UNL     1      -0.745   6.132   0.038  0.00  0.00    -0.006 A 
ATOM      9  C   UNL     1      -2.054   5.741   0.043  0.00  0.00    -0.036 A 
ATOM     10  C   UNL     1      -2.298   4.378   0.037  0.00  0.00    +0.024 A 
ATOM     11  C   UNL     1      -1.213   3.520   0.027  0.00  0.00    +0.076 A 
ATOM     12  S   UNL     1       0.157   4.665   0.035  0.00  0.00    -0.088 S 
ATOM     13  C   UNL     1      -3.172   6.780   0.055  0.00  0.00    +0.040 C 
BRANCH   5  15
ATOM     14  C   UNL     1      -4.881   8.851   1.224  0.00  0.00    +0.011 C 
ATOM     15  C   UNL     1      -3.661   9.208   0.371  0.00  0.00    -0.035 C 
ATOM     16  C   UNL     1      -3.088  10.547   0.838  0.00  0.00    +0.011 C 
ATOM     17  C   UNL     1      -4.079   9.315  -1.097  0.00  0.00    +0.011 C 
ENDBRANCH   5  15
ENDBRANCH   1  11
BRANCH   3  18
ATOM     18  N   UNL     1       0.002  -0.004   0.002  0.00  0.00    -0.234 N 
ATOM     19  C   UNL     1       1.178  -0.662  -0.013  0.00  0.00    +0.231 C 
ATOM     20  O   UNL     1       2.220  -0.041  -0.019  0.00  0.00    -0.274 OA
ATOM     21  H   UNL     1      -0.943  -0.567   0.008  0.00  0.00    +0.173 HD
BRANCH  19  22
ATOM     22  C   UNL     1       1.199  -2.169  -0.021  0.00  0.00    +0.119 C 
BRANCH  22  23
ATOM     23  C   UNL     1       2.648  -2.659  -0.037  0.00  0.00    +0.138 C 
BRANCH  23  24
ATOM     24  N   UNL     1       2.668  -4.124  -0.046  0.00  0.00    -0.274 N 
ATOM     25  C   UNL     1       2.668  -4.943  -1.175  0.00  0.00    +0.090 A 
ATOM     26  C   UNL     1       2.651  -4.686  -2.537  0.00  0.00    +0.030 A 
ATOM     27  C   UNL     1       2.656  -5.736  -3.434  0.00  0.00    +0.002 A 
ATOM     28  C   UNL     1       2.679  -7.042  -2.977  0.00  0.00    +0.004 A 
ATOM     29  C   UNL     1       2.696  -7.306  -1.621  0.00  0.00    +0.048 A 
ATOM     30  C   UNL     1       2.691  -6.258  -0.713  0.00  0.00    +0.157 A 
ATOM     31  O   UNL     1       2.704  -6.210   0.642  0.00  0.00    -0.407 OA
ATOM     32  C   UNL     1       2.695  -4.927   1.037  0.00  0.00    +0.421 A 
ATOM     33  O   UNL     1       2.707  -4.548   2.192  0.00  0.00    -0.223 OA
ENDBRANCH  23  24
ENDBRANCH  22  23
ENDBRANCH  19  22
ENDBRANCH   3  18
TORSDOF 6
