REMARK  Name = ZINC35083835
REMARK  4 active torsions:
REMARK  status: ('A' for Active; 'I' for Inactive)
REMARK    1  A    between atoms: C_1  and  C_2
REMARK    2  A    between atoms: C_2  and  C_4
REMARK    3  A    between atoms: C_2  and  N_7
REMARK    4  A    between atoms: C_10  and  C_13
REMARK                            x       y       z     vdW  Elec       q    Type
REMARK                         _______ _______ _______ _____ _____    ______ ____
ROOT
ATOM      1  N   UNL     1       0.815  -0.909  -0.821  0.00  0.00    +0.387 N 
ATOM      2  C   UNL     1       0.662  -2.284  -0.331  0.00  0.00    -0.077 C 
ATOM      3  C   UNL     1       1.442  -3.242  -1.234  0.00  0.00    -0.004 C 
ATOM      4  C   UNL     1       2.924  -2.855  -1.220  0.00  0.00    +0.099 C 
ATOM      5  C   UNL     1       3.065  -1.395  -1.662  0.00  0.00    -0.004 C 
ATOM      6  C   UNL     1       2.224  -0.506  -0.743  0.00  0.00    -0.077 C 
ATOM      7  H   UNL     1       0.505  -0.860  -1.780  0.00  0.00    -0.081 HD
ENDROOT
BRANCH   4   8
ATOM      8  C   UNL     1       3.686  -3.744  -2.168  0.00  0.00    +0.359 C 
ATOM      9  O   UNL     1       4.683  -3.324  -2.730  0.00  0.00    -0.246 OA
ATOM     10  O   UNL     1       3.306  -4.885  -2.373  0.00  0.00    -0.246 OA
ENDBRANCH   4   8
BRANCH   1  12
ATOM     11  C   UNL     1       0.145   1.427  -0.520  0.00  0.00    -0.004 C 
ATOM     12  C   UNL     1       0.002  -0.004   0.002  0.00  0.00    +0.016 C 
BRANCH  12  13
ATOM     13  C   UNL     1      -1.444  -0.422  -0.070  0.00  0.00    +0.197 C 
ATOM     14  O   UNL     1      -1.865  -0.982  -1.060  0.00  0.00    -0.278 OA
ATOM     15  N   UNL     1      -2.269  -0.175   0.967  0.00  0.00    -0.331 N 
ATOM     16  H   UNL     1      -1.932   0.273   1.759  0.00  0.00    +0.145 HD
ATOM     17  H   UNL     1      -3.200  -0.444   0.921  0.00  0.00    +0.145 HD
ENDBRANCH  12  13
ENDBRANCH   1  12
TORSDOF 3
