REMARK  Name = ZINC47329474
REMARK  7 active torsions:
REMARK  status: ('A' for Active; 'I' for Inactive)
REMARK    1  A    between atoms: C_1  and  C_2
REMARK    2  A    between atoms: C_5  and  S_22
REMARK    3  A    between atoms: C_7  and  N_8
REMARK    4  A    between atoms: C_9  and  C_11
REMARK    5  A    between atoms: C_12  and  C_13
REMARK    6  A    between atoms: S_22  and  N_25
REMARK    7  A    between atoms: N_25  and  C_26
REMARK                            x       y       z     vdW  Elec       q    Type
REMARK                         _______ _______ _______ _____ _____    ______ ____
ROOT
ATOM      1  N   UNL     1      -0.977  -0.048   2.506  0.00  0.00    -0.282 N 
ATOM      2  C   UNL     1      -0.868  -0.691   3.686  0.00  0.00    +0.241 C 
ATOM      3  O   UNL     1      -1.168  -1.868   3.768  0.00  0.00    -0.270 OA
ATOM      4  H   UNL     1      -0.677   0.870   2.424  0.00  0.00    +0.155 HD
ENDROOT
BRANCH   1  11
ATOM      5  C   UNL     1      -2.523   1.475   0.666  0.00  0.00    +0.045 C 
ATOM      6  C   UNL     1      -2.284  -0.001   0.476  0.00  0.00    -0.029 A 
ATOM      7  C   UNL     1      -2.818  -0.653  -0.619  0.00  0.00    +0.007 A 
ATOM      8  C   UNL     1      -2.599  -2.007  -0.793  0.00  0.00    +0.029 A 
ATOM      9  C   UNL     1      -1.846  -2.713   0.128  0.00  0.00    +0.107 A 
ATOM     10  C   UNL     1      -1.310  -2.068   1.224  0.00  0.00    +0.052 A 
ATOM     11  C   UNL     1      -1.523  -0.706   1.399  0.00  0.00    +0.038 A 
BRANCH   9  12
ATOM     12  S   UNL     1      -1.572  -4.439  -0.099  0.00  0.00    +0.058 S 
ATOM     13  O   UNL     1      -1.294  -4.978   1.186  0.00  0.00    -0.153 OA
ATOM     14  O   UNL     1      -2.635  -4.916  -0.912  0.00  0.00    -0.153 OA
BRANCH  12  15
ATOM     15  N   UNL     1      -0.185  -4.601  -0.990  0.00  0.00    -0.193 NA
ATOM     16  C   UNL     1       1.098  -4.168  -0.433  0.00  0.00    +0.127 C 
ATOM     17  H   UNL     1      -0.224  -4.983  -1.881  0.00  0.00    +0.148 HD
ENDBRANCH  12  15
ENDBRANCH   9  12
ENDBRANCH   1  11
BRANCH   2  18
ATOM     18  C   UNL     1      -0.390   0.026   4.867  0.00  0.00    +0.068 C 
ATOM     19  C   UNL     1      -0.144  -0.647   6.011  0.00  0.00    +0.013 C 
BRANCH  19  20
ATOM     20  C   UNL     1      -0.125  -2.116   6.010  0.00  0.00    -0.021 A 
ATOM     21  C   UNL     1       0.574  -2.808   5.014  0.00  0.00    +0.012 A 
ATOM     22  C   UNL     1       0.591  -4.186   5.016  0.00  0.00    +0.050 A 
ATOM     23  C   UNL     1      -0.084  -4.892   6.003  0.00  0.00    +0.166 A 
ATOM     24  C   UNL     1      -0.783  -4.209   6.999  0.00  0.00    +0.167 A 
ATOM     25  C   UNL     1      -0.800  -2.828   7.008  0.00  0.00    +0.057 A 
ATOM     26  O   UNL     1      -1.353  -5.124   7.837  0.00  0.00    -0.453 OA
ATOM     27  C   UNL     1      -1.337  -6.369   7.113  0.00  0.00    +0.466 C 
ATOM     28  O   UNL     1      -0.216  -6.232   6.220  0.00  0.00    -0.453 OA
ENDBRANCH  19  20
ENDBRANCH   2  18
TORSDOF 5
