REMARK  Name = ZINC55540366
REMARK  7 active torsions:
REMARK  status: ('A' for Active; 'I' for Inactive)
REMARK    1  A    between atoms: C_1  and  C_2
REMARK    2  A    between atoms: C_2  and  C_4
REMARK    3  A    between atoms: C_2  and  C_22
REMARK    4  A    between atoms: C_4  and  N_5
REMARK    5  A    between atoms: C_6  and  C_8
REMARK    6  A    between atoms: C_8  and  N_9
REMARK    7  A    between atoms: C_22  and  N_23
REMARK                            x       y       z     vdW  Elec       q    Type
REMARK                         _______ _______ _______ _____ _____    ______ ____
ROOT
ATOM      1  N   UNL     1      -0.161  -0.178   2.382  0.00  0.00    -0.314 N 
ATOM      2  C   UNL     1       0.257  -0.582   3.598  0.00  0.00    +0.233 C 
ATOM      3  O   UNL     1       1.249  -1.271   3.700  0.00  0.00    -0.274 OA
ATOM      4  H   UNL     1      -0.955   0.373   2.300  0.00  0.00    +0.149 HD
ENDROOT
BRANCH   1   5
ATOM      5  C   UNL     1       0.584  -0.572   1.183  0.00  0.00    +0.105 C 
BRANCH   5   7
ATOM      6  C   UNL     1      -0.012   1.541  -0.010  0.00  0.00    +0.007 C 
ATOM      7  C   UNL     1      -0.097   0.014  -0.055  0.00  0.00    -0.014 C 
BRANCH   7   8
ATOM      8  C   UNL     1       0.606  -0.499  -1.314  0.00  0.00    -0.074 C 
BRANCH   8   9
ATOM      9  N   UNL     1       0.410  -1.950  -1.428  0.00  0.00    +0.380 N 
ATOM     10  C   UNL     1      -1.012  -2.252  -1.734  0.00  0.00    -0.079 C 
ATOM     11  C   UNL     1      -0.946  -3.667  -2.363  0.00  0.00    -0.020 C 
ATOM     12  C   UNL     1       0.356  -3.615  -3.194  0.00  0.00    -0.020 C 
ATOM     13  C   UNL     1       1.190  -2.482  -2.566  0.00  0.00    -0.079 C 
ATOM     14  H   UNL     1       0.687  -2.407  -0.572  0.00  0.00    -0.082 HD
ENDBRANCH   8   9
ENDBRANCH   7   8
ENDBRANCH   5   7
ENDBRANCH   1   5
BRANCH   2  15
ATOM     15  C   UNL     1      -0.509  -0.176   4.831  0.00  0.00    +0.225 C 
BRANCH  15  16
ATOM     16  N   UNL     1       0.142  -0.737   6.017  0.00  0.00    -0.252 N 
ATOM     17  C   UNL     1      -0.222  -1.962   6.457  0.00  0.00    +0.265 A 
ATOM     18  O   UNL     1      -1.081  -2.600   5.881  0.00  0.00    -0.267 OA
ATOM     19  C   UNL     1       0.450  -2.503   7.652  0.00  0.00    +0.063 A 
ATOM     20  C   UNL     1       0.130  -3.757   8.166  0.00  0.00    +0.015 A 
ATOM     21  C   UNL     1       0.788  -4.219   9.287  0.00  0.00    +0.001 A 
ATOM     22  C   UNL     1       1.760  -3.443   9.900  0.00  0.00    +0.002 A 
ATOM     23  C   UNL     1       2.086  -2.198   9.400  0.00  0.00    +0.026 A 
ATOM     24  C   UNL     1       1.435  -1.717   8.274  0.00  0.00    +0.056 A 
ATOM     25  N   UNL     1       1.733  -0.472   7.739  0.00  0.00    -0.307 N 
ATOM     26  H   UNL     1       2.411   0.081   8.157  0.00  0.00    +0.170 HD
ATOM     27  C   UNL     1       1.094  -0.027   6.643  0.00  0.00    +0.330 A 
ATOM     28  O   UNL     1       1.387   1.068   6.203  0.00  0.00    -0.246 OA
ENDBRANCH  15  16
ENDBRANCH   2  15
TORSDOF 6
