REMARK  Name = ZINC00221455
REMARK  2 active torsions:
REMARK  status: ('A' for Active; 'I' for Inactive)
REMARK    1  A    between atoms: C_6  and  C_7
REMARK    2  A    between atoms: C_9  and  N_16
REMARK                            x       y       z     vdW  Elec       q    Type
REMARK                         _______ _______ _______ _____ _____    ______ ____
ROOT
ATOM      1  C   UNL     1      -1.293  -0.775   0.010  0.00  0.00    +0.132 C 
ATOM      2  C   UNL     1      -1.591  -1.248   1.434  0.00  0.00    +0.195 C 
ATOM      3  C   UNL     1      -2.781  -2.213   1.392  0.00  0.00    +0.043 C 
ATOM      4  C   UNL     1      -2.346  -3.486   0.661  0.00  0.00    +0.098 C 
ATOM      5  C   UNL     1      -1.665  -3.128  -0.628  0.00  0.00    +0.214 C 
ATOM      6  O   UNL     1      -1.548  -3.989  -1.474  0.00  0.00    -0.276 OA
ATOM      7  N   UNL     1      -1.179  -1.917  -0.889  0.00  0.00    -0.306 N 
ATOM      8  H   UNL     1      -0.723  -1.785  -1.735  0.00  0.00    +0.149 HD
ENDROOT
BRANCH   1  14
ATOM      9  C   UNL     1      -0.017   1.378   0.010  0.00  0.00    +0.006 A 
ATOM     10  C   UNL     1       1.171   2.086   0.002  0.00  0.00    +0.015 A 
ATOM     11  C   UNL     1       2.378   1.411  -0.013  0.00  0.00    +0.018 A 
ATOM     12  C   UNL     1       2.396   0.027  -0.021  0.00  0.00    +0.015 A 
ATOM     13  C   UNL     1       1.208  -0.679  -0.013  0.00  0.00    +0.006 A 
ATOM     14  C   UNL     1       0.002  -0.004   0.002  0.00  0.00    -0.025 A 
ATOM     15 BR   UNL     1       4.003   2.378  -0.024  0.00  0.00    -0.050 Br
ENDBRANCH   1  14
BRANCH   2  16
ATOM     16  N   UNL     1      -1.918  -0.095   2.276  0.00  0.00    +0.028 N 
ATOM     17  O   UNL     1      -2.863   0.607   2.000  0.00  0.00    -0.131 OA
ATOM     18  O   UNL     1      -1.243   0.155   3.248  0.00  0.00    -0.131 OA
ENDBRANCH   2  16
TORSDOF 2
