REMARK  Name = ZINC09262767
REMARK  6 active torsions:
REMARK  status: ('A' for Active; 'I' for Inactive)
REMARK    1  A    between atoms: C_1  and  C_2
REMARK    2  A    between atoms: C_5  and  N_8
REMARK    3  A    between atoms: C_9  and  C_27
REMARK    4  A    between atoms: C_12  and  S_13
REMARK    5  A    between atoms: S_13  and  C_14
REMARK    6  A    between atoms: C_14  and  C_15
REMARK                            x       y       z     vdW  Elec       q    Type
REMARK                         _______ _______ _______ _____ _____    ______ ____
ROOT
ATOM      1  N   UNL     1      -5.394   1.427   0.029  0.00  0.00    -0.270 N 
ATOM      2  C   UNL     1      -6.128   2.593   0.043  0.00  0.00    +0.169 A 
ATOM      3  N   UNL     1      -5.270   3.587   0.045  0.00  0.00    -0.128 NA
ATOM      4  N   UNL     1      -4.069   3.132   0.037  0.00  0.00    -0.122 NA
ATOM      5  C   UNL     1      -4.083   1.817   0.031  0.00  0.00    +0.197 A 
ENDROOT
BRANCH   1  10
ATOM      6  C   UNL     1      -7.394  -3.885  -0.017  0.00  0.00    +0.044 C 
ATOM      7  C   UNL     1      -6.862  -2.474  -0.005  0.00  0.00    -0.050 A 
ATOM      8  C   UNL     1      -6.144  -2.017   1.084  0.00  0.00    +0.005 A 
ATOM      9  C   UNL     1      -5.656  -0.725   1.098  0.00  0.00    +0.026 A 
ATOM     10  C   UNL     1      -5.887   0.115   0.018  0.00  0.00    +0.051 A 
ATOM     11  C   UNL     1      -6.614  -0.345  -1.072  0.00  0.00    +0.026 A 
ATOM     12  C   UNL     1      -7.095  -1.640  -1.083  0.00  0.00    +0.005 A 
ENDBRANCH   1  10
BRANCH   2  13
ATOM     13  C   UNL     1      -7.601   2.704   0.050  0.00  0.00    +0.020 A 
ATOM     14  C   UNL     1      -8.387   1.590   0.354  0.00  0.00    +0.011 A 
ATOM     15  C   UNL     1      -9.762   1.702   0.363  0.00  0.00    +0.001 A 
ATOM     16  C   UNL     1     -10.363   2.911   0.062  0.00  0.00    +0.000 A 
ATOM     17  C   UNL     1      -9.591   4.017  -0.246  0.00  0.00    +0.001 A 
ATOM     18  C   UNL     1      -8.214   3.921  -0.254  0.00  0.00    +0.011 A 
ENDBRANCH   2  13
BRANCH   5  19
ATOM     19  S   UNL     1      -2.676   0.757   0.019  0.00  0.00    -0.078 S 
BRANCH  19  20
ATOM     20  C   UNL     1      -1.352   1.991   0.019  0.00  0.00    +0.151 C 
BRANCH  20  21
ATOM     21  C   UNL     1      -0.015   1.294   0.009  0.00  0.00    +0.121 A 
ATOM     22  N   UNL     1       1.109   2.057   0.003  0.00  0.00    -0.310 N 
ATOM     23  H   UNL     1       1.034   3.024   0.008  0.00  0.00    +0.170 HD
ATOM     24  C   UNL     1       2.333   1.479  -0.012  0.00  0.00    +0.259 A 
ATOM     25  O   UNL     1       3.349   2.150  -0.019  0.00  0.00    -0.267 OA
ATOM     26  C   UNL     1       2.388   0.010  -0.021  0.00  0.00    +0.065 A 
ATOM     27  C   UNL     1       3.597  -0.682  -0.036  0.00  0.00    +0.015 A 
ATOM     28  C   UNL     1       3.591  -2.060  -0.044  0.00  0.00    +0.001 A 
ATOM     29  C   UNL     1       2.392  -2.760  -0.036  0.00  0.00    +0.002 A 
ATOM     30  C   UNL     1       1.186  -2.096  -0.021  0.00  0.00    +0.028 A 
ATOM     31  C   UNL     1       1.167  -0.699  -0.013  0.00  0.00    +0.078 A 
ATOM     32  N   UNL     1       0.002  -0.004   0.002  0.00  0.00    -0.233 NA
ENDBRANCH  20  21
ENDBRANCH  19  20
ENDBRANCH   5  19
TORSDOF 5
