REMARK  Name = ZINC20598467
REMARK  8 active torsions:
REMARK  status: ('A' for Active; 'I' for Inactive)
REMARK    1  A    between atoms: C_1  and  O_2
REMARK    2  A    between atoms: O_2  and  C_3
REMARK    3  A    between atoms: C_8  and  C_9
REMARK    4  A    between atoms: C_10  and  C_11
REMARK    5  A    between atoms: C_11  and  N_12
REMARK    6  A    between atoms: C_18  and  C_20
REMARK    7  A    between atoms: C_20  and  C_21
REMARK    8  A    between atoms: N_23  and  C_24
REMARK                            x       y       z     vdW  Elec       q    Type
REMARK                         _______ _______ _______ _____ _____    ______ ____
ROOT
ATOM      1  N   UNL     1       5.701   3.679   1.075  0.00  0.00    +0.391 N 
ATOM      2  C   UNL     1       5.157   4.159   2.355  0.00  0.00    -0.058 C 
ATOM      3  C   UNL     1       5.822   3.382   3.493  0.00  0.00    +0.085 C 
ATOM      4  N   UNL     1       7.273   3.403   3.333  0.00  0.00    -0.318 N 
ATOM      5  C   UNL     1       7.872   3.703   2.175  0.00  0.00    +0.200 C 
ATOM      6  O   UNL     1       9.083   3.667   2.121  0.00  0.00    -0.278 OA
ATOM      7  C   UNL     1       7.108   4.082   0.939  0.00  0.00    +0.028 C 
ATOM      8  H   UNL     1       7.925   3.165   4.186  0.00  0.00    +0.149 HD
ATOM      9  H   UNL     1       5.652   2.581   1.062  0.00  0.00    -0.080 HD
ENDROOT
BRANCH   1  10
ATOM     10  C   UNL     1       4.901   4.172  -0.055  0.00  0.00    -0.050 C 
BRANCH  10  12
ATOM     11  C   UNL     1       2.447   4.122  -0.086  0.00  0.00    +0.005 C 
ATOM     12  C   UNL     1       3.584   3.441  -0.094  0.00  0.00    -0.045 C 
BRANCH  11  18
ATOM     13  C   UNL     1      -0.047   4.122  -0.115  0.00  0.00    +0.127 A 
ATOM     14  C   UNL     1      -1.253   3.441  -0.151  0.00  0.00    +0.046 A 
ATOM     15  C   UNL     1      -1.267   2.059  -0.200  0.00  0.00    +0.004 A 
ATOM     16  C   UNL     1      -0.080   1.348  -0.203  0.00  0.00    +0.001 A 
ATOM     17  C   UNL     1       1.129   2.012  -0.168  0.00  0.00    +0.011 A 
ATOM     18  C   UNL     1       1.155   3.406  -0.124  0.00  0.00    +0.016 A 
BRANCH  13  20
ATOM     19  C   UNL     1      -1.298   6.142  -0.066  0.00  0.00    +0.277 C 
ATOM     20  O   UNL     1      -0.032   5.479  -0.072  0.00  0.00    -0.495 OA
ENDBRANCH  13  20
ENDBRANCH  11  18
ENDBRANCH  10  12
ENDBRANCH   1  10
BRANCH   7  21
ATOM     21  C   UNL     1       7.722   3.380  -0.274  0.00  0.00    +0.089 C 
BRANCH  21  22
ATOM     22  C   UNL     1       7.595   1.888  -0.108  0.00  0.00    +0.212 C 
ATOM     23  O   UNL     1       6.981   1.433   0.834  0.00  0.00    -0.276 OA
ATOM     24  N   UNL     1       8.165   1.059  -1.006  0.00  0.00    -0.312 N 
ATOM     25  H   UNL     1       8.722   1.472  -1.859  0.00  0.00    +0.149 HD
BRANCH  24  26
ATOM     26  C   UNL     1       8.041  -0.392  -0.844  0.00  0.00    +0.077 C 
ATOM     27  C   UNL     1       9.145  -0.899   0.089  0.00  0.00    +0.050 C 
ATOM     28  C   UNL     1       9.057  -2.424   0.189  0.00  0.00    +0.161 C 
ATOM     29  O   UNL     1       9.169  -2.993  -1.117  0.00  0.00    -0.380 OA
ATOM     30  C   UNL     1       8.136  -2.592  -2.019  0.00  0.00    +0.161 C 
ATOM     31  C   UNL     1       8.187  -1.073  -2.208  0.00  0.00    +0.050 C 
ENDBRANCH  24  26
ENDBRANCH  21  22
ENDBRANCH   7  21
TORSDOF 7
