REMARK  Name = ZINC11416063
REMARK  12 active torsions:
REMARK  status: ('A' for Active; 'I' for Inactive)
REMARK    1  A    between atoms: C_1  and  C_2
REMARK    2  A    between atoms: C_2  and  C_3
REMARK    3  A    between atoms: C_3  and  C_5
REMARK    4  A    between atoms: C_3  and  C_31
REMARK    5  A    between atoms: C_5  and  N_6
REMARK    6  A    between atoms: C_7  and  C_9
REMARK    7  A    between atoms: C_9  and  S_10
REMARK    8  A    between atoms: S_10  and  C_11
REMARK    9  A    between atoms: C_14  and  C_23
REMARK   10  A    between atoms: N_15  and  C_16
REMARK   11  A    between atoms: C_23  and  C_25
REMARK   12  A    between atoms: C_23  and  N_69
REMARK                            x       y       z     vdW  Elec       q    Type
REMARK                         _______ _______ _______ _____ _____    ______ ____
ROOT
ATOM      1  C   UNL     1       0.335  -5.436  -1.732  0.00  0.00    +0.197 A 
ATOM      2  N   UNL     1       0.681  -4.685  -2.752  0.00  0.00    -0.122 NA
ATOM      3  N   UNL     1       1.237  -5.406  -3.658  0.00  0.00    -0.135 NA
ATOM      4  C   UNL     1       1.281  -6.652  -3.277  0.00  0.00    +0.125 A 
ATOM      5  N   UNL     1       0.711  -6.716  -2.033  0.00  0.00    -0.275 N 
ENDROOT
BRANCH   5   6
ATOM      6  C   UNL     1       0.546  -7.858  -1.234  0.00  0.00    +0.050 A 
ATOM      7  C   UNL     1       1.658  -8.531  -0.745  0.00  0.00    +0.029 A 
ATOM      8  C   UNL     1       1.494  -9.651   0.046  0.00  0.00    +0.040 A 
ATOM      9  C   UNL     1       0.221 -10.110   0.342  0.00  0.00    +0.124 A 
ATOM     10  C   UNL     1      -0.889  -9.444  -0.150  0.00  0.00    +0.040 A 
ATOM     11  C   UNL     1      -0.728  -8.320  -0.936  0.00  0.00    +0.029 A 
ATOM     12  F   UNL     1       0.062 -11.210   1.111  0.00  0.00    -0.205 F 
ENDBRANCH   5   6
BRANCH   4  13
ATOM     13  C   UNL     1       1.855  -7.806  -4.057  0.00  0.00    -0.002 C 
ATOM     14  C   UNL     1       3.383  -7.740  -4.013  0.00  0.00    -0.005 C 
BRANCH  13  20
ATOM     15  C   UNL     1      -0.064  -7.687  -5.527  0.00  0.00    -0.078 C 
ATOM     16  C   UNL     1      -0.496  -7.460  -6.978  0.00  0.00    -0.019 C 
ATOM     17  C   UNL     1       0.048  -8.595  -7.851  0.00  0.00    -0.004 C 
ATOM     18  C   UNL     1       1.572  -8.646  -7.717  0.00  0.00    -0.019 C 
ATOM     19  C   UNL     1       1.944  -8.839  -6.245  0.00  0.00    -0.078 C 
ATOM     20  N   UNL     1       1.413  -7.702  -5.463  0.00  0.00    +0.386 N 
ATOM     21  H   UNL     1       1.772  -6.827  -5.862  0.00  0.00    -0.081 HD
ENDBRANCH  13  20
ENDBRANCH   4  13
BRANCH   1  22
ATOM     22  S   UNL     1      -0.458  -4.896  -0.254  0.00  0.00    -0.076 S 
BRANCH  22  23
ATOM     23  C   UNL     1      -0.609  -3.127  -0.606  0.00  0.00    +0.173 C 
BRANCH  23  25
ATOM     24  N   UNL     1      -1.498  -1.110   0.515  0.00  0.00    -0.314 N 
ATOM     25  C   UNL     1      -1.279  -2.439   0.555  0.00  0.00    +0.223 C 
ATOM     26  O   UNL     1      -1.621  -3.082   1.525  0.00  0.00    -0.275 OA
ATOM     27  H   UNL     1      -1.225  -0.596  -0.261  0.00  0.00    +0.149 HD
BRANCH  24  28
ATOM     28  C   UNL     1      -2.150  -0.441   1.644  0.00  0.00    +0.112 C 
BRANCH  28  29
ATOM     29  C   UNL     1      -2.194   1.067   1.387  0.00  0.00    +0.036 C 
BRANCH  29  30
ATOM     30  C   UNL     1      -2.986   1.739   2.478  0.00  0.00    -0.043 A 
ATOM     31  C   UNL     1      -2.578   1.632   3.795  0.00  0.00    +0.004 A 
ATOM     32  C   UNL     1      -3.302   2.253   4.795  0.00  0.00    +0.000 A 
ATOM     33  C   UNL     1      -4.440   2.972   4.481  0.00  0.00    +0.000 A 
ATOM     34  C   UNL     1      -4.851   3.075   3.165  0.00  0.00    +0.000 A 
ATOM     35  C   UNL     1      -4.124   2.458   2.164  0.00  0.00    +0.004 A 
ENDBRANCH  29  30
BRANCH  29  37
ATOM     36  C   UNL     1      -0.805   3.104   0.986  0.00  0.00    +0.004 C 
ATOM     37  C   UNL     1      -0.770   1.624   1.373  0.00  0.00    +0.006 C 
ENDBRANCH  29  37
ENDBRANCH  28  29
ENDBRANCH  24  28
ENDBRANCH  23  25
ENDBRANCH  22  23
ENDBRANCH   1  22
TORSDOF 10
