REMARK  Name = ZINC52585910
REMARK  9 active torsions:
REMARK  status: ('A' for Active; 'I' for Inactive)
REMARK    1  A    between atoms: C_1  and  C_2
REMARK    2  A    between atoms: C_2  and  C_3
REMARK    3  A    between atoms: C_7  and  C_33
REMARK    4  A    between atoms: C_9  and  C_32
REMARK    5  A    between atoms: N_12  and  C_13
REMARK    6  A    between atoms: C_13  and  C_14
REMARK    7  A    between atoms: C_17  and  O_20
REMARK    8  A    between atoms: O_20  and  C_21
REMARK    9  A    between atoms: C_26  and  C_27
REMARK                            x       y       z     vdW  Elec       q    Type
REMARK                         _______ _______ _______ _____ _____    ______ ____
ROOT
ATOM      1  C   UNL     1      -1.973  -3.080   2.183  0.00  0.00    -0.030 A 
ATOM      2  C   UNL     1      -2.062  -2.211   3.255  0.00  0.00    +0.009 A 
ATOM      3  C   UNL     1      -3.018  -2.412   4.231  0.00  0.00    +0.046 A 
ATOM      4  C   UNL     1      -3.889  -3.488   4.136  0.00  0.00    +0.128 A 
ATOM      5  C   UNL     1      -3.798  -4.359   3.060  0.00  0.00    +0.046 A 
ATOM      6  C   UNL     1      -2.844  -4.150   2.083  0.00  0.00    +0.009 A 
ENDROOT
BRANCH   1   7
ATOM      7  C   UNL     1      -0.928  -2.859   1.120  0.00  0.00    +0.143 C 
BRANCH   7  16
ATOM      8  C   UNL     1      -1.415  -0.533   0.026  0.00  0.00    +0.160 C 
ATOM      9  N   UNL     1      -2.099  -0.138  -1.212  0.00  0.00    -0.323 N 
ATOM     10  C   UNL     1      -2.526  -1.314  -1.839  0.00  0.00    +0.070 A 
ATOM     11  C   UNL     1      -3.218  -1.510  -3.029  0.00  0.00    -0.025 A 
ATOM     12  C   UNL     1      -3.516  -2.810  -3.415  0.00  0.00    +0.026 A 
ATOM     13  C   UNL     1      -3.119  -3.860  -2.612  0.00  0.00    +0.015 A 
ATOM     14  N   UNL     1      -2.463  -3.645  -1.488  0.00  0.00    -0.346 N 
ATOM     15  C   UNL     1      -2.156  -2.421  -1.077  0.00  0.00    +0.122 A 
ATOM     16  N   UNL     1      -1.477  -1.998   0.069  0.00  0.00    -0.292 N 
ATOM     17  C   UNL     1      -3.439  -5.273  -3.026  0.00  0.00    +0.063 C 
ATOM     18  C   UNL     1      -3.636  -0.339  -3.879  0.00  0.00    +0.046 C 
ATOM     19  H   UNL     1      -2.230   0.767  -1.534  0.00  0.00    +0.148 HD
ATOM     20  H   UNL     1      -2.199  -4.404  -0.945  0.00  0.00    +0.167 HD
BRANCH   8  22
ATOM     21  C   UNL     1       0.091   1.461   0.050  0.00  0.00    +0.007 C 
ATOM     22  C   UNL     1       0.043  -0.067  -0.004  0.00  0.00    +0.039 C 
ENDBRANCH   8  22
ENDBRANCH   7  16
ENDBRANCH   1   7
BRANCH   4  23
ATOM     23  O   UNL     1      -4.831  -3.688   5.096  0.00  0.00    -0.455 OA
BRANCH  23  24
ATOM     24  C   UNL     1      -4.706  -4.780   5.892  0.00  0.00    +0.139 A 
ATOM     25  C   UNL     1      -3.579  -5.582   5.804  0.00  0.00    +0.047 A 
ATOM     26  C   UNL     1      -3.453  -6.692   6.615  0.00  0.00    +0.004 A 
ATOM     27  C   UNL     1      -4.450  -7.013   7.521  0.00  0.00    +0.001 A 
ATOM     28  C   UNL     1      -5.578  -6.226   7.621  0.00  0.00    +0.015 A 
ATOM     29  C   UNL     1      -5.714  -5.098   6.811  0.00  0.00    +0.065 A 
BRANCH  29  30
ATOM     30  C   UNL     1      -6.918  -4.247   6.918  0.00  0.00    +0.210 A 
ATOM     31  N   UNL     1      -7.188  -3.151   6.205  0.00  0.00    -0.106 NA
ATOM     32  N   UNL     1      -8.331  -2.704   6.599  0.00  0.00    -0.021 NA
ATOM     33  N   UNL     1      -8.789  -3.470   7.526  0.00  0.00    -0.021 NA
ATOM     34  N   UNL     1      -7.952  -4.426   7.742  0.00  0.00    -0.106 NA
ENDBRANCH  29  30
ENDBRANCH  23  24
ENDBRANCH   4  23
TORSDOF 6
