REMARK  Name = ZINC39770678
REMARK  12 active torsions:
REMARK  status: ('A' for Active; 'I' for Inactive)
REMARK    1  A    between atoms: C_1  and  C_2
REMARK    2  A    between atoms: C_2  and  C_3
REMARK    3  A    between atoms: C_3  and  C_4
REMARK    4  A    between atoms: C_4  and  N_5
REMARK    5  A    between atoms: C_6  and  N_30
REMARK    6  A    between atoms: C_7  and  C_15
REMARK    7  A    between atoms: C_8  and  C_14
REMARK    8  A    between atoms: C_9  and  C_12
REMARK    9  A    between atoms: N_19  and  C_23
REMARK   10  A    between atoms: C_23  and  C_24
REMARK   11  A    between atoms: C_32  and  C_39
REMARK   12  A    between atoms: C_35  and  C_38
REMARK                            x       y       z     vdW  Elec       q    Type
REMARK                         _______ _______ _______ _____ _____    ______ ____
ROOT
ATOM      1  N   UNL     1      -3.938  -2.035  -0.555  0.00  0.00    -0.295 N 
ATOM      2  C   UNL     1      -3.946  -2.442   0.741  0.00  0.00    +0.112 A 
ATOM      3  C   UNL     1      -4.843  -3.433   1.173  0.00  0.00    +0.019 A 
ATOM      4  C   UNL     1      -5.737  -4.004   0.251  0.00  0.00    -0.017 A 
ATOM      5  C   UNL     1      -5.710  -3.570  -1.071  0.00  0.00    +0.120 A 
ATOM      6  C   UNL     1      -4.788  -2.563  -1.455  0.00  0.00    +0.270 A 
ATOM      7  O   UNL     1      -4.762  -2.175  -2.610  0.00  0.00    -0.266 OA
ATOM      8  C   UNL     1      -6.710  -5.069   0.687  0.00  0.00    +0.046 C 
ENDROOT
BRANCH   3   9
ATOM      9  C   UNL     1      -4.846  -3.867   2.571  0.00  0.00    +0.032 C 
ATOM     10  C   UNL     1      -5.943  -3.653   3.347  0.00  0.00    +0.077 C 
ATOM     11  C   UNL     1      -7.138  -2.928   3.052  0.00  0.00    +0.258 C 
ATOM     12  O   UNL     1      -7.292  -2.386   1.973  0.00  0.00    -0.269 OA
ATOM     13  N   UNL     1      -8.071  -2.863   3.986  0.00  0.00    -0.253 N 
ATOM     14  C   UNL     1      -7.899  -3.465   5.184  0.00  0.00    +0.121 C 
ATOM     15  S   UNL     1      -8.963  -3.510   6.524  0.00  0.00    -0.027 S 
ATOM     16  S   UNL     1      -6.284  -4.208   5.012  0.00  0.00    -0.061 S 
BRANCH  13  17
ATOM     17  C   UNL     1      -9.310  -2.128   3.719  0.00  0.00    +0.146 C 
BRANCH  17  18
ATOM     18  C   UNL     1     -10.343  -3.076   3.107  0.00  0.00    +0.136 C 
ATOM     19  C   UNL     1     -11.608  -2.286   2.710  0.00  0.00    +0.035 C 
ATOM     20  C   UNL     1     -12.746  -3.267   3.103  0.00  0.00    +0.031 C 
ATOM     21  C   UNL     1     -12.135  -3.940   4.358  0.00  0.00    +0.160 C 
ATOM     22  O   UNL     1     -10.730  -4.061   4.072  0.00  0.00    -0.375 OA
ENDBRANCH  17  18
ENDBRANCH  13  17
ENDBRANCH   3   9
BRANCH   2  23
ATOM     23  N   UNL     1      -3.076  -1.883   1.631  0.00  0.00    -0.315 N 
ATOM     24  C   UNL     1      -3.269  -0.505   2.102  0.00  0.00    +0.109 C 
ATOM     25  C   UNL     1      -3.280  -0.504   3.634  0.00  0.00    +0.004 C 
ATOM     26  C   UNL     1      -2.003  -1.172   4.149  0.00  0.00    +0.009 C 
ATOM     27  C   UNL     1      -1.954  -2.624   3.667  0.00  0.00    +0.004 C 
ATOM     28  C   UNL     1      -1.931  -2.650   2.140  0.00  0.00    +0.109 C 
ATOM     29  C   UNL     1      -0.694  -3.300   4.211  0.00  0.00    +0.009 C 
ATOM     30  C   UNL     1      -4.501  -1.279   4.135  0.00  0.00    +0.009 C 
ENDBRANCH   2  23
BRANCH   5  31
ATOM     31  C   UNL     1      -6.607  -4.133  -2.035  0.00  0.00    +0.105 C 
ATOM     32  N   UNL     1      -7.319  -4.579  -2.799  0.00  0.00    -0.191 NA
ENDBRANCH   5  31
BRANCH   1  33
ATOM     33  C   UNL     1      -2.992  -1.000  -0.979  0.00  0.00    +0.126 C 
BRANCH  33  34
ATOM     34  C   UNL     1      -3.694   0.359  -0.987  0.00  0.00    +0.021 C 
BRANCH  34  36
ATOM     35  C   UNL     1      -3.378   2.816  -1.312  0.00  0.00    +0.004 C 
ATOM     36  C   UNL     1      -2.676   1.457  -1.304  0.00  0.00    -0.002 C 
ENDBRANCH  34  36
ENDBRANCH  33  34
ENDBRANCH   1  33
TORSDOF 8
