REMARK  Name = ZINC32906957
REMARK  7 active torsions:
REMARK  status: ('A' for Active; 'I' for Inactive)
REMARK    1  A    between atoms: C_1  and  C_2
REMARK    2  A    between atoms: C_2  and  C_20
REMARK    3  A    between atoms: N_5  and  C_9
REMARK    4  A    between atoms: C_9  and  C_10
REMARK    5  A    between atoms: C_10  and  C_12
REMARK    6  A    between atoms: C_10  and  O_19
REMARK    7  A    between atoms: C_20  and  C_21
REMARK                            x       y       z     vdW  Elec       q    Type
REMARK                         _______ _______ _______ _____ _____    ______ ____
ROOT
ATOM      1  C   UNL     1       2.661  -7.079   2.531  0.00  0.00    +0.042 C 
ATOM      2  C   UNL     1       2.054  -6.353   1.329  0.00  0.00    +0.114 C 
ATOM      3  C   UNL     1       2.513  -4.909   1.290  0.00  0.00    +0.247 C 
ATOM      4  O   UNL     1       3.651  -4.506   1.181  0.00  0.00    -0.273 OA
ATOM      5  N   UNL     1       1.394  -4.167   1.402  0.00  0.00    -0.221 N 
ATOM      6  C   UNL     1       0.302  -4.934   1.510  0.00  0.00    +0.309 C 
ATOM      7  O   UNL     1      -0.824  -4.493   1.627  0.00  0.00    -0.252 OA
ATOM      8  N   UNL     1       0.591  -6.247   1.472  0.00  0.00    -0.285 N 
ATOM      9  H   UNL     1      -0.024  -7.158   1.524  0.00  0.00    +0.151 HD
ENDROOT
BRANCH   5  10
ATOM     10  C   UNL     1       1.374  -2.703   1.410  0.00  0.00    +0.154 C 
BRANCH  10  11
ATOM     11  C   UNL     1       1.228  -2.186  -0.022  0.00  0.00    +0.162 C 
BRANCH  11  12
ATOM     12  C   UNL     1       1.208  -0.679  -0.014  0.00  0.00    -0.018 A 
ATOM     13  C   UNL     1       0.002  -0.004   0.002  0.00  0.00    +0.007 A 
ATOM     14  C   UNL     1      -0.017   1.378   0.010  0.00  0.00    +0.020 A 
ATOM     15  C   UNL     1       1.172   2.086   0.002  0.00  0.00    +0.041 A 
ATOM     16  C   UNL     1       2.379   1.409  -0.013  0.00  0.00    +0.020 A 
ATOM     17  C   UNL     1       2.397   0.027  -0.021  0.00  0.00    +0.007 A 
ATOM     18 CL   UNL     1       1.149   3.821   0.011  0.00  0.00    -0.084 Cl
ENDBRANCH  11  12
BRANCH  11  19
ATOM     19  O   UNL     1       2.330  -2.643  -0.808  0.00  0.00    -0.386 OA
ATOM     20  H   UNL     1       2.398  -2.370  -1.872  0.00  0.00    +0.210 HD
ENDBRANCH  11  19
ENDBRANCH  10  11
ENDBRANCH   5  10
BRANCH   2  21
ATOM     21  C   UNL     1       2.416  -7.069   0.026  0.00  0.00    +0.070 C 
BRANCH  21  22
ATOM     22  C   UNL     1       1.842  -8.462   0.042  0.00  0.00    -0.041 A 
ATOM     23  C   UNL     1       2.588  -9.510   0.549  0.00  0.00    +0.007 A 
ATOM     24  C   UNL     1       2.063 -10.789   0.569  0.00  0.00    +0.050 A 
ATOM     25  C   UNL     1       0.792 -11.025   0.072  0.00  0.00    +0.166 A 
ATOM     26  C   UNL     1       0.043  -9.971  -0.444  0.00  0.00    +0.166 A 
ATOM     27  C   UNL     1       0.573  -8.691  -0.457  0.00  0.00    +0.053 A 
ATOM     28  O   UNL     1      -1.161 -10.456  -0.866  0.00  0.00    -0.453 OA
ATOM     29  C   UNL     1      -1.301 -11.741  -0.232  0.00  0.00    +0.466 C 
ATOM     30  O   UNL     1       0.058 -12.172  -0.028  0.00  0.00    -0.453 OA
ENDBRANCH  21  22
ENDBRANCH   2  21
TORSDOF 6
