REMARK  Name = ZINC12471887
REMARK  1 active torsions:
REMARK  status: ('A' for Active; 'I' for Inactive)
REMARK    1  A    between atoms: C_1  and  C_2
REMARK                            x       y       z     vdW  Elec       q    Type
REMARK                         _______ _______ _______ _____ _____    ______ ____
ROOT
ATOM      1  C   UNL     1       2.453   3.928  -0.000  0.00  0.00    +0.064 C 
ATOM      2  C   UNL     1       1.159   3.155   0.008  0.00  0.00    +0.030 A 
ATOM      3  C   UNL     1       1.188   1.801   0.000  0.00  0.00    +0.037 A 
ATOM      4  C   UNL     1      -0.013   1.076   0.008  0.00  0.00    +0.022 A 
ATOM      5  C   UNL     1      -1.199   1.749   0.017  0.00  0.00    +0.071 A 
ATOM      6  C   UNL     1      -1.192   3.155   0.030  0.00  0.00    +0.249 A 
ATOM      7  O   UNL     1      -2.246   3.769   0.043  0.00  0.00    -0.268 OA
ATOM      8  N   UNL     1      -0.023   3.823   0.022  0.00  0.00    -0.325 N 
ATOM      9  H   UNL     1      -0.033   4.923   0.028  0.00  0.00    +0.169 HD
ATOM     10 BR   UNL     1       2.844   0.890  -0.021  0.00  0.00    -0.049 Br
ENDROOT
TORSDOF 0
