REMARK  Name = ZINC48375281
REMARK  7 active torsions:
REMARK  status: ('A' for Active; 'I' for Inactive)
REMARK    1  A    between atoms: C_1  and  C_2
REMARK    2  A    between atoms: C_5  and  C_8
REMARK    3  A    between atoms: C_8  and  C_10
REMARK    4  A    between atoms: N_13  and  C_16
REMARK    5  A    between atoms: C_16  and  C_17
REMARK    6  A    between atoms: N_23  and  C_24
REMARK    7  A    between atoms: N_23  and  C_25
REMARK                            x       y       z     vdW  Elec       q    Type
REMARK                         _______ _______ _______ _____ _____    ______ ____
ROOT
ATOM      1  C   UNL     1       0.075  -5.006   1.280  0.00  0.00    +0.057 C 
ATOM      2  C   UNL     1       1.518  -5.146   1.773  0.00  0.00    -0.007 C 
ATOM      3  C   UNL     1       1.535  -5.987   3.051  0.00  0.00    -0.078 C 
ATOM      4  N   UNL     1       0.980  -7.317   2.774  0.00  0.00    +0.384 N 
ATOM      5  C   UNL     1      -0.426  -7.196   2.369  0.00  0.00    -0.078 C 
ATOM      6  C   UNL     1      -0.518  -6.401   1.065  0.00  0.00    -0.007 C 
ATOM      7  H   UNL     1       1.506  -7.751   2.031  0.00  0.00    -0.081 HD
ENDROOT
BRANCH   1   8
ATOM      8  C   UNL     1       0.058  -4.245  -0.021  0.00  0.00    +0.166 C 
ATOM      9  O   UNL     1       0.060  -4.846  -1.075  0.00  0.00    -0.292 OA
BRANCH   8  14
ATOM     10  C   UNL     1      -0.018   1.503   0.010  0.00  0.00    +0.044 C 
ATOM     11  C   UNL     1       0.002  -0.004   0.002  0.00  0.00    -0.050 A 
ATOM     12  C   UNL     1       0.006  -0.686  -1.202  0.00  0.00    +0.004 A 
ATOM     13  C   UNL     1       0.024  -2.064  -1.218  0.00  0.00    +0.011 A 
ATOM     14  C   UNL     1       0.039  -2.774  -0.013  0.00  0.00    +0.018 A 
ATOM     15  C   UNL     1       0.036  -2.078   1.200  0.00  0.00    +0.011 A 
ATOM     16  C   UNL     1       0.023  -0.699   1.199  0.00  0.00    +0.004 A 
ENDBRANCH   8  14
ENDBRANCH   1   8
BRANCH   4  17
ATOM     17  C   UNL     1       1.070  -8.145   3.983  0.00  0.00    -0.001 C 
BRANCH  17  18
ATOM     18  C   UNL     1       0.615  -9.547   3.668  0.00  0.00    +0.120 A 
ATOM     19  N   UNL     1      -0.659  -9.872   3.800  0.00  0.00    -0.202 NA
ATOM     20  C   UNL     1      -1.065 -11.108   3.522  0.00  0.00    +0.217 A 
ATOM     21  N   UNL     1      -0.188 -12.017   3.110  0.00  0.00    -0.181 NA
ATOM     22  C   UNL     1       1.092 -11.686   2.978  0.00  0.00    +0.222 A 
ATOM     23  N   UNL     1       1.490 -10.446   3.253  0.00  0.00    -0.201 NA
ATOM     24  N   UNL     1       2.008 -12.626   2.550  0.00  0.00    -0.306 N 
ATOM     25  C   UNL     1       1.569 -13.989   2.242  0.00  0.00    +0.132 C 
ATOM     26  C   UNL     1       3.419 -12.261   2.405  0.00  0.00    +0.132 C 
ATOM     27  N   UNL     1      -2.396 -11.447   3.662  0.00  0.00    -0.327 N 
ATOM     28  H   UNL     1      -3.036 -10.783   3.963  0.00  0.00    +0.145 HD
ATOM     29  H   UNL     1      -2.691 -12.348   3.458  0.00  0.00    +0.145 HD
ENDBRANCH  17  18
ENDBRANCH   4  17
TORSDOF 4
