REMARK  Name = ZINC59879732
REMARK  10 active torsions:
REMARK  status: ('A' for Active; 'I' for Inactive)
REMARK    1  A    between atoms: C_1  and  C_2
REMARK    2  A    between atoms: C_2  and  C_4
REMARK    3  A    between atoms: C_2  and  S_13
REMARK    4  A    between atoms: N_6  and  N_7
REMARK    5  A    between atoms: C_8  and  C_10
REMARK    6  A    between atoms: C_10  and  C_11
REMARK    7  A    between atoms: C_10  and  C_12
REMARK    8  A    between atoms: S_13  and  C_14
REMARK    9  A    between atoms: N_19  and  N_20
REMARK   10  A    between atoms: C_21  and  C_22
REMARK                            x       y       z     vdW  Elec       q    Type
REMARK                         _______ _______ _______ _____ _____    ______ ____
ROOT
ATOM      1  C   UNL     1      -2.382  -0.044  -1.501  0.00  0.00    +0.211 A 
ATOM      2  N   UNL     1      -3.624  -0.283  -1.938  0.00  0.00    -0.186 NA
ATOM      3  C   UNL     1      -3.782   0.245  -3.133  0.00  0.00    +0.232 A 
ATOM      4  N   UNL     1      -2.622   0.841  -3.482  0.00  0.00    -0.245 N 
ATOM      5  N   UNL     1      -1.736   0.645  -2.411  0.00  0.00    -0.144 NA
ATOM      6  N   UNL     1      -4.934   0.198  -3.897  0.00  0.00    -0.205 N 
ATOM      7  H   UNL     1      -4.955   0.619  -4.771  0.00  0.00    +0.177 HD
ATOM      8  H   UNL     1      -2.438   1.314  -4.309  0.00  0.00    +0.192 HD
ENDROOT
BRANCH   6   9
ATOM      9  N   UNL     1      -6.072  -0.458  -3.409  0.00  0.00    -0.188 NA
ATOM     10  C   UNL     1      -7.138  -0.502  -4.116  0.00  0.00    +0.139 C 
BRANCH  10  11
ATOM     11  C   UNL     1      -8.335  -1.191  -3.603  0.00  0.00    +0.002 A 
ATOM     12  C   UNL     1      -9.600  -1.135  -4.356  0.00  0.00    +0.010 A 
ATOM     13  C   UNL     1     -10.675  -1.748  -3.907  0.00  0.00    +0.009 A 
ATOM     14  C   UNL     1     -10.613  -2.497  -2.640  0.00  0.00    -0.017 A 
ATOM     15  C   UNL     1     -11.797  -3.194  -2.111  0.00  0.00    +0.009 A 
ATOM     16  C   UNL     1     -11.721  -3.860  -0.975  0.00  0.00    +0.009 A 
ATOM     17  C   UNL     1     -10.450  -3.908  -0.231  0.00  0.00    -0.017 A 
ATOM     18  C   UNL     1     -10.342  -4.646   1.039  0.00  0.00    +0.008 A 
ATOM     19  C   UNL     1      -9.193  -4.672   1.682  0.00  0.00    +0.001 A 
ATOM     20  C   UNL     1      -8.014  -3.970   1.142  0.00  0.00    +0.008 A 
ATOM     21  C   UNL     1      -8.108  -3.311   0.008  0.00  0.00    -0.017 A 
ATOM     22  C   UNL     1      -9.398  -3.286  -0.706  0.00  0.00    -0.002 A 
ATOM     23  C   UNL     1      -9.483  -2.543  -1.975  0.00  0.00    -0.002 A 
ATOM     24  C   UNL     1      -8.274  -1.863  -2.474  0.00  0.00    -0.008 A 
ATOM     25  C   UNL     1      -7.028  -1.945  -1.697  0.00  0.00    +0.010 A 
ATOM     26  C   UNL     1      -6.954  -2.599  -0.562  0.00  0.00    +0.009 A 
ENDBRANCH  10  11
ENDBRANCH   6   9
BRANCH   1  27
ATOM     27  S   UNL     1      -1.725  -0.563   0.049  0.00  0.00    -0.072 S 
BRANCH  27  29
ATOM     28  C   UNL     1      -0.053   1.602   0.032  0.00  0.00    +0.029 C 
ATOM     29  C   UNL     1      -0.026   0.072   0.040  0.00  0.00    +0.138 C 
BRANCH  29  30
ATOM     30  C   UNL     1       0.698  -0.411   1.270  0.00  0.00    +0.242 C 
ATOM     31  O   UNL     1       0.068  -0.791   2.234  0.00  0.00    -0.273 OA
ATOM     32  N   UNL     1       2.045  -0.420   1.300  0.00  0.00    -0.233 N 
ATOM     33  H   UNL     1       2.549  -0.115   0.529  0.00  0.00    +0.173 HD
BRANCH  32  34
ATOM     34  N   UNL     1       2.718  -0.869   2.444  0.00  0.00    -0.234 N 
ATOM     35  C   UNL     1       4.066  -0.878   2.473  0.00  0.00    +0.232 C 
ATOM     36  O   UNL     1       4.696  -0.497   1.509  0.00  0.00    -0.274 OA
ATOM     37  H   UNL     1       2.214  -1.173   3.215  0.00  0.00    +0.173 HD
BRANCH  35  38
ATOM     38  C   UNL     1       4.789  -1.361   3.704  0.00  0.00    +0.070 C 
ATOM     39  C   UNL     1       6.299  -1.268   3.477  0.00  0.00    +0.017 C 
ATOM     40  C   UNL     1       4.399  -0.489   4.900  0.00  0.00    +0.017 C 
ENDBRANCH  35  38
ENDBRANCH  32  34
ENDBRANCH  29  30
ENDBRANCH  27  29
ENDBRANCH   1  27
TORSDOF 7
