REMARK  Name = ZINC34738751
REMARK  7 active torsions:
REMARK  status: ('A' for Active; 'I' for Inactive)
REMARK    1  A    between atoms: C_1  and  N_2
REMARK    2  A    between atoms: C_3  and  C_21
REMARK    3  A    between atoms: C_5  and  S_9
REMARK    4  A    between atoms: S_9  and  N_12
REMARK    5  A    between atoms: N_12  and  C_13
REMARK    6  A    between atoms: C_13  and  C_14
REMARK    7  A    between atoms: C_14  and  C_15
REMARK                            x       y       z     vdW  Elec       q    Type
REMARK                         _______ _______ _______ _____ _____    ______ ____
ROOT
ATOM      1  C   UNL     1       0.205   1.374   0.234  0.00  0.00    +0.138 C 
ATOM      2  N   UNL     1       0.145  -0.088   0.098  0.00  0.00    -0.182 NA
ATOM      3  C   UNL     1       0.653  -0.520  -1.226  0.00  0.00    +0.142 C 
ATOM      4  C   UNL     1       1.375  -1.857  -0.961  0.00  0.00    +0.199 C 
ATOM      5  C   UNL     1       1.230  -2.078   0.561  0.00  0.00    +0.215 C 
ATOM      6  O   UNL     1       1.020  -0.748   1.088  0.00  0.00    -0.295 OA
ENDROOT
BRANCH   3   7
ATOM      7  C   UNL     1       1.619   0.499  -1.773  0.00  0.00    -0.026 A 
ATOM      8  C   UNL     1       2.742   0.847  -1.047  0.00  0.00    +0.007 A 
ATOM      9  C   UNL     1       3.628   1.782  -1.548  0.00  0.00    +0.020 A 
ATOM     10  C   UNL     1       3.391   2.369  -2.778  0.00  0.00    +0.041 A 
ATOM     11  C   UNL     1       2.267   2.020  -3.505  0.00  0.00    +0.020 A 
ATOM     12  C   UNL     1       1.384   1.081  -3.005  0.00  0.00    +0.007 A 
ATOM     13 CL   UNL     1       4.503   3.543  -3.409  0.00  0.00    -0.084 Cl
ENDBRANCH   3   7
BRANCH   4  14
ATOM     14  S   UNL     1       0.575  -3.202  -1.879  0.00  0.00    +0.036 S 
ATOM     15  O   UNL     1      -0.763  -3.372  -1.431  0.00  0.00    -0.158 OA
ATOM     16  O   UNL     1       0.865  -3.089  -3.265  0.00  0.00    -0.158 OA
BRANCH  14  17
ATOM     17  N   UNL     1       1.361  -4.576  -1.393  0.00  0.00    -0.194 NA
ATOM     18  H   UNL     1       1.886  -5.085  -2.030  0.00  0.00    +0.148 HD
BRANCH  17  19
ATOM     19  C   UNL     1       1.263  -5.023  -0.001  0.00  0.00    +0.110 C 
BRANCH  19  20
ATOM     20  C   UNL     1       1.745  -6.471   0.105  0.00  0.00    +0.052 C 
BRANCH  20  21
ATOM     21  C   UNL     1       1.644  -6.930   1.537  0.00  0.00    -0.046 A 
ATOM     22  C   UNL     1       2.711  -6.750   2.397  0.00  0.00    +0.003 A 
ATOM     23  C   UNL     1       2.619  -7.171   3.711  0.00  0.00    +0.000 A 
ATOM     24  C   UNL     1       1.459  -7.773   4.163  0.00  0.00    +0.000 A 
ATOM     25  C   UNL     1       0.392  -7.952   3.303  0.00  0.00    +0.000 A 
ATOM     26  C   UNL     1       0.483  -7.527   1.991  0.00  0.00    +0.003 A 
ENDBRANCH  20  21
ENDBRANCH  19  20
ENDBRANCH  17  19
ENDBRANCH  14  17
ENDBRANCH   4  14
TORSDOF 6
