REMARK  Name = ZINC49857896
REMARK  7 active torsions:
REMARK  status: ('A' for Active; 'I' for Inactive)
REMARK    1  A    between atoms: C_1  and  C_2
REMARK    2  A    between atoms: C_4  and  C_20
REMARK    3  A    between atoms: C_5  and  C_9
REMARK    4  A    between atoms: C_6  and  C_8
REMARK    5  A    between atoms: C_11  and  C_18
REMARK    6  A    between atoms: N_15  and  C_16
REMARK    7  A    between atoms: N_15  and  C_17
REMARK                            x       y       z     vdW  Elec       q    Type
REMARK                         _______ _______ _______ _____ _____    ______ ____
ROOT
ATOM      1  C   UNL     1       0.043  -4.257  -0.014  0.00  0.00    +0.002 A 
ATOM      2  C   UNL     1      -1.014  -4.984   0.535  0.00  0.00    +0.032 A 
ATOM      3  C   UNL     1      -0.944  -6.379   0.503  0.00  0.00    +0.092 A 
ATOM      4  C   UNL     1       0.182  -6.990  -0.078  0.00  0.00    +0.138 A 
ATOM      5  N   UNL     1       1.160  -6.257  -0.586  0.00  0.00    -0.238 NA
ATOM      6  C   UNL     1       1.121  -4.940  -0.576  0.00  0.00    +0.121 A 
ATOM      7  N   UNL     1       0.268  -8.370  -0.118  0.00  0.00    -0.320 N 
ATOM      8  C   UNL     1      -0.324  -9.109  -1.236  0.00  0.00    +0.130 C 
ATOM      9  C   UNL     1       0.951  -9.093   0.957  0.00  0.00    +0.130 C 
ENDROOT
BRANCH   1  14
ATOM     10  C   UNL     1      -0.059   1.501   0.019  0.00  0.00    +0.044 C 
ATOM     11  C   UNL     1      -0.032  -0.005   0.010  0.00  0.00    -0.050 A 
ATOM     12  C   UNL     1      -0.074  -0.688  -1.192  0.00  0.00    +0.007 A 
ATOM     13  C   UNL     1      -0.050  -2.068  -1.206  0.00  0.00    -0.042 A 
ATOM     14  C   UNL     1       0.017  -2.773  -0.006  0.00  0.00    -0.011 A 
ATOM     15  C   UNL     1       0.060  -2.080   1.202  0.00  0.00    -0.042 A 
ATOM     16  C   UNL     1       0.040  -0.700   1.204  0.00  0.00    +0.007 A 
ATOM     17  C   UNL     1       0.132  -2.836   2.504  0.00  0.00    +0.044 C 
ATOM     18  C   UNL     1      -0.097  -2.811  -2.516  0.00  0.00    +0.044 C 
ENDBRANCH   1  14
BRANCH   3  19
ATOM     19  C   UNL     1      -2.001  -7.173   1.052  0.00  0.00    +0.103 C 
ATOM     20  N   UNL     1      -2.840  -7.804   1.488  0.00  0.00    -0.191 NA
ENDBRANCH   3  19
TORSDOF 2
