REMARK  Name = ZINC45290259
REMARK  8 active torsions:
REMARK  status: ('A' for Active; 'I' for Inactive)
REMARK    1  A    between atoms: C_1  and  C_2
REMARK    2  A    between atoms: C_5  and  C_12
REMARK    3  A    between atoms: C_14  and  O_18
REMARK    4  A    between atoms: O_18  and  C_19
REMARK    5  A    between atoms: C_19  and  C_20
REMARK    6  A    between atoms: C_20  and  C_22
REMARK    7  A    between atoms: C_20  and  N_32
REMARK    8  A    between atoms: C_22  and  C_23
REMARK                            x       y       z     vdW  Elec       q    Type
REMARK                         _______ _______ _______ _____ _____    ______ ____
ROOT
ATOM      1  C   UNL     1      -0.002  -1.427  -4.859  0.00  0.00    +0.022 A 
ATOM      2  C   UNL     1      -0.102  -2.499  -5.748  0.00  0.00    +0.058 A 
ATOM      3  C   UNL     1      -0.108  -2.225  -7.110  0.00  0.00    +0.139 A 
ATOM      4  C   UNL     1      -0.015  -0.907  -7.536  0.00  0.00    +0.156 A 
ATOM      5  N   UNL     1       0.079   0.081  -6.667  0.00  0.00    -0.259 NA
ATOM      6  C   UNL     1       0.082  -0.133  -5.367  0.00  0.00    +0.121 A 
ENDROOT
BRANCH   1  11
ATOM      7  C   UNL     1      -0.018   1.503   0.010  0.00  0.00    +0.068 C 
ATOM      8  C   UNL     1       0.002  -0.004   0.002  0.00  0.00    +0.068 A 
ATOM      9  C   UNL     1       0.008  -0.822  -1.150  0.00  0.00    +0.026 A 
ATOM     10  C   UNL     1      -0.002  -0.579  -2.529  0.00  0.00    +0.040 A 
ATOM     11  C   UNL     1       0.009  -1.662  -3.394  0.00  0.00    +0.073 A 
ATOM     12  N   UNL     1       0.028  -2.911  -2.931  0.00  0.00    -0.253 NA
ATOM     13  C   UNL     1       0.038  -3.186  -1.646  0.00  0.00    +0.139 A 
ATOM     14  C   UNL     1       0.029  -2.161  -0.704  0.00  0.00    +0.084 A 
ATOM     15  N   UNL     1       0.035  -2.115   0.665  0.00  0.00    -0.275 N 
ATOM     16  H   UNL     1       0.049  -2.880   1.260  0.00  0.00    +0.189 HD
ATOM     17  N   UNL     1       0.023  -0.769   1.056  0.00  0.00    -0.178 NA
ENDBRANCH   1  11
BRANCH   3  18
ATOM     18  O   UNL     1      -0.203  -3.235  -8.015  0.00  0.00    -0.492 OA
BRANCH  18  19
ATOM     19  C   UNL     1      -0.202  -2.871  -9.396  0.00  0.00    +0.213 C 
BRANCH  19  20
ATOM     20  C   UNL     1      -0.316  -4.131 -10.256  0.00  0.00    -0.033 C 
BRANCH  20  21
ATOM     21  N   UNL     1      -1.619  -4.768 -10.023  0.00  0.00    +0.382 N 
ATOM     22  H   UNL     1      -1.693  -5.599 -10.590  0.00  0.00    -0.089 HD
ATOM     23  H   UNL     1      -1.702  -5.017  -9.048  0.00  0.00    -0.089 HD
ATOM     24  H   UNL     1      -2.356  -4.125 -10.270  0.00  0.00    -0.089 HD
ENDBRANCH  20  21
BRANCH  20  25
ATOM     25  C   UNL     1      -0.190  -3.754 -11.734  0.00  0.00    +0.025 C 
BRANCH  25  26
ATOM     26  C   UNL     1      -0.178  -5.005 -12.573  0.00  0.00    -0.011 A 
ATOM     27  C   UNL     1       1.025  -5.573 -12.950  0.00  0.00    +0.009 A 
ATOM     28  C   UNL     1       1.038  -6.721 -13.720  0.00  0.00    +0.042 A 
ATOM     29  C   UNL     1      -0.154  -7.305 -14.114  0.00  0.00    +0.161 A 
ATOM     30  C   UNL     1      -1.360  -6.738 -13.737  0.00  0.00    +0.194 A 
ATOM     31  C   UNL     1      -1.372  -5.589 -12.960  0.00  0.00    +0.164 A 
ATOM     32  F   UNL     1      -2.547  -5.038 -12.586  0.00  0.00    -0.202 F 
ATOM     33  F   UNL     1      -2.524  -7.306 -14.121  0.00  0.00    -0.199 F 
ATOM     34  F   UNL     1      -0.140  -8.427 -14.867  0.00  0.00    -0.202 F 
ENDBRANCH  25  26
ENDBRANCH  20  25
ENDBRANCH  19  20
ENDBRANCH  18  19
ENDBRANCH   3  18
TORSDOF 7
