REMARK  Name = ZINC38288353
REMARK  7 active torsions:
REMARK  status: ('A' for Active; 'I' for Inactive)
REMARK    1  A    between atoms: C_1  and  C_2
REMARK    2  A    between atoms: C_5  and  C_22
REMARK    3  A    between atoms: C_6  and  C_7
REMARK    4  A    between atoms: C_6  and  C_8
REMARK    5  A    between atoms: N_11  and  O_12
REMARK    6  A    between atoms: O_12  and  C_13
REMARK    7  A    between atoms: C_13  and  C_15
REMARK                            x       y       z     vdW  Elec       q    Type
REMARK                         _______ _______ _______ _____ _____    ______ ____
ROOT
ATOM      1  C   UNL     1      -0.019   1.526   0.010  0.00  0.00    +0.018 C 
ATOM      2  C   UNL     1       0.002  -0.004   0.002  0.00  0.00    +0.015 C 
ATOM      3  C   UNL     1      -1.390  -0.703   0.064  0.00  0.00    +0.014 C 
ATOM      4  C   UNL     1      -1.085  -2.137   0.556  0.00  0.00    +0.018 C 
ATOM      5  C   UNL     1       0.465  -2.165   0.735  0.00  0.00    +0.058 C 
ATOM      6  C   UNL     1       0.727  -0.692   1.212  0.00  0.00    -0.010 C 
ATOM      7  C   UNL     1       0.040  -0.388   2.544  0.00  0.00    +0.013 C 
ATOM      8  C   UNL     1       2.220  -0.359   1.253  0.00  0.00    +0.013 C 
ATOM      9  C   UNL     1       1.022  -2.089  -0.720  0.00  0.00    +0.071 C 
ATOM     10  C   UNL     1       0.731  -0.657  -1.181  0.00  0.00    +0.066 C 
ATOM     11  N   UNL     1       1.011  -0.123  -2.310  0.00  0.00    -0.083 NA
ENDROOT
BRANCH   5  12
ATOM     12  C   UNL     1       1.010  -3.261   1.613  0.00  0.00    +0.218 C 
ATOM     13  O   UNL     1       1.627  -2.982   2.619  0.00  0.00    -0.275 OA
ATOM     14  N   UNL     1       0.811  -4.553   1.282  0.00  0.00    -0.329 N 
ATOM     15  H   UNL     1       0.317  -4.776   0.477  0.00  0.00    +0.145 HD
ATOM     16  H   UNL     1       1.162  -5.258   1.847  0.00  0.00    +0.145 HD
ENDBRANCH   5  12
BRANCH  11  17
ATOM     17  O   UNL     1       1.693  -0.874  -3.298  0.00  0.00    -0.312 OA
BRANCH  17  18
ATOM     18  C   UNL     1       1.927  -0.195  -4.438  0.00  0.00    +0.366 C 
ATOM     19  O   UNL     1       1.558   0.958  -4.544  0.00  0.00    -0.243 OA
BRANCH  18  20
ATOM     20  C   UNL     1       2.630  -0.852  -5.557  0.00  0.00    +0.061 A 
ATOM     21  C   UNL     1       3.050  -2.179  -5.440  0.00  0.00    +0.016 A 
ATOM     22  C   UNL     1       3.706  -2.787  -6.489  0.00  0.00    +0.021 A 
ATOM     23  C   UNL     1       3.949  -2.084  -7.658  0.00  0.00    +0.041 A 
ATOM     24  C   UNL     1       3.535  -0.768  -7.781  0.00  0.00    +0.021 A 
ATOM     25  C   UNL     1       2.874  -0.150  -6.740  0.00  0.00    +0.016 A 
ATOM     26 CL   UNL     1       4.776  -2.856  -8.975  0.00  0.00    -0.084 Cl
ENDBRANCH  18  20
ENDBRANCH  17  18
ENDBRANCH  11  17
TORSDOF 4
