REMARK  Name = ZINC64137236
REMARK  5 active torsions:
REMARK  status: ('A' for Active; 'I' for Inactive)
REMARK    1  A    between atoms: C_1  and  N_2
REMARK    2  A    between atoms: C_10  and  C_12
REMARK    3  A    between atoms: N_26  and  C_27
REMARK    4  A    between atoms: C_27  and  C_28
REMARK    5  A    between atoms: C_29  and  C_30
REMARK                            x       y       z     vdW  Elec       q    Type
REMARK                         _______ _______ _______ _____ _____    ______ ____
ROOT
ATOM      1  C   UNL     1      -1.226  -0.651   2.032  0.00  0.00    +0.122 C 
ATOM      2  C   UNL     1      -1.196  -1.579   3.249  0.00  0.00    +0.127 C 
ATOM      3  C   UNL     1      -2.544  -1.415   3.943  0.00  0.00    -0.036 C 
ATOM      4  C   UNL     1      -2.281  -1.107   5.205  0.00  0.00    -0.001 A 
ATOM      5  C   UNL     1      -3.158  -0.913   6.372  0.00  0.00    +0.010 A 
ATOM      6  C   UNL     1      -2.541  -0.584   7.537  0.00  0.00    +0.001 A 
ATOM      7  C   UNL     1      -1.156  -0.429   7.658  0.00  0.00    +0.002 A 
ATOM      8  C   UNL     1      -0.275  -0.594   6.640  0.00  0.00    +0.026 A 
ATOM      9  C   UNL     1      -0.803  -0.948   5.365  0.00  0.00    +0.043 A 
ATOM     10  N   UNL     1      -0.181  -1.192   4.227  0.00  0.00    -0.376 N 
ATOM     11  C   UNL     1      -3.844  -1.513   3.181  0.00  0.00    +0.049 C 
ATOM     12  C   UNL     1      -3.677  -0.630   1.931  0.00  0.00    +0.089 C 
ATOM     13  N   UNL     1      -2.427  -0.962   1.241  0.00  0.00    -0.290 NA
ATOM     14  H   UNL     1       0.772  -1.125   4.060  0.00  0.00    +0.160 HD
ENDROOT
BRANCH   1  24
ATOM     15  C   UNL     1      -0.782  -3.124   0.110  0.00  0.00    +0.131 C 
ATOM     16  N   UNL     1       0.169  -2.302   0.861  0.00  0.00    -0.312 N 
ATOM     17  C   UNL     1       1.389  -2.730   1.403  0.00  0.00    +0.052 A 
ATOM     18  C   UNL     1       1.999  -3.979   1.379  0.00  0.00    +0.025 A 
ATOM     19  C   UNL     1       3.223  -4.166   1.993  0.00  0.00    +0.002 A 
ATOM     20  C   UNL     1       3.846  -3.111   2.633  0.00  0.00    +0.002 A 
ATOM     21  C   UNL     1       3.248  -1.866   2.662  0.00  0.00    +0.025 A 
ATOM     22  C   UNL     1       2.017  -1.668   2.047  0.00  0.00    +0.050 A 
ATOM     23  N   UNL     1       1.226  -0.516   1.944  0.00  0.00    -0.323 N 
ATOM     24  C   UNL     1       0.025  -0.877   1.181  0.00  0.00    +0.178 C 
ATOM     25  H   UNL     1       1.434   0.359   2.308  0.00  0.00    +0.148 HD
ENDBRANCH   1  24
BRANCH  13  26
ATOM     26  C   UNL     1      -2.368  -0.322  -0.080  0.00  0.00    +0.112 C 
BRANCH  26  27
ATOM     27  C   UNL     1      -3.552  -0.759  -0.903  0.00  0.00    -0.008 C 
ATOM     28  C   UNL     1      -4.362   0.150  -1.438  0.00  0.00    +0.043 C 
BRANCH  28  29
ATOM     29  C   UNL     1      -5.517  -0.277  -2.242  0.00  0.00    +0.127 A 
ATOM     30  C   UNL     1      -6.418   0.547  -2.848  0.00  0.00    +0.049 A 
ATOM     31  C   UNL     1      -7.348  -0.283  -3.503  0.00  0.00    +0.042 A 
ATOM     32  C   UNL     1      -6.975  -1.557  -3.270  0.00  0.00    +0.195 A 
ATOM     33  O   UNL     1      -5.866  -1.550  -2.512  0.00  0.00    -0.464 OA
ENDBRANCH  28  29
ENDBRANCH  26  27
ENDBRANCH  13  26
TORSDOF 4
