REMARK  Name = ZINC40570127
REMARK  11 active torsions:
REMARK  status: ('A' for Active; 'I' for Inactive)
REMARK    1  A    between atoms: C_1  and  N_2
REMARK    2  A    between atoms: C_7  and  C_24
REMARK    3  A    between atoms: C_9  and  N_23
REMARK    4  A    between atoms: C_10  and  C_14
REMARK    5  A    between atoms: N_16  and  C_17
REMARK    6  A    between atoms: C_26  and  O_34
REMARK    7  A    between atoms: C_27  and  O_32
REMARK    8  A    between atoms: C_29  and  O_30
REMARK    9  A    between atoms: O_30  and  C_31
REMARK   10  A    between atoms: O_32  and  C_33
REMARK   11  A    between atoms: O_34  and  C_35
REMARK                            x       y       z     vdW  Elec       q    Type
REMARK                         _______ _______ _______ _____ _____    ______ ____
ROOT
ATOM      1  C   UNL     1      -0.046   1.467   0.038  0.00  0.00    +0.105 C 
ATOM      2  N   UNL     1      -0.025  -0.002   0.029  0.00  0.00    -0.301 NA
ATOM      3  C   UNL     1      -1.391  -0.548  -0.024  0.00  0.00    +0.090 C 
ATOM      4  C   UNL     1      -1.306  -2.027  -0.401  0.00  0.00    +0.069 C 
ATOM      5  C   UNL     1      -0.315  -2.731   0.492  0.00  0.00    +0.023 A 
ATOM      6  C   UNL     1       0.616  -2.030   1.231  0.00  0.00    -0.006 A 
ATOM      7  C   UNL     1       1.521  -2.716   2.040  0.00  0.00    +0.003 A 
ATOM      8  C   UNL     1       1.465  -4.140   2.094  0.00  0.00    +0.035 A 
ATOM      9  C   UNL     1       2.294  -5.055   2.857  0.00  0.00    +0.054 A 
ATOM     10  C   UNL     1       2.048  -6.408   2.748  0.00  0.00    +0.097 A 
ATOM     11  S   UNL     1       0.684  -6.486   1.605  0.00  0.00    -0.064 S 
ATOM     12  C   UNL     1       0.470  -4.750   1.299  0.00  0.00    +0.088 A 
ATOM     13  N   UNL     1      -0.357  -4.054   0.551  0.00  0.00    -0.352 N 
ATOM     14  C   UNL     1       0.686  -0.525   1.199  0.00  0.00    +0.121 C 
ATOM     15  H   UNL     1      -1.021  -4.525   0.025  0.00  0.00    +0.166 HD
ENDROOT
BRANCH   7  16
ATOM     16  C   UNL     1       2.526  -1.975   2.833  0.00  0.00    +0.029 A 
ATOM     17  C   UNL     1       2.228  -1.564   4.133  0.00  0.00    +0.061 A 
ATOM     18  C   UNL     1       3.170  -0.873   4.870  0.00  0.00    +0.162 A 
ATOM     19  C   UNL     1       4.418  -0.586   4.318  0.00  0.00    +0.165 A 
ATOM     20  C   UNL     1       4.718  -0.992   3.027  0.00  0.00    +0.095 A 
ATOM     21  C   UNL     1       3.782  -1.690   2.283  0.00  0.00    +0.131 A 
BRANCH  21  22
ATOM     22  O   UNL     1       4.079  -2.092   1.020  0.00  0.00    -0.494 OA
ATOM     23  C   UNL     1       5.379  -1.766   0.524  0.00  0.00    +0.277 C 
ENDBRANCH  21  22
BRANCH  19  24
ATOM     24  O   UNL     1       5.341   0.094   5.047  0.00  0.00    -0.491 OA
ATOM     25  C   UNL     1       6.598   0.355   4.420  0.00  0.00    +0.277 C 
ENDBRANCH  19  24
BRANCH  18  26
ATOM     26  O   UNL     1       2.880  -0.472   6.138  0.00  0.00    -0.491 OA
ATOM     27  C   UNL     1       1.584  -0.799   6.641  0.00  0.00    +0.277 C 
ENDBRANCH  18  26
ENDBRANCH   7  16
BRANCH  10  28
ATOM     28  C   UNL     1       2.719  -7.477   3.389  0.00  0.00    +0.257 C 
ATOM     29  O   UNL     1       3.643  -7.248   4.149  0.00  0.00    -0.269 OA
ATOM     30  N   UNL     1       2.336  -8.748   3.158  0.00  0.00    -0.281 N 
ATOM     31  H   UNL     1       1.559  -8.928   2.606  0.00  0.00    +0.155 HD
BRANCH  30  32
ATOM     32  C   UNL     1       3.059  -9.808   3.714  0.00  0.00    +0.034 A 
ATOM     33  C   UNL     1       3.627  -9.678   4.974  0.00  0.00    +0.023 A 
ATOM     34  C   UNL     1       4.340 -10.727   5.521  0.00  0.00    +0.002 A 
ATOM     35  C   UNL     1       4.489 -11.906   4.814  0.00  0.00    +0.000 A 
ATOM     36  C   UNL     1       3.924 -12.040   3.559  0.00  0.00    +0.002 A 
ATOM     37  C   UNL     1       3.205 -10.996   3.009  0.00  0.00    +0.023 A 
ENDBRANCH  30  32
ENDBRANCH  10  28
BRANCH   9  38
ATOM     38  N   UNL     1       3.309  -4.580   3.677  0.00  0.00    -0.356 N 
ATOM     39  H   UNL     1       3.472  -3.626   3.745  0.00  0.00    +0.142 HD
ATOM     40  H   UNL     1       3.856  -5.202   4.182  0.00  0.00    +0.142 HD
ENDBRANCH   9  38
TORSDOF 7
