REMARK  Name = ZINC40752373
REMARK  6 active torsions:
REMARK  status: ('A' for Active; 'I' for Inactive)
REMARK    1  A    between atoms: C_1  and  C_2
REMARK    2  A    between atoms: C_9  and  O_12
REMARK    3  A    between atoms: O_12  and  C_13
REMARK    4  A    between atoms: C_14  and  N_32
REMARK    5  A    between atoms: C_15  and  N_19
REMARK    6  A    between atoms: N_22  and  C_25
REMARK                            x       y       z     vdW  Elec       q    Type
REMARK                         _______ _______ _______ _____ _____    ______ ____
ROOT
ATOM      1  C   UNL     1      -0.010  -2.680   4.756  0.00  0.00    +0.246 A 
ATOM      2  C   UNL     1      -0.130  -2.026   5.982  0.00  0.00    +0.128 A 
ATOM      3  C   UNL     1      -0.238  -2.804   7.137  0.00  0.00    +0.149 A 
ATOM      4  N   UNL     1      -0.223  -4.129   7.025  0.00  0.00    -0.219 NA
ATOM      5  C   UNL     1      -0.108  -4.707   5.847  0.00  0.00    +0.227 A 
ATOM      6  N   UNL     1      -0.009  -4.010   4.733  0.00  0.00    -0.199 NA
ENDROOT
BRANCH   3   7
ATOM      7  N   UNL     1      -0.360  -2.202   8.384  0.00  0.00    -0.311 N 
ATOM      8  C   UNL     1      -1.676  -1.789   8.890  0.00  0.00    +0.125 C 
ATOM      9  C   UNL     1      -1.903  -2.446  10.258  0.00  0.00    +0.124 C 
ATOM     10  N   UNL     1      -0.717  -2.211  11.094  0.00  0.00    -0.327 N 
ATOM     11  C   UNL     1       0.599  -2.624  10.587  0.00  0.00    +0.124 C 
ATOM     12  C   UNL     1       0.826  -1.973   9.222  0.00  0.00    +0.125 C 
BRANCH  10  13
ATOM     13  C   UNL     1      -0.839  -1.606  12.348  0.00  0.00    +0.030 A 
ATOM     14  C   UNL     1       0.298  -1.274  13.074  0.00  0.00    +0.026 A 
ATOM     15  C   UNL     1       0.175  -0.676  14.313  0.00  0.00    +0.040 A 
ATOM     16  C   UNL     1      -1.080  -0.407  14.831  0.00  0.00    +0.124 A 
ATOM     17  C   UNL     1      -2.215  -0.737  14.110  0.00  0.00    +0.040 A 
ATOM     18  C   UNL     1      -2.097  -1.331  12.868  0.00  0.00    +0.026 A 
ATOM     19  F   UNL     1      -1.198   0.178  16.043  0.00  0.00    -0.205 F 
ENDBRANCH  10  13
ENDBRANCH   3   7
BRANCH   2  20
ATOM     20  N   UNL     1      -0.141  -0.624   6.052  0.00  0.00    -0.351 N 
ATOM     21  H   UNL     1      -0.138  -0.097   5.238  0.00  0.00    +0.143 HD
ATOM     22  H   UNL     1      -0.152  -0.182   6.916  0.00  0.00    +0.143 HD
ENDBRANCH   2  20
BRANCH   1  23
ATOM     23  O   UNL     1       0.097  -1.971   3.605  0.00  0.00    -0.434 OA
BRANCH  23  32
ATOM     24  C   UNL     1      -4.700  -2.985   2.660  0.00  0.00    +0.065 C 
ATOM     25  C   UNL     1      -3.408  -3.281   1.943  0.00  0.00    +0.039 A 
ATOM     26  C   UNL     1      -3.445  -3.988   0.743  0.00  0.00    +0.023 A 
ATOM     27  C   UNL     1      -2.284  -4.266   0.080  0.00  0.00    +0.012 A 
ATOM     28  C   UNL     1      -1.074  -3.819   0.643  0.00  0.00    +0.004 A 
ATOM     29  C   UNL     1       0.159  -4.066   0.018  0.00  0.00    +0.010 A 
ATOM     30  C   UNL     1       1.310  -3.618   0.593  0.00  0.00    +0.004 A 
ATOM     31  C   UNL     1       1.284  -2.916   1.795  0.00  0.00    +0.048 A 
ATOM     32  C   UNL     1       0.104  -2.657   2.432  0.00  0.00    +0.156 A 
ATOM     33  C   UNL     1      -1.109  -3.105   1.866  0.00  0.00    +0.113 A 
ATOM     34  N   UNL     1      -2.279  -2.862   2.462  0.00  0.00    -0.248 NA
ENDBRANCH  23  32
ENDBRANCH   1  23
TORSDOF 5
