REMARK  Name = ZINC05323315
REMARK  6 active torsions:
REMARK  status: ('A' for Active; 'I' for Inactive)
REMARK    1  A    between atoms: C_6  and  C_7
REMARK    2  A    between atoms: C_7  and  C_8
REMARK    3  A    between atoms: C_16  and  C_18
REMARK    4  A    between atoms: C_18  and  O_19
REMARK    5  A    between atoms: C_21  and  C_24
REMARK    6  A    between atoms: C_24  and  O_25
REMARK                            x       y       z     vdW  Elec       q    Type
REMARK                         _______ _______ _______ _____ _____    ______ ____
ROOT
ATOM      1  C   UNL     1      -1.297  -0.768   0.010  0.00  0.00    +0.070 C 
ENDROOT
BRANCH   1   7
ATOM      2  C   UNL     1      -0.017   1.383   0.010  0.00  0.00    +0.006 A 
ATOM      3  C   UNL     1       1.162   2.098   0.002  0.00  0.00    +0.028 A 
ATOM      4  C   UNL     1       2.375   1.424  -0.013  0.00  0.00    +0.066 A 
ATOM      5  C   UNL     1       2.394   0.018  -0.021  0.00  0.00    +0.089 A 
ATOM      6  C   UNL     1       1.187  -0.685  -0.013  0.00  0.00    +0.033 A 
ATOM      7  C   UNL     1       0.002  -0.004   0.002  0.00  0.00    -0.041 A 
ATOM      8  N   UNL     1       3.698  -0.360  -0.035  0.00  0.00    -0.230 NA
ATOM      9  C   UNL     1       4.459   0.695  -0.037  0.00  0.00    +0.134 A 
ATOM     10  N   UNL     1       3.697   1.822  -0.024  0.00  0.00    -0.340 N 
ATOM     11  H   UNL     1       4.022   2.736  -0.022  0.00  0.00    +0.167 HD
BRANCH   9  12
ATOM     12  C   UNL     1       5.966   0.672  -0.052  0.00  0.00    +0.229 C 
BRANCH  12  13
ATOM     13  O   UNL     1       6.463   2.012  -0.049  0.00  0.00    -0.387 OA
ATOM     14  H   UNL     1       7.428   2.074  -0.058  0.00  0.00    +0.210 HD
ENDBRANCH  12  13
ENDBRANCH   9  12
ENDBRANCH   1   7
BRANCH   1  15
ATOM     15  C   UNL     1      -1.744  -1.015  -1.408  0.00  0.00    -0.041 A 
ATOM     16  C   UNL     1      -2.554  -0.086  -2.047  0.00  0.00    +0.006 A 
ATOM     17  C   UNL     1      -2.969  -0.292  -3.332  0.00  0.00    +0.030 A 
ATOM     18  C   UNL     1      -2.577  -1.446  -4.014  0.00  0.00    +0.089 A 
ATOM     19  C   UNL     1      -1.757  -2.386  -3.368  0.00  0.00    +0.067 A 
ATOM     20  C   UNL     1      -1.340  -2.158  -2.063  0.00  0.00    +0.031 A 
ATOM     21  N   UNL     1      -1.544  -3.399  -4.282  0.00  0.00    -0.340 N 
ATOM     22  H   UNL     1      -1.016  -4.200  -4.140  0.00  0.00    +0.167 HD
ATOM     23  C   UNL     1      -2.214  -3.065  -5.418  0.00  0.00    +0.134 A 
ATOM     24  N   UNL     1      -2.818  -1.924  -5.262  0.00  0.00    -0.230 NA
BRANCH  23  25
ATOM     25  C   UNL     1      -2.250  -3.897  -6.674  0.00  0.00    +0.229 C 
BRANCH  25  26
ATOM     26  O   UNL     1      -1.475  -5.082  -6.484  0.00  0.00    -0.387 OA
ATOM     27  H   UNL     1      -1.453  -5.667  -7.254  0.00  0.00    +0.210 HD
ENDBRANCH  25  26
ENDBRANCH  23  25
ENDBRANCH   1  15
TORSDOF 6
