REMARK  Name = ZINC42028803
REMARK  3 active torsions:
REMARK  status: ('A' for Active; 'I' for Inactive)
REMARK    1  A    between atoms: C_4  and  C_8
REMARK    2  A    between atoms: C_6  and  N_7
REMARK    3  A    between atoms: N_12  and  C_13
REMARK                            x       y       z     vdW  Elec       q    Type
REMARK                         _______ _______ _______ _____ _____    ______ ____
ROOT
ATOM      1  C   UNL     1       3.705  -0.677   0.004  0.00  0.00    +0.188 A 
ATOM      2  N   UNL     1       3.881  -1.981   0.064  0.00  0.00    -0.108 NA
ATOM      3  N   UNL     1       5.128  -2.271  -0.029  0.00  0.00    -0.022 NA
ATOM      4  N   UNL     1       5.835  -1.201  -0.153  0.00  0.00    -0.039 NA
ATOM      5  N   UNL     1       4.940  -0.117  -0.142  0.00  0.00    -0.190 N 
ENDROOT
BRANCH   5   6
ATOM      6  C   UNL     1       5.250   1.246  -0.256  0.00  0.00    +0.106 A 
ATOM      7  C   UNL     1       4.705   2.160   0.635  0.00  0.00    +0.046 A 
ATOM      8  C   UNL     1       5.012   3.503   0.521  0.00  0.00    +0.020 A 
ATOM      9  C   UNL     1       5.863   3.937  -0.480  0.00  0.00    +0.018 A 
ATOM     10  C   UNL     1       6.408   3.030  -1.369  0.00  0.00    +0.041 A 
ATOM     11  C   UNL     1       6.110   1.684  -1.257  0.00  0.00    +0.149 A 
ATOM     12  F   UNL     1       6.647   0.797  -2.123  0.00  0.00    -0.203 F 
ATOM     13 BR   UNL     1       4.268   4.748   1.734  0.00  0.00    -0.050 Br
ENDBRANCH   5   6
BRANCH   1  17
ATOM     14  C   UNL     1      -0.009   1.387   0.218  0.00  0.00    +0.024 A 
ATOM     15  C   UNL     1       0.290   0.406   1.145  0.00  0.00    +0.022 A 
ATOM     16  C   UNL     1       1.494  -0.268   1.080  0.00  0.00    +0.052 A 
ATOM     17  C   UNL     1       2.414   0.043   0.076  0.00  0.00    +0.041 A 
ATOM     18  C   UNL     1       2.112   1.032  -0.858  0.00  0.00    +0.035 A 
ATOM     19  C   UNL     1       0.900   1.702  -0.784  0.00  0.00    +0.025 A 
ATOM     20 CL   UNL     1       1.864  -1.499   2.247  0.00  0.00    -0.083 Cl
BRANCH  19  21
ATOM     21  N   UNL     1       0.593   2.695  -1.719  0.00  0.00    -0.358 N 
ATOM     22  H   UNL     1      -0.254   3.164  -1.668  0.00  0.00    +0.142 HD
ATOM     23  H   UNL     1       1.228   2.915  -2.419  0.00  0.00    +0.142 HD
ENDBRANCH  19  21
ENDBRANCH   1  17
TORSDOF 3
