REMARK  Name = ZINC16133832
REMARK  5 active torsions:
REMARK  status: ('A' for Active; 'I' for Inactive)
REMARK    1  A    between atoms: C_3  and  C_10
REMARK    2  A    between atoms: C_5  and  N_7
REMARK    3  A    between atoms: C_10  and  O_12
REMARK    4  A    between atoms: O_12  and  N_13
REMARK    5  A    between atoms: C_14  and  C_15
REMARK                            x       y       z     vdW  Elec       q    Type
REMARK                         _______ _______ _______ _____ _____    ______ ____
ROOT
ATOM      1  O   UNL     1       3.642   3.505  -0.015  0.00  0.00    -0.310 OA
ENDROOT
BRANCH   1   2
ATOM      2  N   UNL     1       4.929   4.095  -0.024  0.00  0.00    -0.059 NA
ATOM      3  C   UNL     1       5.051   5.391  -0.019  0.00  0.00    +0.163 C 
ATOM      4  N   UNL     1       3.923   6.192  -0.004  0.00  0.00    -0.340 N 
ATOM      5  H   UNL     1       3.041   5.788   0.002  0.00  0.00    +0.144 HD
ATOM      6  H   UNL     1       4.014   7.158  -0.000  0.00  0.00    +0.144 HD
BRANCH   3   7
ATOM      7  C   UNL     1       6.396   6.008  -0.029  0.00  0.00    +0.018 A 
ATOM      8  C   UNL     1       7.535   5.203  -0.050  0.00  0.00    +0.012 A 
ATOM      9  C   UNL     1       8.787   5.784  -0.060  0.00  0.00    +0.016 A 
ATOM     10  C   UNL     1       8.913   7.162  -0.049  0.00  0.00    +0.018 A 
ATOM     11  C   UNL     1       7.786   7.966  -0.028  0.00  0.00    +0.016 A 
ATOM     12  C   UNL     1       6.530   7.397  -0.023  0.00  0.00    +0.012 A 
ATOM     13 BR   UNL     1      10.632   7.950  -0.061  0.00  0.00    -0.050 Br
ENDBRANCH   3   7
ENDBRANCH   1   2
BRANCH   1  14
ATOM     14  C   UNL     1       3.656   2.159  -0.022  0.00  0.00    +0.366 C 
ATOM     15  O   UNL     1       4.715   1.563  -0.035  0.00  0.00    -0.243 OA
BRANCH  14  18
ATOM     16  C   UNL     1      -0.017   1.379   0.010  0.00  0.00    +0.003 A 
ATOM     17  C   UNL     1       1.167   2.088   0.002  0.00  0.00    +0.015 A 
ATOM     18  C   UNL     1       2.385   1.407  -0.013  0.00  0.00    +0.063 A 
ATOM     19  C   UNL     1       2.397   0.010  -0.021  0.00  0.00    +0.047 A 
ATOM     20  C   UNL     1       1.206  -0.686  -0.013  0.00  0.00    +0.127 A 
ATOM     21  C   UNL     1       0.002  -0.004   0.002  0.00  0.00    +0.033 A 
BRANCH  20  22
ATOM     22  N   UNL     1       1.216  -2.166  -0.021  0.00  0.00    +0.056 N 
ATOM     23  O   UNL     1       2.268  -2.763  -0.034  0.00  0.00    -0.126 OA
ATOM     24  O   UNL     1       0.174  -2.778  -0.014  0.00  0.00    -0.126 OA
ENDBRANCH  20  22
ENDBRANCH  14  18
ENDBRANCH   1  14
TORSDOF 5
