REMARK  Name = ZINC11297974
REMARK  9 active torsions:
REMARK  status: ('A' for Active; 'I' for Inactive)
REMARK    1  A    between atoms: C_1  and  C_2
REMARK    2  A    between atoms: C_7  and  N_8
REMARK    3  A    between atoms: C_9  and  C_28
REMARK    4  A    between atoms: C_11  and  C_14
REMARK    5  A    between atoms: C_12  and  C_13
REMARK    6  A    between atoms: C_15  and  C_16
REMARK    7  A    between atoms: C_15  and  C_18
REMARK    8  A    between atoms: N_24  and  C_25
REMARK    9  A    between atoms: N_24  and  C_26
REMARK                            x       y       z     vdW  Elec       q    Type
REMARK                         _______ _______ _______ _____ _____    ______ ____
ROOT
ATOM      1  C   UNL     1       3.539   3.487  -0.013  0.00  0.00    +0.032 C 
ATOM      2  C   UNL     1       3.555   2.167  -0.402  0.00  0.00    +0.097 C 
ENDROOT
BRANCH   2   3
ATOM      3  C   UNL     1       2.285   1.456  -0.653  0.00  0.00    +0.177 A 
ATOM      4  N   UNL     1       1.124   2.092  -0.503  0.00  0.00    -0.194 NA
ATOM      5  C   UNL     1      -0.018   1.451  -0.729  0.00  0.00    +0.217 A 
ATOM      6  N   UNL     1      -0.002   0.175  -1.105  0.00  0.00    -0.181 NA
ATOM      7  C   UNL     1       1.156  -0.460  -1.255  0.00  0.00    +0.222 A 
ATOM      8  N   UNL     1       2.300   0.178  -1.030  0.00  0.00    -0.194 NA
ATOM      9  N   UNL     1       1.170  -1.784  -1.645  0.00  0.00    -0.306 N 
ATOM     10  C   UNL     1      -0.090  -2.489  -1.893  0.00  0.00    +0.132 C 
ATOM     11  C   UNL     1       2.446  -2.485  -1.811  0.00  0.00    +0.132 C 
ATOM     12  N   UNL     1      -1.221   2.111  -0.579  0.00  0.00    -0.327 N 
ATOM     13  H   UNL     1      -2.054   1.644  -0.747  0.00  0.00    +0.145 HD
ATOM     14  H   UNL     1      -1.233   3.041  -0.304  0.00  0.00    +0.145 HD
ENDBRANCH   2   3
BRANCH   1  18
ATOM     15  N   UNL     1       6.263   5.881   0.273  0.00  0.00    -0.317 N 
ATOM     16  C   UNL     1       6.992   4.727   0.203  0.00  0.00    +0.022 A 
ATOM     17  C   UNL     1       6.155   3.682   0.090  0.00  0.00    +0.031 A 
ATOM     18  C   UNL     1       4.793   4.234   0.090  0.00  0.00    -0.003 A 
ATOM     19  C   UNL     1       4.939   5.605   0.202  0.00  0.00    +0.028 A 
ATOM     20  C   UNL     1       3.820   6.614   0.240  0.00  0.00    +0.064 C 
ATOM     21  C   UNL     1       8.496   4.639   0.245  0.00  0.00    +0.064 C 
BRANCH  15  28
ATOM     22  C   UNL     1       6.695   6.916   2.889  0.00  0.00    +0.046 C 
ATOM     23  C   UNL     1       7.035   7.709   1.653  0.00  0.00    -0.027 A 
ATOM     24  C   UNL     1       7.576   8.974   1.771  0.00  0.00    +0.005 A 
ATOM     25  C   UNL     1       7.884   9.704   0.638  0.00  0.00    +0.000 A 
ATOM     26  C   UNL     1       7.655   9.169  -0.617  0.00  0.00    +0.002 A 
ATOM     27  C   UNL     1       7.118   7.902  -0.741  0.00  0.00    +0.026 A 
ATOM     28  C   UNL     1       6.809   7.167   0.396  0.00  0.00    +0.049 A 
ENDBRANCH  15  28
ENDBRANCH   1  18
BRANCH   2  29
ATOM     29  C   UNL     1       4.803   1.483  -0.563  0.00  0.00    +0.103 C 
ATOM     30  N   UNL     1       5.793   0.940  -0.691  0.00  0.00    -0.191 NA
ENDBRANCH   2  29
TORSDOF 4
