REMARK  Name = ZINC36067251
REMARK  6 active torsions:
REMARK  status: ('A' for Active; 'I' for Inactive)
REMARK    1  A    between atoms: C_1  and  C_2
REMARK    2  A    between atoms: C_5  and  C_7
REMARK    3  A    between atoms: N_8  and  N_9
REMARK    4  A    between atoms: C_10  and  C_12
REMARK    5  A    between atoms: C_12  and  N_13
REMARK    6  A    between atoms: C_14  and  C_16
REMARK                            x       y       z     vdW  Elec       q    Type
REMARK                         _______ _______ _______ _____ _____    ______ ____
ROOT
ATOM      1  N   UNL     1       3.458  -1.723  -0.123  0.00  0.00    -0.206 N 
ATOM      2  C   UNL     1       4.773  -1.519  -0.331  0.00  0.00    +0.249 C 
ATOM      3  O   UNL     1       5.511  -2.463  -0.522  0.00  0.00    -0.272 OA
ATOM      4  H   UNL     1       2.868  -0.968   0.030  0.00  0.00    +0.177 HD
ENDROOT
BRANCH   1   6
ATOM      5  C   UNL     1       1.684  -3.227   0.137  0.00  0.00    +0.176 C 
ATOM      6  N   UNL     1       2.941  -3.025  -0.127  0.00  0.00    -0.185 NA
BRANCH   5  11
ATOM      7  C   UNL     1       0.279   1.327   1.677  0.00  0.00    +0.086 C 
ATOM      8  C   UNL     1       0.219  -0.121   1.266  0.00  0.00    +0.103 A 
ATOM      9  C   UNL     1      -0.896  -0.879   1.219  0.00  0.00    +0.045 A 
ATOM     10  C   UNL     1      -0.508  -2.160   0.786  0.00  0.00    +0.051 A 
ATOM     11  C   UNL     1       0.842  -2.116   0.590  0.00  0.00    +0.148 A 
ATOM     12  O   UNL     1       1.265  -0.869   0.881  0.00  0.00    -0.459 OA
ENDBRANCH   5  11
ENDBRANCH   1   6
BRANCH   2  13
ATOM     13  C   UNL     1       5.329  -0.118  -0.326  0.00  0.00    +0.202 C 
BRANCH  13  14
ATOM     14  N   UNL     1       6.772  -0.164  -0.573  0.00  0.00    -0.303 N 
ATOM     15  C   UNL     1       7.485   0.979  -0.614  0.00  0.00    +0.246 C 
ATOM     16  O   UNL     1       6.931   2.048  -0.445  0.00  0.00    -0.270 OA
ATOM     17  H   UNL     1       7.214  -1.016  -0.708  0.00  0.00    +0.150 HD
BRANCH  15  18
ATOM     18  C   UNL     1       8.941   0.933  -0.863  0.00  0.00    +0.051 A 
ATOM     19  C   UNL     1       9.580  -0.292  -1.063  0.00  0.00    +0.014 A 
ATOM     20  C   UNL     1      10.939  -0.329  -1.295  0.00  0.00    +0.001 A 
ATOM     21  C   UNL     1      11.670   0.846  -1.330  0.00  0.00    +0.001 A 
ATOM     22  C   UNL     1      11.045   2.063  -1.133  0.00  0.00    +0.016 A 
ATOM     23  C   UNL     1       9.684   2.115  -0.905  0.00  0.00    +0.030 A 
ATOM     24 BR   UNL     1       8.829   3.781  -0.643  0.00  0.00    -0.050 Br
ENDBRANCH  15  18
ENDBRANCH  13  14
ENDBRANCH   2  13
TORSDOF 5
