REMARK  Name = ZINC41585852
REMARK  9 active torsions:
REMARK  status: ('A' for Active; 'I' for Inactive)
REMARK    1  A    between atoms: C_1  and  C_2
REMARK    2  A    between atoms: C_4  and  O_36
REMARK    3  A    between atoms: C_5  and  C_23
REMARK    4  A    between atoms: C_11  and  C_12
REMARK    5  A    between atoms: C_15  and  C_18
REMARK    6  A    between atoms: C_18  and  C_19
REMARK    7  A    between atoms: C_18  and  C_20
REMARK    8  A    between atoms: C_18  and  C_21
REMARK    9  A    between atoms: C_23  and  N_24
REMARK                            x       y       z     vdW  Elec       q    Type
REMARK                         _______ _______ _______ _____ _____    ______ ____
ROOT
ATOM      1  C   UNL     1      -1.313   1.485   0.155  0.00  0.00    +0.045 C 
ATOM      2  C   UNL     1      -1.037   0.004   0.122  0.00  0.00    -0.033 A 
ATOM      3  C   UNL     1      -1.133  -0.684  -1.055  0.00  0.00    +0.050 A 
ATOM      4  C   UNL     1      -0.878  -2.052  -1.088  0.00  0.00    +0.125 A 
ATOM      5  C   UNL     1      -0.524  -2.731   0.067  0.00  0.00    +0.051 A 
ATOM      6  C   UNL     1      -0.421  -2.047   1.272  0.00  0.00    +0.148 A 
ATOM      7  C   UNL     1      -0.676  -0.666   1.291  0.00  0.00    +0.071 A 
ATOM      8  C   UNL     1      -0.483  -0.228   2.686  0.00  0.00    +0.232 C 
ATOM      9  O   UNL     1      -0.609   0.897   3.139  0.00  0.00    -0.283 OA
ATOM     10  C   UNL     1      -0.105  -1.453   3.408  0.00  0.00    +0.176 C 
ATOM     11  C   UNL     1       0.176  -1.549   4.731  0.00  0.00    +0.058 C 
ATOM     12  O   UNL     1      -0.099  -2.469   2.514  0.00  0.00    -0.451 OA
ENDROOT
BRANCH  11  13
ATOM     13  C   UNL     1       0.291  -0.332   5.548  0.00  0.00    -0.021 A 
ATOM     14  C   UNL     1      -0.181  -0.323   6.866  0.00  0.00    +0.008 A 
ATOM     15  C   UNL     1      -0.069   0.822   7.625  0.00  0.00    +0.005 A 
ATOM     16  C   UNL     1       0.507   1.961   7.088  0.00  0.00    -0.042 A 
ATOM     17  C   UNL     1       0.975   1.960   5.785  0.00  0.00    +0.005 A 
ATOM     18  C   UNL     1       0.877   0.821   5.014  0.00  0.00    +0.008 A 
BRANCH  16  19
ATOM     19  C   UNL     1       0.625   3.208   7.926  0.00  0.00    -0.013 C 
ATOM     20  C   UNL     1       1.471   2.912   9.165  0.00  0.00    +0.015 C 
ATOM     21  C   UNL     1       1.292   4.313   7.104  0.00  0.00    +0.015 C 
ATOM     22  C   UNL     1      -0.770   3.665   8.358  0.00  0.00    +0.015 C 
ENDBRANCH  16  19
ENDBRANCH  11  13
BRANCH   4  23
ATOM     23  O   UNL     1      -0.978  -2.726  -2.261  0.00  0.00    -0.506 OA
ATOM     24  H   UNL     1      -0.154  -2.759  -2.767  0.00  0.00    +0.292 HD
ENDBRANCH   4  23
BRANCH   5  25
ATOM     25  C   UNL     1      -0.252  -4.212   0.016  0.00  0.00    +0.127 C 
BRANCH  25  26
ATOM     26  N   UNL     1       1.173  -4.439  -0.260  0.00  0.00    -0.295 NA
ATOM     27  C   UNL     1       2.007  -3.960   0.851  0.00  0.00    +0.103 C 
ATOM     28  C   UNL     1       3.484  -4.047   0.450  0.00  0.00    +0.122 C 
ATOM     29  N   UNL     1       3.768  -5.420   0.006  0.00  0.00    -0.314 N 
ATOM     30  C   UNL     1       2.888  -6.019  -1.009  0.00  0.00    +0.122 C 
ATOM     31  C   UNL     1       1.434  -5.855  -0.551  0.00  0.00    +0.103 C 
ATOM     32  C   UNL     1       4.839  -6.133   0.532  0.00  0.00    +0.099 A 
ATOM     33  C   UNL     1       5.167  -7.376   0.000  0.00  0.00    +0.042 A 
ATOM     34  C   UNL     1       6.235  -8.075   0.533  0.00  0.00    +0.005 A 
ATOM     35  C   UNL     1       6.943  -7.504   1.583  0.00  0.00    +0.018 A 
ATOM     36  C   UNL     1       6.562  -6.267   2.061  0.00  0.00    +0.084 A 
ATOM     37  N   UNL     1       5.542  -5.620   1.530  0.00  0.00    -0.350 N 
ATOM     38  H   UNL     1       5.298  -4.750   1.882  0.00  0.00    +0.166 HD
ENDBRANCH  25  26
ENDBRANCH   5  25
TORSDOF 5
