REMARK  Name = ZINC00580320
REMARK  6 active torsions:
REMARK  status: ('A' for Active; 'I' for Inactive)
REMARK    1  A    between atoms: C_1  and  C_2
REMARK    2  A    between atoms: C_4  and  C_16
REMARK    3  A    between atoms: C_5  and  C_15
REMARK    4  A    between atoms: N_6  and  C_7
REMARK    5  A    between atoms: C_17  and  C_18
REMARK    6  A    between atoms: C_17  and  C_20
REMARK                            x       y       z     vdW  Elec       q    Type
REMARK                         _______ _______ _______ _____ _____    ______ ____
ROOT
ATOM      1  C   UNL     1       1.728   3.273  -0.468  0.00  0.00    +0.064 C 
ATOM      2  C   UNL     1       1.237   1.848  -0.460  0.00  0.00    +0.022 A 
ATOM      3  C   UNL     1       0.001   1.453  -0.113  0.00  0.00    +0.031 A 
ATOM      4  C   UNL     1      -0.024  -0.009  -0.254  0.00  0.00    -0.002 A 
ATOM      5  C   UNL     1       1.241  -0.370  -0.686  0.00  0.00    +0.028 A 
ATOM      6  N   UNL     1       1.979   0.753  -0.803  0.00  0.00    -0.317 N 
ATOM      7  C   UNL     1       1.711  -1.772  -0.976  0.00  0.00    +0.064 C 
ENDROOT
BRANCH   6   8
ATOM      8  C   UNL     1       3.318   0.791  -1.218  0.00  0.00    +0.048 A 
ATOM      9  C   UNL     1       3.659   1.421  -2.408  0.00  0.00    +0.029 A 
ATOM     10  C   UNL     1       4.978   1.458  -2.815  0.00  0.00    +0.042 A 
ATOM     11  C   UNL     1       5.961   0.868  -2.038  0.00  0.00    +0.142 A 
ATOM     12  C   UNL     1       5.623   0.238  -0.851  0.00  0.00    +0.078 A 
ATOM     13  C   UNL     1       4.304   0.204  -0.437  0.00  0.00    +0.049 A 
ATOM     14 CL   UNL     1       6.857  -0.501   0.121  0.00  0.00    -0.081 Cl
ATOM     15  F   UNL     1       7.251   0.904  -2.439  0.00  0.00    -0.204 F 
ENDBRANCH   6   8
BRANCH   4  16
ATOM     16  C   UNL     1      -1.153  -0.901   0.008  0.00  0.00    +0.039 C 
ATOM     17  C   UNL     1      -2.427  -0.384   0.127  0.00  0.00    +0.129 C 
BRANCH  17  18
ATOM     18  C   UNL     1      -3.549  -1.266   0.240  0.00  0.00    +0.110 C 
ATOM     19  N   UNL     1      -4.440  -1.966   0.330  0.00  0.00    -0.190 NA
ENDBRANCH  17  18
BRANCH  17  20
ATOM     20  C   UNL     1      -2.626   1.034   0.136  0.00  0.00    +0.110 C 
ATOM     21  N   UNL     1      -2.785   2.159   0.144  0.00  0.00    -0.190 NA
ENDBRANCH  17  20
ENDBRANCH   4  16
TORSDOF 4
