REMARK  Name = ZINC67430970
REMARK  6 active torsions:
REMARK  status: ('A' for Active; 'I' for Inactive)
REMARK    1  A    between atoms: C_1  and  O_2
REMARK    2  A    between atoms: O_2  and  C_3
REMARK    3  A    between atoms: C_8  and  C_9
REMARK    4  A    between atoms: N_11  and  N_12
REMARK    5  A    between atoms: C_13  and  C_15
REMARK    6  A    between atoms: C_18  and  C_21
REMARK                            x       y       z     vdW  Elec       q    Type
REMARK                         _______ _______ _______ _____ _____    ______ ____
ROOT
ATOM      1  N   UNL     1      -0.459  -4.947  -0.920  0.00  0.00    -0.231 N 
ATOM      2  C   UNL     1      -0.401  -6.293  -0.859  0.00  0.00    +0.273 C 
ATOM      3  O   UNL     1       0.158  -6.834   0.071  0.00  0.00    -0.270 OA
ATOM      4  H   UNL     1      -0.905  -4.514  -1.664  0.00  0.00    +0.173 HD
ENDROOT
BRANCH   2   5
ATOM      5  C   UNL     1      -1.029  -7.123  -1.948  0.00  0.00    +0.297 C 
ATOM      6  C   UNL     1      -0.263  -6.959  -3.282  0.00  0.00    +0.117 C 
ATOM      7  C   UNL     1       0.711  -8.121  -3.249  0.00  0.00    +0.098 C 
ATOM      8  N   UNL     1       0.318  -8.953  -2.336  0.00  0.00    -0.088 NA
ATOM      9  O   UNL     1      -0.864  -8.531  -1.683  0.00  0.00    -0.380 OA
BRANCH   7  10
ATOM     10  C   UNL     1       1.894  -8.277  -4.102  0.00  0.00    +0.038 A 
ATOM     11  C   UNL     1       2.819  -9.306  -4.132  0.00  0.00    +0.019 A 
ATOM     12  C   UNL     1       3.855  -9.228  -5.031  0.00  0.00    +0.028 A 
ATOM     13  C   UNL     1       3.939  -8.150  -5.858  0.00  0.00    +0.079 A 
ATOM     14  S   UNL     1       2.511  -7.192  -5.379  0.00  0.00    -0.075 S 
ATOM     15 CL   UNL     1       5.128  -7.799  -7.072  0.00  0.00    -0.076 Cl
ENDBRANCH   7  10
ENDBRANCH   2   5
BRANCH   1  18
ATOM     16  C   UNL     1       0.067  -2.830   0.032  0.00  0.00    +0.264 C 
ATOM     17  O   UNL     1      -0.492  -2.287  -0.900  0.00  0.00    -0.269 OA
ATOM     18  N   UNL     1       0.126  -4.175   0.092  0.00  0.00    -0.230 N 
ATOM     19  H   UNL     1       0.572  -4.608   0.837  0.00  0.00    +0.173 HD
BRANCH  16  25
ATOM     20  C   UNL     1       0.625  -0.617   1.040  0.00  0.00    +0.132 A 
ATOM     21  C   UNL     1       1.202   0.138   2.050  0.00  0.00    +0.046 A 
ATOM     22  C   UNL     1       1.835  -0.488   3.105  0.00  0.00    +0.004 A 
ATOM     23  C   UNL     1       1.900  -1.871   3.164  0.00  0.00    +0.001 A 
ATOM     24  C   UNL     1       1.332  -2.636   2.169  0.00  0.00    +0.017 A 
ATOM     25  C   UNL     1       0.683  -2.016   1.098  0.00  0.00    +0.080 A 
BRANCH  20  27
ATOM     26  C   UNL     1      -0.017   1.425   0.010  0.00  0.00    +0.277 C 
ATOM     27  O   UNL     1       0.002  -0.004   0.002  0.00  0.00    -0.494 OA
ENDBRANCH  20  27
ENDBRANCH  16  25
ENDBRANCH   1  18
TORSDOF 5
