REMARK  Name = ZINC06811854
REMARK  6 active torsions:
REMARK  status: ('A' for Active; 'I' for Inactive)
REMARK    1  A    between atoms: C_1  and  C_2
REMARK    2  A    between atoms: C_2  and  C_3
REMARK    3  A    between atoms: C_9  and  C_24
REMARK    4  A    between atoms: C_11  and  C_14
REMARK    5  A    between atoms: N_16  and  C_17
REMARK    6  A    between atoms: C_27  and  C_30
REMARK                            x       y       z     vdW  Elec       q    Type
REMARK                         _______ _______ _______ _____ _____    ______ ____
ROOT
ATOM      1  C   UNL     1       6.470  -0.638   0.036  0.00  0.00    +0.151 A 
ATOM      2  N   UNL     1       6.630  -1.079  -1.181  0.00  0.00    -0.132 NA
ATOM      3  N   UNL     1       5.574  -0.843  -1.881  0.00  0.00    -0.121 NA
ATOM      4  C   UNL     1       4.689  -0.236  -1.140  0.00  0.00    +0.209 A 
ATOM      5  N   UNL     1       5.221  -0.090   0.109  0.00  0.00    -0.225 N 
ATOM      6  N   UNL     1       4.626   0.476   1.191  0.00  0.00    -0.272 N 
ATOM      7  C   UNL     1       3.539   1.395   0.851  0.00  0.00    +0.140 C 
ATOM      8  C   UNL     1       2.443   0.663   0.066  0.00  0.00    +0.166 C 
ATOM      9  S   UNL     1       3.082   0.330  -1.604  0.00  0.00    -0.069 S 
ATOM     10  H   UNL     1       4.314  -0.229   1.842  0.00  0.00    +0.167 HD
ENDROOT
BRANCH   7  11
ATOM     11  C   UNL     1       2.951   1.956   2.121  0.00  0.00    -0.024 A 
ATOM     12  C   UNL     1       2.755   1.133   3.214  0.00  0.00    +0.006 A 
ATOM     13  C   UNL     1       2.221   1.649   4.380  0.00  0.00    +0.004 A 
ATOM     14  C   UNL     1       1.873   2.986   4.449  0.00  0.00    -0.050 A 
ATOM     15  C   UNL     1       2.064   3.807   3.354  0.00  0.00    +0.004 A 
ATOM     16  C   UNL     1       2.603   3.292   2.190  0.00  0.00    +0.006 A 
ATOM     17  C   UNL     1       1.286   3.547   5.718  0.00  0.00    +0.044 C 
ENDBRANCH   7  11
BRANCH   8  18
ATOM     18  C   UNL     1       1.213   1.529  -0.022  0.00  0.00    +0.233 C 
ATOM     19  O   UNL     1       1.325   2.733  -0.120  0.00  0.00    -0.274 OA
ATOM     20  N   UNL     1      -0.011   0.966   0.007  0.00  0.00    -0.282 N 
ATOM     21  H   UNL     1      -0.101   0.000   0.020  0.00  0.00    +0.155 HD
BRANCH  20  22
ATOM     22  C   UNL     1      -1.154   1.775   0.013  0.00  0.00    +0.069 A 
ATOM     23  C   UNL     1      -1.162   2.973  -0.688  0.00  0.00    +0.026 A 
ATOM     24  C   UNL     1      -2.291   3.769  -0.681  0.00  0.00    +0.002 A 
ATOM     25  C   UNL     1      -3.414   3.374   0.024  0.00  0.00    +0.003 A 
ATOM     26  C   UNL     1      -3.411   2.182   0.725  0.00  0.00    +0.040 A 
ATOM     27  C   UNL     1      -2.285   1.378   0.718  0.00  0.00    +0.144 A 
ATOM     28  F   UNL     1      -2.284   0.210   1.398  0.00  0.00    -0.204 F 
ENDBRANCH  20  22
ENDBRANCH   8  18
BRANCH   1  30
ATOM     29  C   UNL     1       7.278  -2.025   1.926  0.00  0.00    +0.012 C 
ATOM     30  C   UNL     1       7.476  -0.719   1.155  0.00  0.00    +0.074 C 
ENDBRANCH   1  30
TORSDOF 4
