REMARK  Name = ZINC28288157
REMARK  9 active torsions:
REMARK  status: ('A' for Active; 'I' for Inactive)
REMARK    1  A    between atoms: C_1  and  C_2
REMARK    2  A    between atoms: C_4  and  O_10
REMARK    3  A    between atoms: C_6  and  C_9
REMARK    4  A    between atoms: O_10  and  C_11
REMARK    5  A    between atoms: C_11  and  C_12
REMARK    6  A    between atoms: N_14  and  C_15
REMARK    7  A    between atoms: C_15  and  C_16
REMARK    8  A    between atoms: C_16  and  C_18
REMARK    9  A    between atoms: C_16  and  N_23
REMARK                            x       y       z     vdW  Elec       q    Type
REMARK                         _______ _______ _______ _____ _____    ______ ____
ROOT
ATOM      1  C   UNL     1       2.631   7.225  -2.554  0.00  0.00    +0.251 C 
ATOM      2  O   UNL     1       2.586   6.553  -3.563  0.00  0.00    -0.272 OA
ATOM      3  N   UNL     1       2.090   6.760  -1.411  0.00  0.00    -0.314 N 
ATOM      4  H   UNL     1       2.131   7.369  -0.496  0.00  0.00    +0.149 HD
ENDROOT
BRANCH   1   5
ATOM      5  C   UNL     1       3.294   8.578  -2.579  0.00  0.00    +0.324 C 
BRANCH   5   6
ATOM      6  O   UNL     1       3.787   8.844  -3.894  0.00  0.00    -0.483 OA
BRANCH   6  10
ATOM      7  C   UNL     1       6.105  11.915  -6.896  0.00  0.00    +0.045 C 
ATOM      8  C   UNL     1       5.559  11.564  -5.536  0.00  0.00    -0.028 A 
ATOM      9  C   UNL     1       4.919  10.355  -5.340  0.00  0.00    +0.050 A 
ATOM     10  C   UNL     1       4.416  10.032  -4.088  0.00  0.00    +0.122 A 
ATOM     11  C   UNL     1       4.551  10.927  -3.037  0.00  0.00    +0.050 A 
ATOM     12  C   UNL     1       5.196  12.133  -3.236  0.00  0.00    -0.028 A 
ATOM     13  C   UNL     1       5.697  12.452  -4.485  0.00  0.00    +0.047 A 
ATOM     14 CL   UNL     1       6.501  13.971  -4.734  0.00  0.00    -0.083 Cl
ATOM     15  C   UNL     1       5.348  13.102  -2.092  0.00  0.00    +0.045 C 
ENDBRANCH   6  10
ENDBRANCH   5   6
ENDBRANCH   1   5
BRANCH   3  16
ATOM     16  C   UNL     1       1.446   5.444  -1.387  0.00  0.00    +0.094 C 
BRANCH  16  17
ATOM     17  C   UNL     1       0.918   5.160   0.021  0.00  0.00    -0.013 C 
BRANCH  17  18
ATOM     18  N   UNL     1       2.013   5.294   0.990  0.00  0.00    +0.386 N 
ATOM     19  C   UNL     1       3.170   4.481   0.594  0.00  0.00    -0.078 C 
ATOM     20  C   UNL     1       4.338   4.756   1.543  0.00  0.00    -0.019 C 
ATOM     21  C   UNL     1       3.917   4.414   2.975  0.00  0.00    -0.004 C 
ATOM     22  C   UNL     1       2.682   5.239   3.346  0.00  0.00    -0.019 C 
ATOM     23  C   UNL     1       1.562   4.950   2.345  0.00  0.00    -0.078 C 
ATOM     24  H   UNL     1       2.331   6.347   1.000  0.00  0.00    -0.081 HD
ENDBRANCH  17  18
BRANCH  17  25
ATOM     25  C   UNL     1       0.366   3.759   0.077  0.00  0.00    -0.022 A 
ATOM     26  C   UNL     1      -0.924   3.353   0.176  0.00  0.00    +0.009 A 
ATOM     27  C   UNL     1      -1.200   1.999   0.206  0.00  0.00    +0.008 A 
ATOM     28  C   UNL     1      -0.172   1.117   0.146  0.00  0.00    +0.045 A 
ATOM     29  S   UNL     1       1.240   2.203   0.030  0.00  0.00    -0.103 S 
ENDBRANCH  17  25
ENDBRANCH  16  17
ENDBRANCH   3  16
TORSDOF 7
