REMARK  Name = ZINC02863576
REMARK  6 active torsions:
REMARK  status: ('A' for Active; 'I' for Inactive)
REMARK    1  A    between atoms: C_1  and  C_2
REMARK    2  A    between atoms: C_5  and  N_9
REMARK    3  A    between atoms: C_7  and  C_8
REMARK    4  A    between atoms: C_12  and  C_16
REMARK    5  A    between atoms: C_12  and  N_20
REMARK    6  A    between atoms: C_21  and  C_23
REMARK                            x       y       z     vdW  Elec       q    Type
REMARK                         _______ _______ _______ _____ _____    ______ ____
ROOT
ATOM      1  N   UNL     1       0.059  -4.172  -0.021  0.00  0.00    -0.191 N 
ATOM      2  C   UNL     1       0.178  -4.934   1.085  0.00  0.00    +0.279 C 
ATOM      3  O   UNL     1       0.285  -4.551   2.230  0.00  0.00    -0.270 OA
ATOM      4  C   UNL     1       0.150  -6.369   0.598  0.00  0.00    +0.278 C 
ATOM      5  N   UNL     1       0.006  -6.237  -0.862  0.00  0.00    -0.263 N 
ATOM      6  C   UNL     1      -0.043  -4.919  -1.126  0.00  0.00    +0.315 C 
ATOM      7  O   UNL     1      -0.164  -4.459  -2.244  0.00  0.00    -0.252 OA
ATOM      8  H   UNL     1      -0.047  -6.960  -1.507  0.00  0.00    +0.153 HD
ENDROOT
BRANCH   1  13
ATOM      9  C   UNL     1      -0.018   1.503   0.010  0.00  0.00    +0.044 C 
ATOM     10  C   UNL     1       0.002  -0.004   0.002  0.00  0.00    -0.047 A 
ATOM     11  C   UNL     1      -0.000  -0.701   1.197  0.00  0.00    +0.005 A 
ATOM     12  C   UNL     1       0.018  -2.082   1.192  0.00  0.00    +0.024 A 
ATOM     13  C   UNL     1       0.040  -2.771  -0.013  0.00  0.00    +0.046 A 
ATOM     14  C   UNL     1       0.042  -2.068  -1.211  0.00  0.00    +0.027 A 
ATOM     15  C   UNL     1       0.017  -0.687  -1.200  0.00  0.00    -0.046 A 
ATOM     16  C   UNL     1       0.014   0.076  -2.499  0.00  0.00    +0.044 C 
ENDBRANCH   1  13
BRANCH   4  17
ATOM     17  C   UNL     1      -1.044  -7.117   1.195  0.00  0.00    +0.436 C 
ATOM     18  F   UNL     1      -2.231  -6.485   0.809  0.00  0.00    -0.166 F 
ATOM     19  F   UNL     1      -1.046  -8.437   0.732  0.00  0.00    -0.166 F 
ATOM     20  F   UNL     1      -0.946  -7.113   2.591  0.00  0.00    -0.166 F 
ENDBRANCH   4  17
BRANCH   4  21
ATOM     21  N   UNL     1       1.403  -7.051   0.933  0.00  0.00    -0.276 N 
ATOM     22  C   UNL     1       1.783  -7.168   2.220  0.00  0.00    +0.246 C 
ATOM     23  O   UNL     1       1.087  -6.708   3.104  0.00  0.00    -0.270 OA
ATOM     24  H   UNL     1       1.959  -7.418   0.228  0.00  0.00    +0.152 HD
BRANCH  22  25
ATOM     25  C   UNL     1       3.047  -7.856   2.558  0.00  0.00    +0.037 A 
ATOM     26  C   UNL     1       3.846  -8.390   1.545  0.00  0.00    +0.016 A 
ATOM     27  C   UNL     1       5.027  -9.024   1.865  0.00  0.00    +0.039 A 
ATOM     28  C   UNL     1       5.415  -9.144   3.191  0.00  0.00    +0.123 A 
ATOM     29  C   UNL     1       4.623  -8.620   4.200  0.00  0.00    +0.039 A 
ATOM     30  C   UNL     1       3.443  -7.978   3.891  0.00  0.00    +0.016 A 
ATOM     31  F   UNL     1       6.571  -9.772   3.499  0.00  0.00    -0.205 F 
ENDBRANCH  22  25
ENDBRANCH   4  21
TORSDOF 4
