REMARK  Name = ZINC66561011
REMARK  8 active torsions:
REMARK  status: ('A' for Active; 'I' for Inactive)
REMARK    1  A    between atoms: C_1  and  C_2
REMARK    2  A    between atoms: C_5  and  N_9
REMARK    3  A    between atoms: C_6  and  C_8
REMARK    4  A    between atoms: C_13  and  C_15
REMARK    5  A    between atoms: C_15  and  N_16
REMARK    6  A    between atoms: N_16  and  C_17
REMARK    7  A    between atoms: N_16  and  C_20
REMARK    8  A    between atoms: C_17  and  C_18
REMARK                            x       y       z     vdW  Elec       q    Type
REMARK                         _______ _______ _______ _____ _____    ______ ____
ROOT
ATOM      1  N   UNL     1      -0.264  -4.701   0.420  0.00  0.00    -0.269 N 
ATOM      2  C   UNL     1      -0.307  -5.235  -0.817  0.00  0.00    +0.310 C 
ATOM      3  O   UNL     1      -0.312  -4.509  -1.792  0.00  0.00    -0.252 OA
ATOM      4  N   UNL     1      -0.346  -6.573  -0.973  0.00  0.00    -0.241 N 
ATOM      5  C   UNL     1      -0.389  -7.107  -2.210  0.00  0.00    +0.204 C 
ATOM      6  O   UNL     1      -0.394  -6.383  -3.182  0.00  0.00    -0.277 OA
ATOM      7  H   UNL     1      -0.187  -5.279   1.195  0.00  0.00    +0.156 HD
ATOM      8  H   UNL     1      -0.342  -7.152  -0.195  0.00  0.00    +0.159 HD
ENDROOT
BRANCH   1  13
ATOM      9  C   UNL     1      -0.528   0.926   1.092  0.00  0.00    +0.044 C 
ATOM     10  C   UNL     1      -0.458  -0.569   0.913  0.00  0.00    -0.050 A 
ATOM     11  C   UNL     1       0.181  -1.103  -0.191  0.00  0.00    +0.005 A 
ATOM     12  C   UNL     1       0.247  -2.472  -0.358  0.00  0.00    +0.024 A 
ATOM     13  C   UNL     1      -0.329  -3.313   0.586  0.00  0.00    +0.038 A 
ATOM     14  C   UNL     1      -0.969  -2.774   1.694  0.00  0.00    -0.029 A 
ATOM     15  C   UNL     1      -1.027  -1.404   1.857  0.00  0.00    +0.008 A 
ATOM     16  C   UNL     1      -1.595  -3.684   2.720  0.00  0.00    +0.045 C 
ENDBRANCH   1  13
BRANCH   5  17
ATOM     17  C   UNL     1      -0.432  -8.603  -2.384  0.00  0.00    +0.020 C 
BRANCH  17  18
ATOM     18  N   UNL     1      -0.475  -8.928  -3.816  0.00  0.00    +0.391 N 
ATOM     19  H   UNL     1      -1.253  -8.450  -4.246  0.00  0.00    -0.080 HD
BRANCH  18  20
ATOM     20  C   UNL     1      -0.638 -10.379  -3.984  0.00  0.00    -0.045 C 
ATOM     21  C   UNL     1      -1.903 -10.840  -3.241  0.00  0.00    +0.009 C 
ATOM     22  C   UNL     1      -2.224 -12.295  -3.688  0.00  0.00    +0.164 C 
ATOM     23  S   UNL     1      -1.866 -12.180  -5.492  0.00  0.00    -0.033 S 
ATOM     24  O   UNL     1      -3.066 -11.854  -6.181  0.00  0.00    -0.174 OA
ATOM     25  O   UNL     1      -1.119 -13.322  -5.889  0.00  0.00    -0.174 OA
ATOM     26  C   UNL     1      -0.761 -10.711  -5.490  0.00  0.00    +0.151 C 
ENDBRANCH  18  20
BRANCH  18  27
ATOM     27  C   UNL     1       0.777  -8.499  -4.453  0.00  0.00    -0.051 C 
BRANCH  27  28
ATOM     28  C   UNL     1       1.925  -9.296  -3.892  0.00  0.00    -0.053 C 
ATOM     29  C   UNL     1       2.718  -9.959  -4.697  0.00  0.00    +0.002 C 
ENDBRANCH  27  28
ENDBRANCH  18  27
ENDBRANCH  17  18
ENDBRANCH   5  17
TORSDOF 6
