REMARK  Name = ZINC65623394
REMARK  7 active torsions:
REMARK  status: ('A' for Active; 'I' for Inactive)
REMARK    1  A    between atoms: C_4  and  S_18
REMARK    2  A    between atoms: C_6  and  C_7
REMARK    3  A    between atoms: N_9  and  N_10
REMARK    4  A    between atoms: N_13  and  C_14
REMARK    5  A    between atoms: C_14  and  C_15
REMARK    6  A    between atoms: S_18  and  N_21
REMARK    7  A    between atoms: N_21  and  C_22
REMARK                            x       y       z     vdW  Elec       q    Type
REMARK                         _______ _______ _______ _____ _____    ______ ____
ROOT
ATOM      1  C   UNL     1      -0.233   0.637   0.014  0.00  0.00    +0.016 A 
ATOM      2  C   UNL     1       0.826   1.515  -0.076  0.00  0.00    +0.041 A 
ATOM      3  C   UNL     1       2.127   1.036  -0.095  0.00  0.00    +0.150 A 
ATOM      4  C   UNL     1       2.371  -0.327  -0.024  0.00  0.00    +0.141 A 
ATOM      5  C   UNL     1       1.320  -1.214   0.067  0.00  0.00    +0.044 A 
ATOM      6  C   UNL     1       0.007  -0.737   0.087  0.00  0.00    +0.040 A 
ATOM      7  F   UNL     1       3.161   1.901  -0.185  0.00  0.00    -0.203 F 
ENDROOT
BRANCH   6   8
ATOM      8  C   UNL     1      -1.124  -1.683   0.183  0.00  0.00    +0.260 C 
ATOM      9  O   UNL     1      -0.912  -2.878   0.246  0.00  0.00    -0.269 OA
ATOM     10  N   UNL     1      -2.389  -1.220   0.202  0.00  0.00    -0.229 N 
ATOM     11  H   UNL     1      -2.558  -0.266   0.152  0.00  0.00    +0.173 HD
BRANCH  10  12
ATOM     12  N   UNL     1      -3.462  -2.117   0.294  0.00  0.00    -0.218 N 
ATOM     13  C   UNL     1      -4.728  -1.654   0.312  0.00  0.00    +0.316 C 
ATOM     14  O   UNL     1      -5.658  -2.433   0.392  0.00  0.00    -0.251 OA
ATOM     15  N   UNL     1      -4.962  -0.329   0.243  0.00  0.00    -0.298 N 
ATOM     16  H   UNL     1      -3.293  -3.071   0.344  0.00  0.00    +0.174 HD
ATOM     17  H   UNL     1      -4.219   0.292   0.179  0.00  0.00    +0.150 HD
BRANCH  15  18
ATOM     18  C   UNL     1      -6.337   0.174   0.263  0.00  0.00    +0.109 C 
BRANCH  18  19
ATOM     19  C   UNL     1      -6.324   1.702   0.173  0.00  0.00    +0.006 C 
ATOM     20  C   UNL     1      -6.876   2.485   1.365  0.00  0.00    +0.005 C 
ATOM     21  C   UNL     1      -7.673   2.415   0.061  0.00  0.00    +0.005 C 
ENDBRANCH  18  19
ENDBRANCH  15  18
ENDBRANCH  10  12
ENDBRANCH   6   8
BRANCH   4  22
ATOM     22  S   UNL     1       4.027  -0.927  -0.050  0.00  0.00    +0.061 S 
ATOM     23  O   UNL     1       3.950  -2.340   0.073  0.00  0.00    -0.153 OA
ATOM     24  O   UNL     1       4.672  -0.292  -1.145  0.00  0.00    -0.153 OA
BRANCH  22  25
ATOM     25  N   UNL     1       4.770  -0.373   1.323  0.00  0.00    -0.187 NA
ATOM     26  H   UNL     1       5.510   0.252   1.256  0.00  0.00    +0.148 HD
BRANCH  25  27
ATOM     27  C   UNL     1       4.311  -0.826   2.638  0.00  0.00    +0.077 C 
ATOM     28  C   UNL     1       4.405   0.166   3.799  0.00  0.00    +0.022 C 
ATOM     29  C   UNL     1       5.369  -1.020   3.727  0.00  0.00    +0.022 C 
ENDBRANCH  25  27
ENDBRANCH  22  25
ENDBRANCH   4  22
TORSDOF 7
