REMARK  Name = ZINC36000085
REMARK  10 active torsions:
REMARK  status: ('A' for Active; 'I' for Inactive)
REMARK    1  A    between atoms: C_1  and  C_2
REMARK    2  A    between atoms: C_2  and  O_3
REMARK    3  A    between atoms: O_3  and  C_4
REMARK    4  A    between atoms: C_4  and  C_6
REMARK    5  A    between atoms: C_7  and  C_22
REMARK    6  A    between atoms: N_8  and  C_21
REMARK    7  A    between atoms: C_12  and  C_14
REMARK    8  A    between atoms: C_22  and  N_23
REMARK    9  A    between atoms: C_27  and  C_30
REMARK   10  A    between atoms: C_31  and  C_33
REMARK                            x       y       z     vdW  Elec       q    Type
REMARK                         _______ _______ _______ _____ _____    ______ ____
ROOT
ATOM      1  C   UNL     1       1.660  -2.462  -2.638  0.00  0.00    +0.080 C 
ATOM      2  C   UNL     1       1.818  -3.788  -2.838  0.00  0.00    +0.041 C 
ATOM      3  N   UNL     1       2.296  -4.270  -4.023  0.00  0.00    -0.260 N 
ATOM      4  C   UNL     1       2.639  -3.491  -5.057  0.00  0.00    +0.307 C 
ATOM      5  O   UNL     1       3.056  -4.013  -6.073  0.00  0.00    -0.252 OA
ATOM      6  N   UNL     1       2.538  -2.148  -5.008  0.00  0.00    -0.288 N 
ATOM      7  C   UNL     1       2.026  -1.528  -3.775  0.00  0.00    +0.144 C 
ATOM      8  C   UNL     1       2.442  -5.720  -4.172  0.00  0.00    +0.139 C 
ATOM      9  H   UNL     1       2.792  -1.603  -5.769  0.00  0.00    +0.151 HD
ENDROOT
BRANCH   7  10
ATOM     10  C   UNL     1       3.076  -0.572  -3.271  0.00  0.00    -0.020 A 
ATOM     11  C   UNL     1       4.398  -0.971  -3.201  0.00  0.00    +0.006 A 
ATOM     12  C   UNL     1       5.362  -0.095  -2.739  0.00  0.00    +0.003 A 
ATOM     13  C   UNL     1       5.005   1.181  -2.346  0.00  0.00    +0.038 A 
ATOM     14  C   UNL     1       3.682   1.582  -2.416  0.00  0.00    +0.124 A 
ATOM     15  C   UNL     1       2.718   0.705  -2.884  0.00  0.00    +0.044 A 
ATOM     16  F   UNL     1       3.332   2.829  -2.031  0.00  0.00    -0.205 F 
ENDBRANCH   7  10
BRANCH   1  17
ATOM     17  C   UNL     1       1.165  -1.961  -1.411  0.00  0.00    +0.339 C 
ATOM     18  O   UNL     1       0.017  -1.564  -1.335  0.00  0.00    -0.245 OA
BRANCH  17  19
ATOM     19  O   UNL     1       1.965  -1.925  -0.325  0.00  0.00    -0.462 OA
BRANCH  19  21
ATOM     20  C   UNL     1       2.448  -1.444   1.994  0.00  0.00    +0.048 C 
ATOM     21  C   UNL     1       1.399  -1.407   0.880  0.00  0.00    +0.229 C 
ENDBRANCH  19  21
ENDBRANCH  17  19
ENDBRANCH   1  17
BRANCH   2  22
ATOM     22  C   UNL     1       1.462  -4.752  -1.736  0.00  0.00    +0.136 C 
BRANCH  22  23
ATOM     23  N   UNL     1       0.347  -5.603  -2.172  0.00  0.00    -0.294 NA
ATOM     24  C   UNL     1      -0.876  -4.812  -2.363  0.00  0.00    +0.104 C 
ATOM     25  C   UNL     1      -1.960  -5.697  -2.987  0.00  0.00    +0.124 C 
ATOM     26  N   UNL     1      -2.121  -6.898  -2.153  0.00  0.00    -0.290 N 
ATOM     27  C   UNL     1      -0.917  -7.668  -1.804  0.00  0.00    +0.087 C 
ATOM     28  C   UNL     1       0.126  -6.706  -1.226  0.00  0.00    +0.107 C 
ATOM     29  C   UNL     1      -1.273  -8.732  -0.764  0.00  0.00    +0.029 C 
ATOM     30  C   UNL     1      -3.338  -7.282  -1.721  0.00  0.00    +0.282 C 
ATOM     31  O   UNL     1      -3.442  -8.214  -0.945  0.00  0.00    -0.267 OA
BRANCH  30  32
ATOM     32  C   UNL     1      -4.538  -6.579  -2.187  0.00  0.00    +0.189 A 
ATOM     33  C   UNL     1      -5.810  -6.776  -1.733  0.00  0.00    +0.054 A 
ATOM     34  C   UNL     1      -6.635  -5.896  -2.450  0.00  0.00    +0.042 A 
ATOM     35  C   UNL     1      -5.840  -5.208  -3.300  0.00  0.00    +0.196 A 
ATOM     36  O   UNL     1      -4.576  -5.619  -3.135  0.00  0.00    -0.458 OA
ENDBRANCH  30  32
ENDBRANCH  22  23
ENDBRANCH   2  22
TORSDOF 7
