REMARK  Name = ZINC67128135
REMARK  6 active torsions:
REMARK  status: ('A' for Active; 'I' for Inactive)
REMARK    1  A    between atoms: C_4  and  O_9
REMARK    2  A    between atoms: C_5  and  C_7
REMARK    3  A    between atoms: O_9  and  C_10
REMARK    4  A    between atoms: C_10  and  C_11
REMARK    5  A    between atoms: N_13  and  N_14
REMARK    6  A    between atoms: C_15  and  C_17
REMARK                            x       y       z     vdW  Elec       q    Type
REMARK                         _______ _______ _______ _____ _____    ______ ____
ROOT
ATOM      1  C   UNL     1       6.008  -0.687  -0.064  0.00  0.00    +0.267 C 
ATOM      2  O   UNL     1       5.879  -1.893  -0.069  0.00  0.00    -0.271 OA
ATOM      3  N   UNL     1       7.241  -0.141  -0.073  0.00  0.00    -0.231 N 
ATOM      4  H   UNL     1       7.344   0.824  -0.069  0.00  0.00    +0.173 HD
ENDROOT
BRANCH   3   5
ATOM      5  N   UNL     1       8.372  -0.967  -0.090  0.00  0.00    -0.230 N 
ATOM      6  C   UNL     1       9.605  -0.421  -0.100  0.00  0.00    +0.264 C 
ATOM      7  O   UNL     1       9.734   0.788  -0.095  0.00  0.00    -0.269 OA
ATOM      8  H   UNL     1       8.269  -1.931  -0.095  0.00  0.00    +0.173 HD
BRANCH   6   9
ATOM      9  C   UNL     1      10.796  -1.291  -0.117  0.00  0.00    +0.083 A 
ATOM     10  C   UNL     1      10.651  -2.681  -0.130  0.00  0.00    +0.017 A 
ATOM     11  C   UNL     1      11.766  -3.489  -0.146  0.00  0.00    +0.005 A 
ATOM     12  C   UNL     1      13.034  -2.932  -0.149  0.00  0.00    +0.049 A 
ATOM     13  C   UNL     1      13.195  -1.555  -0.137  0.00  0.00    +0.163 A 
ATOM     14  C   UNL     1      12.079  -0.727  -0.128  0.00  0.00    +0.174 A 
ATOM     15  O   UNL     1      12.214   0.625  -0.128  0.00  0.00    -0.484 OA
ATOM     16  C   UNL     1      13.497   1.144   0.238  0.00  0.00    +0.270 C 
ATOM     17  C   UNL     1      14.570   0.348  -0.518  0.00  0.00    +0.270 C 
ATOM     18  O   UNL     1      14.451  -1.030  -0.136  0.00  0.00    -0.485 OA
ENDBRANCH   6   9
ENDBRANCH   3   5
BRANCH   1  19
ATOM     19  C   UNL     1       4.791   0.202  -0.046  0.00  0.00    +0.326 C 
BRANCH  19  20
ATOM     20  O   UNL     1       3.612  -0.606  -0.038  0.00  0.00    -0.481 OA
BRANCH  20  24
ATOM     21  C   UNL     1      -0.017   1.374   0.010  0.00  0.00    +0.001 A 
ATOM     22  C   UNL     1       1.170   2.089   0.002  0.00  0.00    +0.004 A 
ATOM     23  C   UNL     1       2.383   1.429  -0.013  0.00  0.00    +0.047 A 
ATOM     24  C   UNL     1       2.421   0.043  -0.022  0.00  0.00    +0.138 A 
ATOM     25  C   UNL     1       1.222  -0.684  -0.014  0.00  0.00    +0.093 A 
ATOM     26  C   UNL     1       0.002  -0.004   0.002  0.00  0.00    +0.022 A 
BRANCH  25  27
ATOM     27  C   UNL     1       1.249  -2.116  -0.023  0.00  0.00    +0.103 C 
ATOM     28  N   UNL     1       1.270  -3.252  -0.030  0.00  0.00    -0.191 NA
ENDBRANCH  25  27
ENDBRANCH  20  24
ENDBRANCH  19  20
ENDBRANCH   1  19
TORSDOF 6
