REMARK  Name = ZINC15033219
REMARK  7 active torsions:
REMARK  status: ('A' for Active; 'I' for Inactive)
REMARK    1  A    between atoms: C_1  and  C_2
REMARK    2  A    between atoms: C_2  and  C_3
REMARK    3  A    between atoms: N_11  and  C_12
REMARK    4  A    between atoms: C_12  and  C_13
REMARK    5  A    between atoms: N_15  and  N_16
REMARK    6  A    between atoms: C_17  and  C_19
REMARK    7  A    between atoms: C_20  and  C_28
REMARK                            x       y       z     vdW  Elec       q    Type
REMARK                         _______ _______ _______ _____ _____    ______ ____
ROOT
ATOM      1  C   UNL     1      -1.088  -1.893  -2.977  0.00  0.00    +0.249 C 
ATOM      2  O   UNL     1      -0.998  -2.850  -2.236  0.00  0.00    -0.272 OA
ATOM      3  N   UNL     1      -0.616  -1.970  -4.237  0.00  0.00    -0.233 N 
ATOM      4  H   UNL     1      -0.687  -1.205  -4.829  0.00  0.00    +0.173 HD
ENDROOT
BRANCH   3   5
ATOM      5  N   UNL     1      -0.022  -3.155  -4.691  0.00  0.00    -0.228 N 
ATOM      6  C   UNL     1       0.450  -3.232  -5.952  0.00  0.00    +0.296 C 
ATOM      7  O   UNL     1       0.360  -2.272  -6.694  0.00  0.00    -0.265 OA
ATOM      8  H   UNL     1       0.049  -3.920  -4.099  0.00  0.00    +0.173 HD
BRANCH   6   9
ATOM      9  C   UNL     1       1.073  -4.475  -6.429  0.00  0.00    +0.195 A 
ATOM     10  C   UNL     1       1.586  -4.665  -7.672  0.00  0.00    +0.008 A 
ATOM     11  C   UNL     1       2.093  -6.036  -7.695  0.00  0.00    +0.024 A 
ATOM     12  C   UNL     1       2.724  -6.824  -8.660  0.00  0.00    +0.012 A 
ATOM     13  C   UNL     1       3.083  -8.107  -8.358  0.00  0.00    +0.001 A 
ATOM     14  C   UNL     1       2.824  -8.632  -7.099  0.00  0.00    +0.004 A 
ATOM     15  C   UNL     1       2.203  -7.871  -6.133  0.00  0.00    +0.047 A 
ATOM     16  C   UNL     1       1.828  -6.562  -6.417  0.00  0.00    +0.136 A 
ATOM     17  O   UNL     1       1.226  -5.597  -5.696  0.00  0.00    -0.450 OA
ATOM     18  C   UNL     1       1.624  -3.665  -8.799  0.00  0.00    +0.048 C 
ENDBRANCH   6   9
ENDBRANCH   3   5
BRANCH   1  19
ATOM     19  C   UNL     1      -1.726  -0.619  -2.488  0.00  0.00    +0.220 C 
BRANCH  19  28
ATOM     20  C   UNL     1      -1.412  -0.526   0.013  0.00  0.00    +0.111 A 
ATOM     21  N   UNL     1      -2.103  -0.784   1.084  0.00  0.00    -0.232 NA
ATOM     22  C   UNL     1      -3.334  -1.237   0.735  0.00  0.00    +0.089 A 
ATOM     23  C   UNL     1      -4.451  -1.652   1.465  0.00  0.00    +0.030 A 
ATOM     24  C   UNL     1      -5.577  -2.066   0.811  0.00  0.00    +0.002 A 
ATOM     25  C   UNL     1      -5.625  -2.079  -0.576  0.00  0.00    +0.002 A 
ATOM     26  C   UNL     1      -4.535  -1.675  -1.317  0.00  0.00    +0.028 A 
ATOM     27  C   UNL     1      -3.382  -1.250  -0.669  0.00  0.00    +0.069 A 
ATOM     28  N   UNL     1      -2.154  -0.789  -1.097  0.00  0.00    -0.319 N 
BRANCH  20  30
ATOM     29  C   UNL     1      -0.019   1.526   0.010  0.00  0.00    +0.012 C 
ATOM     30  C   UNL     1       0.002  -0.004   0.002  0.00  0.00    +0.071 C 
ENDBRANCH  20  30
ENDBRANCH  19  28
ENDBRANCH   1  19
TORSDOF 5
