REMARK  Name = ZINC09359563
REMARK  10 active torsions:
REMARK  status: ('A' for Active; 'I' for Inactive)
REMARK    1  A    between atoms: C_1  and  C_2
REMARK    2  A    between atoms: C_2  and  C_3
REMARK    3  A    between atoms: C_2  and  O_4
REMARK    4  A    between atoms: O_4  and  C_5
REMARK    5  A    between atoms: C_8  and  C_11
REMARK    6  A    between atoms: N_13  and  C_14
REMARK    7  A    between atoms: C_14  and  N_16
REMARK    8  A    between atoms: C_19  and  C_22
REMARK    9  A    between atoms: C_25  and  O_29
REMARK   10  A    between atoms: O_29  and  C_30
REMARK                            x       y       z     vdW  Elec       q    Type
REMARK                         _______ _______ _______ _____ _____    ______ ____
ROOT
ATOM      1  C   UNL     1      -3.603  -7.366  -2.673  0.00  0.00    +0.143 C 
ATOM      2  S   UNL     1      -2.277  -8.264  -3.280  0.00  0.00    -0.018 S 
ENDROOT
BRANCH   1   3
ATOM      3  N   UNL     1      -4.844  -7.889  -2.709  0.00  0.00    -0.276 N 
ATOM      4  C   UNL     1      -5.049  -9.157  -3.239  0.00  0.00    +0.164 A 
ATOM      5  N   UNL     1      -6.173  -9.836  -3.369  0.00  0.00    -0.225 NA
ATOM      6  C   UNL     1      -6.186 -11.048  -3.904  0.00  0.00    +0.080 A 
ATOM      7  C   UNL     1      -5.013 -11.606  -4.329  0.00  0.00    +0.076 A 
ATOM      8  S   UNL     1      -3.860 -10.298  -3.932  0.00  0.00    -0.060 S 
ATOM      9  H   UNL     1      -5.595  -7.380  -2.365  0.00  0.00    +0.156 HD
BRANCH   6  10
ATOM     10  C   UNL     1      -7.461 -11.793  -4.039  0.00  0.00    +0.002 A 
ATOM     11  C   UNL     1      -7.468 -13.071  -4.597  0.00  0.00    +0.013 A 
ATOM     12  C   UNL     1      -8.655 -13.762  -4.721  0.00  0.00    +0.047 A 
ATOM     13  C   UNL     1      -9.843 -13.186  -4.292  0.00  0.00    +0.134 A 
ATOM     14  C   UNL     1      -9.841 -11.913  -3.737  0.00  0.00    +0.060 A 
ATOM     15  C   UNL     1      -8.655 -11.220  -3.604  0.00  0.00    +0.029 A 
ATOM     16 BR   UNL     1     -11.462 -11.133  -3.154  0.00  0.00    -0.046 Br
BRANCH  13  17
ATOM     17  O   UNL     1     -11.012 -13.869  -4.417  0.00  0.00    -0.494 OA
ATOM     18  C   UNL     1     -10.943 -15.173  -4.997  0.00  0.00    +0.277 C 
ENDBRANCH  13  17
ENDBRANCH   6  10
ENDBRANCH   1   3
BRANCH   1  21
ATOM     19  C   UNL     1      -2.163  -5.613  -2.123  0.00  0.00    +0.250 C 
ATOM     20  O   UNL     1      -1.222  -6.251  -2.554  0.00  0.00    -0.270 OA
ATOM     21  N   UNL     1      -3.404  -6.136  -2.159  0.00  0.00    -0.264 N 
ATOM     22  H   UNL     1      -4.155  -5.627  -1.815  0.00  0.00    +0.157 HD
BRANCH  19  26
ATOM     23  C   UNL     1      -1.538  -1.738  -0.505  0.00  0.00    +0.121 A 
ATOM     24  C   UNL     1      -0.461  -2.465  -0.996  0.00  0.00    +0.046 A 
ATOM     25  C   UNL     1      -0.659  -3.723  -1.522  0.00  0.00    +0.016 A 
ATOM     26  C   UNL     1      -1.946  -4.267  -1.560  0.00  0.00    +0.037 A 
ATOM     27  C   UNL     1      -3.026  -3.532  -1.064  0.00  0.00    +0.016 A 
ATOM     28  C   UNL     1      -2.819  -2.277  -0.536  0.00  0.00    +0.046 A 
BRANCH  23  29
ATOM     29  O   UNL     1      -1.339  -0.499   0.012  0.00  0.00    -0.489 OA
BRANCH  29  31
ATOM     30  C   UNL     1      -1.982   1.170   1.638  0.00  0.00    +0.051 C 
ATOM     31  C   UNL     1      -2.466   0.143   0.612  0.00  0.00    +0.167 C 
ATOM     32  C   UNL     1      -3.284   0.851  -0.470  0.00  0.00    +0.051 C 
ENDBRANCH  29  31
ENDBRANCH  23  29
ENDBRANCH  19  26
ENDBRANCH   1  21
TORSDOF 7
