REMARK  Name = ZINC00889314
REMARK  5 active torsions:
REMARK  status: ('A' for Active; 'I' for Inactive)
REMARK    1  A    between atoms: C_1  and  C_2
REMARK    2  A    between atoms: C_12  and  C_14
REMARK    3  A    between atoms: C_14  and  C_16
REMARK    4  A    between atoms: C_14  and  N_63
REMARK    5  A    between atoms: N_20  and  C_21
REMARK                            x       y       z     vdW  Elec       q    Type
REMARK                         _______ _______ _______ _____ _____    ______ ____
ROOT
ATOM      1  C   UNL     1       0.086  -2.865   4.922  0.00  0.00    +0.039 C 
ENDROOT
BRANCH   1  13
ATOM      2  C   UNL     1      -0.160   1.310  -0.150  0.00  0.00    +0.046 C 
ATOM      3  C   UNL     1      -0.041  -0.192  -0.102  0.00  0.00    -0.026 A 
ATOM      4  C   UNL     1       0.032  -0.918  -1.271  0.00  0.00    +0.005 A 
ATOM      5  C   UNL     1       0.149  -2.301  -1.240  0.00  0.00    +0.001 A 
ATOM      6  C   UNL     1       0.181  -2.969  -0.049  0.00  0.00    +0.010 A 
ATOM      7  C   UNL     1       0.103  -2.254   1.150  0.00  0.00    -0.001 A 
ATOM      8  C   UNL     1      -0.009  -0.851   1.123  0.00  0.00    +0.052 A 
ATOM      9  N   UNL     1      -0.085  -0.150   2.308  0.00  0.00    -0.322 N 
ATOM     10  H   UNL     1      -0.164   0.847   2.287  0.00  0.00    +0.169 HD
ATOM     11  C   UNL     1      -0.055  -0.787   3.491  0.00  0.00    +0.251 A 
ATOM     12  O   UNL     1      -0.125  -0.135   4.519  0.00  0.00    -0.268 OA
ATOM     13  C   UNL     1       0.056  -2.192   3.574  0.00  0.00    +0.011 A 
ATOM     14  C   UNL     1       0.136  -2.938   2.444  0.00  0.00    +0.017 A 
ENDBRANCH   1  13
BRANCH   1  21
ATOM     15  C   UNL     1      -0.979  -2.913   7.106  0.00  0.00    -0.077 C 
ATOM     16  C   UNL     1      -2.261  -2.743   7.874  0.00  0.00    -0.019 C 
ATOM     17  C   UNL     1      -3.065  -4.057   7.783  0.00  0.00    -0.002 C 
ATOM     18  C   UNL     1      -3.755  -4.192   6.505  0.00  0.00    -0.002 C 
ATOM     19  C   UNL     1      -2.776  -4.216   5.313  0.00  0.00    -0.019 C 
ATOM     20  C   UNL     1      -2.341  -2.805   5.023  0.00  0.00    -0.077 C 
ATOM     21  N   UNL     1      -1.067  -2.387   5.701  0.00  0.00    +0.389 N 
ATOM     22  H   UNL     1      -1.041  -1.361   5.737  0.00  0.00    -0.080 HD
ENDBRANCH   1  21
BRANCH   1  23
ATOM     23  C   UNL     1       1.349  -2.477   5.648  0.00  0.00    +0.143 A 
ATOM     24  N   UNL     1       1.584  -1.340   6.256  0.00  0.00    -0.115 NA
ATOM     25  N   UNL     1       2.771  -1.393   6.755  0.00  0.00    -0.023 NA
ATOM     26  N   UNL     1       3.299  -2.535   6.480  0.00  0.00    -0.044 NA
ATOM     27  N   UNL     1       2.451  -3.234   5.803  0.00  0.00    -0.227 N 
BRANCH  27  28
ATOM     28  C   UNL     1       2.651  -4.593   5.297  0.00  0.00    +0.111 C 
ATOM     29  C   UNL     1       2.914  -5.541   6.469  0.00  0.00    +0.027 C 
ATOM     30  C   UNL     1       3.124  -6.961   5.939  0.00  0.00    +0.002 C 
ATOM     31  C   UNL     1       4.323  -6.980   4.990  0.00  0.00    +0.000 C 
ATOM     32  C   UNL     1       4.061  -6.032   3.818  0.00  0.00    +0.002 C 
ATOM     33  C   UNL     1       3.851  -4.612   4.347  0.00  0.00    +0.027 C 
ENDBRANCH  27  28
ENDBRANCH   1  23
TORSDOF 4
