REMARK  Name = ZINC11756767
REMARK  10 active torsions:
REMARK  status: ('A' for Active; 'I' for Inactive)
REMARK    1  A    between atoms: C_1  and  O_2
REMARK    2  A    between atoms: O_2  and  C_3
REMARK    3  A    between atoms: C_8  and  O_9
REMARK    4  A    between atoms: O_9  and  C_10
REMARK    5  A    between atoms: N_15  and  C_16
REMARK    6  A    between atoms: C_18  and  O_31
REMARK    7  A    between atoms: C_20  and  O_30
REMARK    8  A    between atoms: C_22  and  C_28
REMARK    9  A    between atoms: C_25  and  O_27
REMARK   10  A    between atoms: C_28  and  O_29
REMARK                            x       y       z     vdW  Elec       q    Type
REMARK                         _______ _______ _______ _____ _____    ______ ____
ROOT
ATOM      1  C   UNL     1       2.163   9.388   0.399  0.00  0.00    +0.162 A 
ATOM      2  C   UNL     1       2.211   8.024   0.342  0.00  0.00    +0.062 A 
ATOM      3  C   UNL     1       3.350   7.391  -0.170  0.00  0.00    +0.044 A 
ATOM      4  C   UNL     1       4.445   8.167  -0.625  0.00  0.00    +0.081 A 
ATOM      5  C   UNL     1       4.374   9.563  -0.557  0.00  0.00    +0.078 A 
ATOM      6  C   UNL     1       3.242  10.162  -0.050  0.00  0.00    +0.164 A 
ATOM      7  N   UNL     1       5.525   7.535  -1.110  0.00  0.00    -0.217 NA
ATOM      8  C   UNL     1       5.562   6.223  -1.161  0.00  0.00    +0.225 A 
ATOM      9  N   UNL     1       4.565   5.458  -0.742  0.00  0.00    -0.202 NA
ATOM     10  C   UNL     1       3.450   5.982  -0.251  0.00  0.00    +0.132 A 
ATOM     11  N   UNL     1       2.417   5.173   0.176  0.00  0.00    -0.318 N 
ATOM     12 CL   UNL     1       6.984   5.458  -1.798  0.00  0.00    -0.041 Cl
ATOM     13  H   UNL     1       1.609   5.569   0.538  0.00  0.00    +0.148 HD
ENDROOT
BRANCH  11  14
ATOM     14  C   UNL     1       2.541   3.716   0.084  0.00  0.00    +0.159 C 
ATOM     15  C   UNL     1       1.146   3.087   0.016  0.00  0.00    +0.170 C 
ATOM     16  C   UNL     1       1.286   1.562  -0.002  0.00  0.00    +0.176 C 
ATOM     17  C   UNL     1       2.065   1.115   1.238  0.00  0.00    +0.178 C 
ATOM     18  O   UNL     1       3.340   1.760   1.257  0.00  0.00    -0.341 OA
ATOM     19  C   UNL     1       3.271   3.186   1.321  0.00  0.00    +0.270 C 
BRANCH  19  20
ATOM     20  O   UNL     1       2.561   3.576   2.498  0.00  0.00    -0.365 OA
ATOM     21  H   UNL     1       2.968   3.273   3.321  0.00  0.00    +0.213 HD
ENDBRANCH  19  20
BRANCH  16  22
ATOM     22  O   UNL     1      -0.011   0.963   0.007  0.00  0.00    -0.387 OA
ATOM     23  H   UNL     1       0.002  -0.004   0.002  0.00  0.00    +0.210 HD
ENDBRANCH  16  22
BRANCH  15  24
ATOM     24  O   UNL     1       0.485   3.520  -1.175  0.00  0.00    -0.387 OA
ATOM     25  H   UNL     1      -0.403   3.154  -1.286  0.00  0.00    +0.210 HD
ENDBRANCH  15  24
BRANCH  17  26
ATOM     26  C   UNL     1       2.261  -0.402   1.198  0.00  0.00    +0.190 C 
BRANCH  26  27
ATOM     27  O   UNL     1       2.885  -0.835   2.409  0.00  0.00    -0.392 OA
ATOM     28  H   UNL     1       3.040  -1.788   2.453  0.00  0.00    +0.210 HD
ENDBRANCH  26  27
ENDBRANCH  17  26
ENDBRANCH  11  14
BRANCH   1  30
ATOM     29  C   UNL     1      -0.011   9.159   1.336  0.00  0.00    +0.277 C 
ATOM     30  O   UNL     1       1.056  10.002   0.895  0.00  0.00    -0.491 OA
ENDBRANCH   1  30
BRANCH   6  31
ATOM     31  O   UNL     1       3.171  11.517   0.017  0.00  0.00    -0.491 OA
ATOM     32  C   UNL     1       4.303  12.250  -0.456  0.00  0.00    +0.277 C 
ENDBRANCH   6  31
TORSDOF 8
