REMARK  Name = ZINC35361441
REMARK  11 active torsions:
REMARK  status: ('A' for Active; 'I' for Inactive)
REMARK    1  A    between atoms: C_1  and  C_2
REMARK    2  A    between atoms: C_13  and  O_15
REMARK    3  A    between atoms: O_15  and  C_16
REMARK    4  A    between atoms: C_16  and  C_18
REMARK    5  A    between atoms: C_18  and  C_19
REMARK    6  A    between atoms: C_19  and  C_20
REMARK    7  A    between atoms: C_24  and  O_33
REMARK    8  A    between atoms: C_27  and  C_29
REMARK    9  A    between atoms: C_29  and  O_31
REMARK   10  A    between atoms: O_31  and  C_32
REMARK   11  A    between atoms: C_42  and  C_43
REMARK                            x       y       z     vdW  Elec       q    Type
REMARK                         _______ _______ _______ _____ _____    ______ ____
ROOT
ATOM      1  C   UNL     1      -0.019   1.522   0.010  0.00  0.00    +0.015 C 
ATOM      2  C   UNL     1       0.002  -0.004   0.002  0.00  0.00    +0.008 C 
ATOM      3  C   UNL     1      -1.411  -0.535  -0.055  0.00  0.00    +0.011 C 
ATOM      4  C   UNL     1      -2.131  -0.134   1.250  0.00  0.00    +0.005 C 
ATOM      5  C   UNL     1      -1.405  -0.683   2.462  0.00  0.00    +0.002 C 
ATOM      6  C   UNL     1       0.069  -0.305   2.527  0.00  0.00    -0.003 C 
ATOM      7  C   UNL     1       0.726  -0.626   1.211  0.00  0.00    +0.002 C 
ATOM      8  C   UNL     1       2.167  -0.149   0.990  0.00  0.00    +0.008 C 
ATOM      9  C   UNL     1       2.351  -0.365  -0.540  0.00  0.00    +0.045 C 
ATOM     10  C   UNL     1       0.927  -0.440  -1.148  0.00  0.00    +0.183 C 
ATOM     11  C   UNL     1       0.381   1.084   3.036  0.00  0.00    +0.008 C 
ATOM     12  C   UNL     1      -0.846   1.771   3.635  0.00  0.00    +0.032 C 
ATOM     13  C   UNL     1      -1.546   0.738   4.486  0.00  0.00    -0.060 C 
ATOM     14  C   UNL     1      -1.632   0.871   5.801  0.00  0.00    +0.046 C 
ATOM     15  C   UNL     1      -2.269  -0.159   6.620  0.00  0.00    +0.156 C 
ATOM     16  O   UNL     1      -2.453   0.042   7.804  0.00  0.00    -0.293 OA
ATOM     17  C   UNL     1      -2.682  -1.473   6.010  0.00  0.00    +0.080 C 
ATOM     18  C   UNL     1      -1.967  -1.688   4.677  0.00  0.00    +0.019 C 
ATOM     19  C   UNL     1      -2.134  -0.458   3.778  0.00  0.00    -0.007 C 
ATOM     20  C   UNL     1      -3.625  -0.208   3.546  0.00  0.00    +0.016 C 
ENDROOT
BRANCH  10  21
ATOM     21  O   UNL     1       0.801   0.469  -2.240  0.00  0.00    -0.461 OA
BRANCH  21  22
ATOM     22  C   UNL     1       1.001  -0.027  -3.472  0.00  0.00    +0.308 C 
ATOM     23  O   UNL     1       1.274  -1.195  -3.616  0.00  0.00    -0.251 OA
BRANCH  22  24
ATOM     24  C   UNL     1       0.884   0.874  -4.674  0.00  0.00    +0.130 C 
BRANCH  24  25
ATOM     25  C   UNL     1       1.157   0.067  -5.945  0.00  0.00    +0.107 C 
BRANCH  25  26
ATOM     26  C   UNL     1       1.041   0.967  -7.147  0.00  0.00    +0.217 C 
ATOM     27  O   UNL     1       0.767   2.140  -7.002  0.00  0.00    -0.276 OA
ATOM     28  N   UNL     1       1.242   0.470  -8.384  0.00  0.00    -0.285 N 
ATOM     29  C   UNL     1       1.573  -0.930  -8.703  0.00  0.00    +0.140 C 
ATOM     30  C   UNL     1       1.095  -1.128 -10.163  0.00  0.00    +0.134 C 
ATOM     31  C   UNL     1       1.439   0.248 -10.793  0.00  0.00    +0.066 C 
ATOM     32  C   UNL     1       1.160   1.233  -9.638  0.00  0.00    +0.187 C 
BRANCH  32  33
ATOM     33  C   UNL     1       2.196   2.328  -9.640  0.00  0.00    +0.328 C 
ATOM     34  O   UNL     1       2.933   2.464  -8.693  0.00  0.00    -0.249 OA
BRANCH  33  35
ATOM     35  O   UNL     1       2.299   3.151 -10.695  0.00  0.00    -0.467 OA
ATOM     36  C   UNL     1       3.303   4.166 -10.629  0.00  0.00    +0.280 C 
ENDBRANCH  33  35
ENDBRANCH  32  33
BRANCH  30  37
ATOM     37  O   UNL     1       1.821  -2.180 -10.802  0.00  0.00    -0.390 OA
ATOM     38  H   UNL     1       1.713  -3.044 -10.382  0.00  0.00    +0.210 HD
ENDBRANCH  30  37
ENDBRANCH  25  26
ENDBRANCH  24  25
ENDBRANCH  22  24
ENDBRANCH  21  22
ENDBRANCH  10  21
TORSDOF 8
