REMARK  Name = ZINC05244271
REMARK  8 active torsions:
REMARK  status: ('A' for Active; 'I' for Inactive)
REMARK    1  A    between atoms: C_1  and  C_2
REMARK    2  A    between atoms: C_3  and  C_13
REMARK    3  A    between atoms: C_4  and  C_7
REMARK    4  A    between atoms: C_13  and  O_15
REMARK    5  A    between atoms: O_15  and  C_16
REMARK    6  A    between atoms: C_16  and  C_17
REMARK    7  A    between atoms: C_29  and  C_30
REMARK    8  A    between atoms: C_29  and  C_31
REMARK                            x       y       z     vdW  Elec       q    Type
REMARK                         _______ _______ _______ _____ _____    ______ ____
ROOT
ATOM      1  C   UNL     1       1.431  -1.106   0.338  0.00  0.00    +0.328 C 
ENDROOT
BRANCH   1   2
ATOM      2  C   UNL     1       2.533  -0.303  -0.303  0.00  0.00    +0.258 C 
ATOM      3  O   UNL     1       3.552  -0.852  -0.665  0.00  0.00    -0.271 OA
ATOM      4  N   UNL     1       2.386   1.026  -0.474  0.00  0.00    -0.253 N 
ATOM      5  C   UNL     1       3.445   1.817  -0.947  0.00  0.00    +0.059 A 
ATOM      6  C   UNL     1       4.761   1.474  -0.696  0.00  0.00    +0.025 A 
ATOM      7  C   UNL     1       5.782   2.283  -1.162  0.00  0.00    +0.002 A 
ATOM      8  C   UNL     1       5.489   3.424  -1.886  0.00  0.00    +0.002 A 
ATOM      9  C   UNL     1       4.176   3.772  -2.142  0.00  0.00    +0.025 A 
ATOM     10  C   UNL     1       3.146   2.970  -1.676  0.00  0.00    +0.055 A 
ATOM     11  N   UNL     1       1.810   3.300  -1.929  0.00  0.00    -0.282 N 
ATOM     12  C   UNL     1       0.813   2.699  -1.253  0.00  0.00    +0.241 C 
ATOM     13  O   UNL     1      -0.339   2.970  -1.519  0.00  0.00    -0.273 OA
ATOM     14  C   UNL     1       1.111   1.694  -0.170  0.00  0.00    +0.113 C 
ATOM     15  C   UNL     1       1.217   2.410   1.178  0.00  0.00    +0.042 C 
ATOM     16  C   UNL     1      -0.011   0.656  -0.112  0.00  0.00    +0.042 C 
ATOM     17  H   UNL     1       1.601   3.970  -2.599  0.00  0.00    +0.155 HD
ENDBRANCH   1   2
BRANCH   1  18
ATOM     18  O   UNL     1       1.891  -2.465   0.564  0.00  0.00    -0.452 OA
BRANCH  18  19
ATOM     19  C   UNL     1       1.019  -3.319   1.135  0.00  0.00    +0.345 C 
ATOM     20  O   UNL     1      -0.096  -2.940   1.435  0.00  0.00    -0.245 OA
BRANCH  19  23
ATOM     21  C   UNL     1       2.402  -4.490   3.763  0.00  0.00    +0.090 C 
ATOM     22  C   UNL     1       2.011  -5.238   2.514  0.00  0.00    +0.149 A 
ATOM     23  C   UNL     1       1.417  -4.712   1.394  0.00  0.00    +0.128 A 
ATOM     24  C   UNL     1       1.280  -5.890   0.511  0.00  0.00    +0.128 A 
ATOM     25  N   UNL     1       1.779  -6.888   1.195  0.00  0.00    -0.077 NA
ATOM     26  O   UNL     1       2.173  -6.542   2.281  0.00  0.00    -0.358 OA
BRANCH  24  27
ATOM     27  C   UNL     1       0.704  -5.931  -0.855  0.00  0.00    +0.004 A 
ATOM     28  C   UNL     1      -0.375  -5.113  -1.184  0.00  0.00    +0.010 A 
ATOM     29  C   UNL     1      -0.904  -5.151  -2.458  0.00  0.00    +0.001 A 
ATOM     30  C   UNL     1      -0.372  -6.008  -3.405  0.00  0.00    +0.000 A 
ATOM     31  C   UNL     1       0.696  -6.826  -3.082  0.00  0.00    +0.001 A 
ATOM     32  C   UNL     1       1.236  -6.792  -1.813  0.00  0.00    +0.010 A 
ENDBRANCH  24  27
ENDBRANCH  19  23
ENDBRANCH  18  19
ENDBRANCH   1  18
TORSDOF 5
