REMARK  Name = ZINC16312058
REMARK  11 active torsions:
REMARK  status: ('A' for Active; 'I' for Inactive)
REMARK    1  A    between atoms: C_1  and  C_2
REMARK    2  A    between atoms: C_5  and  N_9
REMARK    3  A    between atoms: C_7  and  C_8
REMARK    4  A    between atoms: C_13  and  N_14
REMARK    5  A    between atoms: N_14  and  C_15
REMARK    6  A    between atoms: C_18  and  S_21
REMARK    7  A    between atoms: S_21  and  N_24
REMARK    8  A    between atoms: N_24  and  C_25
REMARK    9  A    between atoms: C_25  and  C_26
REMARK   10  A    between atoms: C_26  and  O_27
REMARK   11  A    between atoms: C_28  and  C_30
REMARK                            x       y       z     vdW  Elec       q    Type
REMARK                         _______ _______ _______ _____ _____    ______ ____
ROOT
ATOM      1  N   UNL     1       0.519  -8.566  -0.619  0.00  0.00    -0.320 N 
ATOM      2  H   UNL     1       0.381  -8.625   0.340  0.00  0.00    +0.152 HD
ENDROOT
BRANCH   1   7
ATOM      3  N   UNL     1      -0.498  -4.134   0.020  0.00  0.00    -0.156 N 
ATOM      4  C   UNL     1      -0.028  -4.865  -1.011  0.00  0.00    +0.273 C 
ATOM      5  O   UNL     1       0.297  -4.455  -2.112  0.00  0.00    -0.268 OA
ATOM      6  C   UNL     1       0.013  -6.255  -0.538  0.00  0.00    +0.075 C 
ATOM      7  C   UNL     1       0.427  -7.373  -1.242  0.00  0.00    +0.087 C 
ATOM      8  C   UNL     1      -0.481  -6.199   0.846  0.00  0.00    +0.070 C 
ATOM      9  N   UNL     1      -0.754  -4.959   1.115  0.00  0.00    -0.176 NA
ATOM     10  C   UNL     1      -0.636  -7.369   1.783  0.00  0.00    +0.068 C 
BRANCH   3  15
ATOM     11  C   UNL     1      -1.300   1.482  -0.075  0.00  0.00    +0.044 C 
ATOM     12  C   UNL     1      -1.087  -0.009  -0.050  0.00  0.00    -0.047 A 
ATOM     13  C   UNL     1      -0.603  -0.656  -1.172  0.00  0.00    +0.005 A 
ATOM     14  C   UNL     1      -0.406  -2.023  -1.152  0.00  0.00    +0.026 A 
ATOM     15  C   UNL     1      -0.696  -2.748  -0.003  0.00  0.00    +0.061 A 
ATOM     16  C   UNL     1      -1.182  -2.095   1.122  0.00  0.00    +0.029 A 
ATOM     17  C   UNL     1      -1.371  -0.727   1.097  0.00  0.00    -0.046 A 
ATOM     18  C   UNL     1      -1.893  -0.017   2.320  0.00  0.00    +0.044 C 
ENDBRANCH   3  15
ENDBRANCH   1   7
BRANCH   1  19
ATOM     19  C   UNL     1       0.814  -9.718  -1.354  0.00  0.00    +0.031 A 
ATOM     20  C   UNL     1       1.018  -9.634  -2.726  0.00  0.00    +0.025 A 
ATOM     21  C   UNL     1       1.310 -10.774  -3.449  0.00  0.00    +0.030 A 
ATOM     22  C   UNL     1       1.399 -11.997  -2.810  0.00  0.00    +0.105 A 
ATOM     23  C   UNL     1       1.195 -12.084  -1.445  0.00  0.00    +0.030 A 
ATOM     24  C   UNL     1       0.910 -10.947  -0.714  0.00  0.00    +0.025 A 
BRANCH  22  25
ATOM     25  S   UNL     1       1.771 -13.448  -3.737  0.00  0.00    +0.058 S 
ATOM     26  O   UNL     1       1.259 -14.547  -2.995  0.00  0.00    -0.153 OA
ATOM     27  O   UNL     1       1.378 -13.186  -5.077  0.00  0.00    -0.153 OA
BRANCH  25  28
ATOM     28  N   UNL     1       3.418 -13.612  -3.750  0.00  0.00    -0.188 NA
ATOM     29  H   UNL     1       3.906 -13.539  -4.585  0.00  0.00    +0.148 HD
BRANCH  28  30
ATOM     30  C   UNL     1       4.139 -13.867  -2.501  0.00  0.00    +0.133 C 
BRANCH  30  31
ATOM     31  C   UNL     1       5.559 -14.342  -2.818  0.00  0.00    +0.172 C 
BRANCH  31  32
ATOM     32  O   UNL     1       6.280 -13.290  -3.463  0.00  0.00    -0.394 OA
ATOM     33  H   UNL     1       7.190 -13.522  -3.694  0.00  0.00    +0.209 HD
ENDBRANCH  31  32
ENDBRANCH  30  31
ENDBRANCH  28  30
ENDBRANCH  25  28
ENDBRANCH  22  25
ENDBRANCH   1  19
TORSDOF 8
