REMARK  Name = ZINC30514313
REMARK  7 active torsions:
REMARK  status: ('A' for Active; 'I' for Inactive)
REMARK    1  A    between atoms: C_1  and  C_2
REMARK    2  A    between atoms: C_2  and  C_4
REMARK    3  A    between atoms: C_2  and  N_16
REMARK    4  A    between atoms: N_9  and  C_10
REMARK    5  A    between atoms: N_16  and  C_17
REMARK    6  A    between atoms: C_17  and  C_18
REMARK    7  A    between atoms: C_18  and  N_23
REMARK                            x       y       z     vdW  Elec       q    Type
REMARK                         _______ _______ _______ _____ _____    ______ ____
ROOT
ATOM      1  C   UNL     1       0.405   4.034   1.269  0.00  0.00    +0.034 C 
ATOM      2  C   UNL     1       1.121   3.540   0.010  0.00  0.00    +0.138 C 
ENDROOT
BRANCH   2   3
ATOM      3  C   UNL     1       1.142   2.033   0.002  0.00  0.00    +0.237 C 
ATOM      4  O   UNL     1       2.200   1.441  -0.011  0.00  0.00    -0.274 OA
ATOM      5  N   UNL     1      -0.016   1.344   0.009  0.00  0.00    -0.239 N 
ATOM      6  C   UNL     1       0.002  -0.004   0.002  0.00  0.00    +0.306 C 
ATOM      7  O   UNL     1       1.063  -0.597  -0.011  0.00  0.00    -0.252 OA
ATOM      8  N   UNL     1      -1.156  -0.694   0.009  0.00  0.00    -0.296 N 
ATOM      9  H   UNL     1      -0.976   1.881   0.021  0.00  0.00    +0.159 HD
ATOM     10  H   UNL     1      -2.116  -0.157   0.021  0.00  0.00    +0.151 HD
BRANCH   8  11
ATOM     11  C   UNL     1      -1.136  -2.159   0.001  0.00  0.00    +0.074 C 
ATOM     12  C   UNL     1      -1.017  -2.659  -1.440  0.00  0.00    +0.022 C 
ATOM     13  C   UNL     1      -0.996  -4.189  -1.448  0.00  0.00    +0.002 C 
ATOM     14  C   UNL     1      -2.291  -4.720  -0.829  0.00  0.00    +0.000 C 
ATOM     15  C   UNL     1      -2.410  -4.220   0.612  0.00  0.00    +0.002 C 
ATOM     16  C   UNL     1      -2.430  -2.690   0.621  0.00  0.00    +0.022 C 
ENDBRANCH   8  11
ENDBRANCH   2   3
BRANCH   2  17
ATOM     17  N   UNL     1       2.499   4.049  -0.000  0.00  0.00    -0.307 NA
ATOM     18  H   UNL     1       2.885   4.085   1.030  0.00  0.00    +0.123 HD
BRANCH  17  19
ATOM     19  C   UNL     1       2.558   5.400  -0.573  0.00  0.00    +0.069 C 
BRANCH  19  20
ATOM     20  C   UNL     1       4.005   5.895  -0.567  0.00  0.00    -0.053 C 
ATOM     21  C   UNL     1       4.527   5.984   0.882  0.00  0.00    -0.011 C 
ATOM     22  C   UNL     1       5.422   7.248   0.887  0.00  0.00    -0.001 C 
ATOM     23  C   UNL     1       4.643   8.221  -0.033  0.00  0.00    -0.001 C 
ATOM     24  C   UNL     1       4.079   7.317  -1.149  0.00  0.00    -0.011 C 
BRANCH  20  25
ATOM     25  N   UNL     1       4.851   4.985  -1.352  0.00  0.00    +0.385 N 
ATOM     26  C   UNL     1       4.495   5.034  -2.772  0.00  0.00    -0.067 C 
ATOM     27  C   UNL     1       5.642   4.463  -3.615  0.00  0.00    +0.050 C 
ATOM     28  S   UNL     1       5.895   2.726  -3.136  0.00  0.00    -0.164 S 
ATOM     29  C   UNL     1       6.008   2.822  -1.322  0.00  0.00    +0.050 C 
ATOM     30  C   UNL     1       4.809   3.627  -0.806  0.00  0.00    -0.067 C 
ATOM     31  H   UNL     1       5.895   5.323  -1.278  0.00  0.00    -0.081 HD
ENDBRANCH  20  25
ENDBRANCH  19  20
ENDBRANCH  17  19
ENDBRANCH   2  17
TORSDOF 6
