REMARK  Name = ZINC06788546
REMARK  10 active torsions:
REMARK  status: ('A' for Active; 'I' for Inactive)
REMARK    1  A    between atoms: C_1  and  C_2
REMARK    2  A    between atoms: C_4  and  C_28
REMARK    3  A    between atoms: C_8  and  C_27
REMARK    4  A    between atoms: C_10  and  S_12
REMARK    5  A    between atoms: S_12  and  C_13
REMARK    6  A    between atoms: C_13  and  C_14
REMARK    7  A    between atoms: C_14  and  C_16
REMARK    8  A    between atoms: C_17  and  N_26
REMARK    9  A    between atoms: N_18  and  C_25
REMARK   10  A    between atoms: N_21  and  C_24
REMARK                            x       y       z     vdW  Elec       q    Type
REMARK                         _______ _______ _______ _____ _____    ______ ____
ROOT
ATOM      1  C   UNL     1      -5.090   4.514   0.128  0.00  0.00    +0.155 C 
ENDROOT
BRANCH   1   2
ATOM      2  C   UNL     1      -6.519   4.992   0.112  0.00  0.00    +0.182 C 
ATOM      3  O   UNL     1      -6.761   6.182   0.105  0.00  0.00    -0.291 OA
BRANCH   2   4
ATOM      4  C   UNL     1      -7.576   4.057   0.105  0.00  0.00    +0.120 A 
ATOM      5  C   UNL     1      -8.914   4.474   0.214  0.00  0.00    +0.116 A 
ATOM      6  N   UNL     1      -9.903   3.531   0.197  0.00  0.00    -0.284 N 
ATOM      7  C   UNL     1      -9.619   2.224   0.091  0.00  0.00    +0.333 A 
ATOM      8  O   UNL     1     -10.534   1.425   0.085  0.00  0.00    -0.246 OA
ATOM      9  N   UNL     1      -8.360   1.767  -0.011  0.00  0.00    -0.263 N 
ATOM     10  C   UNL     1      -7.313   2.617  -0.010  0.00  0.00    +0.269 A 
ATOM     11  O   UNL     1      -6.173   2.199  -0.101  0.00  0.00    -0.267 OA
ATOM     12  C   UNL     1      -8.122   0.326  -0.124  0.00  0.00    +0.157 C 
ATOM     13  C   UNL     1     -11.301   3.956   0.305  0.00  0.00    +0.155 C 
BRANCH   5  14
ATOM     14  N   UNL     1      -9.220   5.794   0.329  0.00  0.00    -0.344 N 
ATOM     15  H   UNL     1      -8.520   6.462   0.255  0.00  0.00    +0.144 HD
ATOM     16  H   UNL     1     -10.137   6.068   0.483  0.00  0.00    +0.144 HD
ENDBRANCH   5  14
ENDBRANCH   2   4
ENDBRANCH   1   2
BRANCH   1  17
ATOM     17  S   UNL     1      -3.977   5.941   0.133  0.00  0.00    -0.098 S 
BRANCH  17  27
ATOM     18  C   UNL     1       2.492   1.012   0.216  0.00  0.00    +0.044 C 
ATOM     19  C   UNL     1       1.189   1.770   0.200  0.00  0.00    -0.050 A 
ATOM     20  C   UNL     1      -0.014   1.069   0.191  0.00  0.00    +0.008 A 
ATOM     21  C   UNL     1      -1.208   1.724   0.172  0.00  0.00    -0.024 A 
ATOM     22  C   UNL     1      -1.232   3.129   0.171  0.00  0.00    +0.075 A 
ATOM     23  C   UNL     1      -0.007   3.840   0.180  0.00  0.00    +0.004 A 
ATOM     24  C   UNL     1       1.204   3.132   0.195  0.00  0.00    +0.013 A 
ATOM     25  C   UNL     1      -0.031   5.250   0.174  0.00  0.00    -0.039 A 
ATOM     26  C   UNL     1      -1.242   5.875   0.161  0.00  0.00    +0.038 A 
ATOM     27  C   UNL     1      -2.421   5.115   0.151  0.00  0.00    +0.098 A 
ATOM     28  N   UNL     1      -2.391   3.797   0.157  0.00  0.00    -0.240 NA
ATOM     29  C   UNL     1       1.249   6.044   0.184  0.00  0.00    +0.044 C 
ATOM     30  C   UNL     1      -2.498   0.945   0.157  0.00  0.00    +0.046 C 
ENDBRANCH  17  27
ENDBRANCH   1  17
TORSDOF 5
