REMARK  Name = ZINC12453648
REMARK  9 active torsions:
REMARK  status: ('A' for Active; 'I' for Inactive)
REMARK    1  A    between atoms: C_1  and  C_2
REMARK    2  A    between atoms: C_4  and  C_32
REMARK    3  A    between atoms: C_6  and  N_8
REMARK    4  A    between atoms: N_8  and  S_9
REMARK    5  A    between atoms: S_9  and  C_12
REMARK    6  A    between atoms: C_13  and  C_28
REMARK    7  A    between atoms: C_21  and  C_23
REMARK    8  A    between atoms: C_28  and  O_30
REMARK    9  A    between atoms: O_30  and  C_31
REMARK                            x       y       z     vdW  Elec       q    Type
REMARK                         _______ _______ _______ _____ _____    ______ ____
ROOT
ATOM      1  C   UNL     1       2.415   3.730   0.794  0.00  0.00    +0.160 A 
ATOM      2  C   UNL     1       1.117   3.329   0.565  0.00  0.00    +0.096 A 
ATOM      3  C   UNL     1       0.784   1.937   0.810  0.00  0.00    -0.018 A 
ATOM      4  C   UNL     1       1.812   1.171   1.242  0.00  0.00    +0.013 A 
ATOM      5  S   UNL     1       3.192   2.276   1.328  0.00  0.00    -0.071 S 
ATOM      6  C   UNL     1       1.769  -0.290   1.571  0.00  0.00    +0.150 C 
ATOM      7  N   UNL     1       0.349  -0.696   1.560  0.00  0.00    -0.291 N 
ATOM      8  C   UNL     1      -0.499  -0.170   0.479  0.00  0.00    +0.113 C 
ATOM      9  C   UNL     1      -0.607   1.351   0.607  0.00  0.00    +0.056 C 
ATOM     10  C   UNL     1      -0.150  -1.518   2.503  0.00  0.00    +0.268 C 
ATOM     11  O   UNL     1      -1.344  -1.746   2.541  0.00  0.00    -0.268 OA
ENDROOT
BRANCH  10  12
ATOM     12  C   UNL     1       0.751  -2.142   3.490  0.00  0.00    +0.156 A 
ATOM     13  C   UNL     1       0.302  -2.890   4.568  0.00  0.00    +0.101 A 
ATOM     14  S   UNL     1       1.802  -3.327   5.315  0.00  0.00    +0.029 S 
ATOM     15  N   UNL     1       2.801  -2.607   4.330  0.00  0.00    -0.110 NA
ATOM     16  N   UNL     1       2.073  -2.039   3.438  0.00  0.00    -0.136 NA
ENDBRANCH  10  12
BRANCH   1  17
ATOM     17  S   UNL     1       3.116   5.334   0.593  0.00  0.00    +0.079 S 
ATOM     18  O   UNL     1       4.475   5.141   0.226  0.00  0.00    -0.149 OA
ATOM     19  O   UNL     1       2.208   6.076  -0.210  0.00  0.00    -0.149 OA
BRANCH  17  20
ATOM     20  N   UNL     1       3.127   6.055   2.084  0.00  0.00    -0.216 N 
ATOM     21  H   UNL     1       3.968   6.320   2.488  0.00  0.00    +0.174 HD
BRANCH  20  27
ATOM     22  C   UNL     1      -1.528   7.630   2.026  0.00  0.00    +0.044 C 
ATOM     23  C   UNL     1      -0.348   7.043   2.756  0.00  0.00    -0.048 A 
ATOM     24  C   UNL     1      -0.455   6.726   4.098  0.00  0.00    +0.006 A 
ATOM     25  C   UNL     1       0.625   6.187   4.773  0.00  0.00    -0.048 A 
ATOM     26  C   UNL     1       1.815   5.963   4.107  0.00  0.00    +0.028 A 
ATOM     27  C   UNL     1       1.925   6.279   2.760  0.00  0.00    +0.049 A 
ATOM     28  C   UNL     1       0.840   6.826   2.087  0.00  0.00    +0.028 A 
ATOM     29  C   UNL     1       0.504   5.843   6.235  0.00  0.00    +0.044 C 
ENDBRANCH  20  27
ENDBRANCH  17  20
ENDBRANCH   1  17
BRANCH   2  30
ATOM     30  C   UNL     1       0.102   4.279   0.089  0.00  0.00    +0.342 C 
ATOM     31  O   UNL     1      -0.566   4.907   0.888  0.00  0.00    -0.245 OA
BRANCH  30  32
ATOM     32  O   UNL     1      -0.089   4.455  -1.234  0.00  0.00    -0.464 OA
ATOM     33  C   UNL     1      -1.109   5.410  -1.631  0.00  0.00    +0.280 C 
ENDBRANCH  30  32
ENDBRANCH   2  30
TORSDOF 6
