REMARK  Name = ZINC56913739
REMARK  5 active torsions:
REMARK  status: ('A' for Active; 'I' for Inactive)
REMARK    1  A    between atoms: C_1  and  C_2
REMARK    2  A    between atoms: C_6  and  C_8
REMARK    3  A    between atoms: C_13  and  C_22
REMARK    4  A    between atoms: C_15  and  C_19
REMARK    5  A    between atoms: C_16  and  C_18
REMARK                            x       y       z     vdW  Elec       q    Type
REMARK                         _______ _______ _______ _____ _____    ______ ____
ROOT
ATOM      1  C   UNL     1       0.053  -2.846   2.464  0.00  0.00    +0.183 A 
ATOM      2  N   UNL     1       0.046  -2.298   3.688  0.00  0.00    -0.189 NA
ATOM      3  C   UNL     1       0.067  -3.242   4.591  0.00  0.00    +0.250 A 
ATOM      4  N   UNL     1       0.084  -4.444   3.938  0.00  0.00    -0.220 N 
ATOM      5  N   UNL     1       0.072  -4.161   2.577  0.00  0.00    -0.147 NA
ATOM      6  C   UNL     1       0.101  -5.723   4.648  0.00  0.00    +0.165 C 
ATOM      7  C   UNL     1      -0.614  -5.529   5.990  0.00  0.00    +0.148 C 
ATOM      8  C   UNL     1      -0.222  -4.231   6.635  0.00  0.00    +0.034 C 
ATOM      9  N   UNL     1       0.077  -3.171   5.956  0.00  0.00    -0.220 NA
ATOM     10  C   UNL     1      -0.176  -4.160   8.139  0.00  0.00    +0.062 C 
ENDROOT
BRANCH   1  16
ATOM     11  C   UNL     1      -0.018   1.503   0.010  0.00  0.00    +0.044 C 
ATOM     12  C   UNL     1       0.002  -0.004   0.002  0.00  0.00    -0.050 A 
ATOM     13  C   UNL     1       0.006  -0.688  -1.201  0.00  0.00    +0.003 A 
ATOM     14  C   UNL     1       0.025  -2.071  -1.216  0.00  0.00    +0.001 A 
ATOM     15  C   UNL     1       0.041  -2.776  -0.029  0.00  0.00    +0.011 A 
ATOM     16  C   UNL     1       0.037  -2.093   1.185  0.00  0.00    +0.021 A 
ATOM     17  C   UNL     1       0.023  -0.699   1.194  0.00  0.00    +0.015 A 
ENDBRANCH   1  16
BRANCH   7  18
ATOM     18  C   UNL     1      -2.104  -5.537   5.761  0.00  0.00    +0.221 C 
ATOM     19  O   UNL     1      -2.544  -5.682   4.641  0.00  0.00    -0.275 OA
ATOM     20  N   UNL     1      -2.946  -5.382   6.802  0.00  0.00    -0.329 N 
ATOM     21  H   UNL     1      -2.593  -5.266   7.698  0.00  0.00    +0.145 HD
ATOM     22  H   UNL     1      -3.905  -5.387   6.655  0.00  0.00    +0.145 HD
ENDBRANCH   7  18
BRANCH   6  23
ATOM     23  C   UNL     1       1.524  -6.155   4.885  0.00  0.00    +0.015 A 
ATOM     24  C   UNL     1       2.159  -7.275   4.460  0.00  0.00    +0.013 A 
ATOM     25  C   UNL     1       3.485  -7.465   4.802  0.00  0.00    +0.008 A 
ATOM     26  C   UNL     1       4.111  -6.526   5.553  0.00  0.00    +0.045 A 
ATOM     27  S   UNL     1       2.816  -5.322   5.794  0.00  0.00    -0.099 S 
ENDBRANCH   6  23
TORSDOF 3
