REMARK  Name = ZINC61858541
REMARK  8 active torsions:
REMARK  status: ('A' for Active; 'I' for Inactive)
REMARK    1  A    between atoms: C_3  and  O_23
REMARK    2  A    between atoms: C_6  and  C_7
REMARK    3  A    between atoms: C_7  and  C_8
REMARK    4  A    between atoms: C_7  and  O_22
REMARK    5  A    between atoms: C_8  and  N_9
REMARK    6  A    between atoms: N_12  and  C_13
REMARK    7  A    between atoms: C_13  and  C_14
REMARK    8  A    between atoms: O_23  and  C_24
REMARK                            x       y       z     vdW  Elec       q    Type
REMARK                         _______ _______ _______ _____ _____    ______ ____
ROOT
ATOM      1  C   UNL     1      -1.653  -1.150   1.449  0.00  0.00    +0.141 C 
ENDROOT
BRANCH   1   2
ATOM      2  N   UNL     1      -2.913  -1.899   1.458  0.00  0.00    -0.297 N 
ATOM      3  C   UNL     1      -3.429  -2.337   2.623  0.00  0.00    +0.300 C 
ATOM      4  O   UNL     1      -2.849  -2.111   3.668  0.00  0.00    -0.253 OA
ATOM      5  N   UNL     1      -4.587  -3.025   2.631  0.00  0.00    -0.292 N 
ATOM      6  H   UNL     1      -3.375  -2.079   0.625  0.00  0.00    +0.150 HD
ATOM      7  H   UNL     1      -5.050  -3.206   1.798  0.00  0.00    +0.151 HD
BRANCH   5   8
ATOM      8  C   UNL     1      -5.148  -3.501   3.898  0.00  0.00    +0.182 C 
BRANCH   8   9
ATOM      9  C   UNL     1      -6.436  -4.236   3.633  0.00  0.00    +0.151 A 
ATOM     10  N   UNL     1      -7.631  -3.713   3.592  0.00  0.00    -0.133 NA
ATOM     11  N   UNL     1      -8.497  -4.631   3.342  0.00  0.00    -0.134 NA
ATOM     12  C   UNL     1      -7.892  -5.782   3.214  0.00  0.00    +0.134 A 
ATOM     13  N   UNL     1      -6.569  -5.563   3.385  0.00  0.00    -0.313 N 
ATOM     14  C   UNL     1      -5.804  -6.808   3.243  0.00  0.00    +0.125 C 
ATOM     15  C   UNL     1      -6.837  -7.947   3.380  0.00  0.00    +0.029 C 
ATOM     16  C   UNL     1      -8.142  -7.249   2.941  0.00  0.00    +0.078 C 
ENDBRANCH   8   9
ENDBRANCH   5   8
ENDBRANCH   1   2
BRANCH   1  17
ATOM     17  C   UNL     1      -1.293  -0.774   0.011  0.00  0.00    +0.162 C 
BRANCH  17  23
ATOM     18  C   UNL     1      -0.017   1.378   0.010  0.00  0.00    +0.010 A 
ATOM     19  C   UNL     1       1.169   2.087   0.002  0.00  0.00    +0.046 A 
ATOM     20  C   UNL     1       2.380   1.409  -0.013  0.00  0.00    +0.130 A 
ATOM     21  C   UNL     1       2.396   0.022  -0.021  0.00  0.00    +0.046 A 
ATOM     22  C   UNL     1       1.207  -0.681  -0.013  0.00  0.00    +0.010 A 
ATOM     23  C   UNL     1       0.002  -0.004   0.002  0.00  0.00    -0.017 A 
BRANCH  20  24
ATOM     24  O   UNL     1       3.548   2.104  -0.021  0.00  0.00    -0.406 OA
BRANCH  24  25
ATOM     25  C   UNL     1       4.756   1.341  -0.036  0.00  0.00    +0.575 C 
ATOM     26  F   UNL     1       4.787   0.540  -1.183  0.00  0.00    -0.133 F 
ATOM     27  F   UNL     1       5.855   2.207  -0.043  0.00  0.00    -0.133 F 
ATOM     28  F   UNL     1       4.810   0.528   1.101  0.00  0.00    -0.133 F 
ENDBRANCH  24  25
ENDBRANCH  20  24
ENDBRANCH  17  23
BRANCH  17  29
ATOM     29  O   UNL     1      -1.147  -1.962  -0.770  0.00  0.00    -0.386 OA
ATOM     30  H   UNL     1      -0.457  -2.560  -0.450  0.00  0.00    +0.210 HD
ENDBRANCH  17  29
ENDBRANCH   1  17
TORSDOF 8
