REMARK  Name = ZINC28054547
REMARK  5 active torsions:
REMARK  status: ('A' for Active; 'I' for Inactive)
REMARK    1  A    between atoms: C_1  and  C_2
REMARK    2  A    between atoms: C_5  and  C_8
REMARK    3  A    between atoms: C_19  and  C_21
REMARK    4  A    between atoms: C_24  and  S_27
REMARK    5  A    between atoms: S_27  and  C_28
REMARK                            x       y       z     vdW  Elec       q    Type
REMARK                         _______ _______ _______ _____ _____    ______ ____
ROOT
ATOM      1  C   UNL     1       2.108   2.694  -0.045  0.00  0.00    +0.174 C 
ATOM      2  C   UNL     1       3.576   2.871  -0.348  0.00  0.00    +0.025 C 
ATOM      3  C   UNL     1       4.435   1.850  -0.341  0.00  0.00    +0.050 C 
ATOM      4  C   UNL     1       5.864   2.128  -0.618  0.00  0.00    +0.038 A 
ATOM      5  C   UNL     1       6.750   1.112  -0.956  0.00  0.00    +0.013 A 
ATOM      6  C   UNL     1       8.074   1.418  -1.206  0.00  0.00    +0.001 A 
ATOM      7  C   UNL     1       8.516   2.727  -1.122  0.00  0.00    +0.004 A 
ATOM      8  C   UNL     1       7.641   3.745  -0.787  0.00  0.00    +0.046 A 
ATOM      9  C   UNL     1       6.313   3.453  -0.534  0.00  0.00    +0.131 A 
ATOM     10  O   UNL     1       5.423   4.423  -0.206  0.00  0.00    -0.479 OA
ATOM     11  C   UNL     1       4.083   4.259  -0.669  0.00  0.00    +0.234 C 
ATOM     12  N   UNL     1       4.032   0.537  -0.071  0.00  0.00    -0.282 N 
ATOM     13  C   UNL     1       2.672   0.275  -0.078  0.00  0.00    +0.240 A 
ATOM     14  N   UNL     1       1.759   1.280  -0.073  0.00  0.00    -0.201 N 
ATOM     15  N   UNL     1       0.514   0.652  -0.095  0.00  0.00    -0.042 NA
ATOM     16  N   UNL     1       0.745  -0.621  -0.105  0.00  0.00    -0.021 NA
ATOM     17  N   UNL     1       2.014  -0.848  -0.093  0.00  0.00    -0.092 NA
ATOM     18  H   UNL     1       4.786  -0.238   0.136  0.00  0.00    +0.155 HD
ENDROOT
BRANCH   1  23
ATOM     19  C   UNL     1       0.963   4.837   5.198  0.00  0.00    +0.044 C 
ATOM     20  C   UNL     1       1.261   4.278   3.831  0.00  0.00    -0.050 A 
ATOM     21  C   UNL     1       0.624   4.794   2.718  0.00  0.00    +0.004 A 
ATOM     22  C   UNL     1       0.898   4.282   1.464  0.00  0.00    +0.006 A 
ATOM     23  C   UNL     1       1.810   3.252   1.322  0.00  0.00    -0.019 A 
ATOM     24  C   UNL     1       2.443   2.732   2.435  0.00  0.00    +0.006 A 
ATOM     25  C   UNL     1       2.173   3.248   3.689  0.00  0.00    +0.004 A 
ENDBRANCH   1  23
BRANCH  11  26
ATOM     26  C   UNL     1       4.044   4.469  -2.161  0.00  0.00    -0.003 A 
ATOM     27  C   UNL     1       5.012   3.895  -2.964  0.00  0.00    +0.008 A 
ATOM     28  C   UNL     1       4.976   4.082  -4.332  0.00  0.00    +0.015 A 
ATOM     29  C   UNL     1       3.972   4.856  -4.900  0.00  0.00    +0.008 A 
ATOM     30  C   UNL     1       3.004   5.436  -4.089  0.00  0.00    +0.015 A 
ATOM     31  C   UNL     1       3.042   5.241  -2.723  0.00  0.00    +0.008 A 
BRANCH  29  32
ATOM     32  S   UNL     1       3.927   5.103  -6.644  0.00  0.00    -0.129 S 
ATOM     33  C   UNL     1       5.359   4.174  -7.256  0.00  0.00    +0.090 C 
ENDBRANCH  29  32
ENDBRANCH  11  26
TORSDOF 3
