REMARK  Name = ZINC07854295
REMARK  6 active torsions:
REMARK  status: ('A' for Active; 'I' for Inactive)
REMARK    1  A    between atoms: C_1  and  C_2
REMARK    2  A    between atoms: C_2  and  C_3
REMARK    3  A    between atoms: C_7  and  C_14
REMARK    4  A    between atoms: C_14  and  N_15
REMARK    5  A    between atoms: C_19  and  C_21
REMARK    6  A    between atoms: N_25  and  C_26
REMARK                            x       y       z     vdW  Elec       q    Type
REMARK                         _______ _______ _______ _____ _____    ______ ____
ROOT
ATOM      1  C   UNL     1      -6.724  -2.988  -3.749  0.00  0.00    -0.044 A 
ATOM      2  C   UNL     1      -7.492  -3.283  -2.631  0.00  0.00    +0.004 A 
ATOM      3  C   UNL     1      -7.048  -2.957  -1.379  0.00  0.00    +0.012 A 
ATOM      4  C   UNL     1      -5.812  -2.322  -1.226  0.00  0.00    +0.019 A 
ATOM      5  C   UNL     1      -5.307  -1.960   0.102  0.00  0.00    -0.047 A 
ATOM      6  C   UNL     1      -4.100  -1.346   0.183  0.00  0.00    +0.094 A 
ATOM      7  C   UNL     1      -3.370  -1.074  -0.994  0.00  0.00    +0.337 A 
ATOM      8  O   UNL     1      -2.288  -0.522  -0.908  0.00  0.00    -0.245 OA
ATOM      9  O   UNL     1      -3.838  -1.409  -2.206  0.00  0.00    -0.422 OA
ATOM     10  C   UNL     1      -5.032  -2.021  -2.356  0.00  0.00    +0.140 A 
ATOM     11  C   UNL     1      -5.500  -2.366  -3.618  0.00  0.00    +0.050 A 
ENDROOT
BRANCH   1  13
ATOM     12  C   UNL     1      -6.761  -4.767  -5.475  0.00  0.00    +0.009 C 
ATOM     13  C   UNL     1      -7.232  -3.356  -5.119  0.00  0.00    +0.032 C 
ENDBRANCH   1  13
BRANCH   5  14
ATOM     14  C   UNL     1      -6.107  -2.261   1.343  0.00  0.00    -0.041 C 
BRANCH  14  15
ATOM     15  N   UNL     1      -5.865  -3.650   1.757  0.00  0.00    +0.388 N 
ATOM     16  C   UNL     1      -4.464  -3.798   2.205  0.00  0.00    -0.077 C 
ATOM     17  C   UNL     1      -4.523  -3.639   3.745  0.00  0.00    -0.020 C 
ATOM     18  C   UNL     1      -5.859  -4.351   4.083  0.00  0.00    -0.011 C 
ATOM     19  C   UNL     1      -6.756  -3.996   2.879  0.00  0.00    -0.020 C 
ATOM     20  H   UNL     1      -6.039  -4.271   0.981  0.00  0.00    -0.080 HD
BRANCH  19  21
ATOM     21  C   UNL     1      -7.610  -5.181   2.509  0.00  0.00    +0.005 A 
ATOM     22  C   UNL     1      -7.644  -5.786   1.304  0.00  0.00    +0.021 A 
ATOM     23  C   UNL     1      -8.570  -6.844   1.389  0.00  0.00    +0.019 A 
ATOM     24  C   UNL     1      -9.068  -6.846   2.643  0.00  0.00    +0.085 A 
ATOM     25  N   UNL     1      -8.478  -5.831   3.336  0.00  0.00    -0.355 N 
ATOM     26  C   UNL     1      -8.736  -5.492   4.738  0.00  0.00    +0.148 C 
ENDBRANCH  19  21
ENDBRANCH  14  15
ENDBRANCH   5  14
TORSDOF 4
