REMARK  Name = ZINC54439714
REMARK  9 active torsions:
REMARK  status: ('A' for Active; 'I' for Inactive)
REMARK    1  A    between atoms: C_1  and  C_2
REMARK    2  A    between atoms: C_3  and  C_7
REMARK    3  A    between atoms: C_10  and  S_13
REMARK    4  A    between atoms: N_11  and  N_12
REMARK    5  A    between atoms: S_13  and  C_14
REMARK    6  A    between atoms: C_14  and  C_15
REMARK    7  A    between atoms: C_15  and  C_16
REMARK    8  A    between atoms: N_18  and  C_19
REMARK    9  A    between atoms: C_20  and  C_24
REMARK                            x       y       z     vdW  Elec       q    Type
REMARK                         _______ _______ _______ _____ _____    ______ ____
ROOT
ATOM      1  C   UNL     1      -7.305   0.657   0.047  0.00  0.00    +0.086 C 
ENDROOT
BRANCH   1   2
ATOM      2  S   UNL     1      -6.385  -0.906   0.039  0.00  0.00    -0.084 S 
BRANCH   2   6
ATOM      3  C   UNL     1      -2.510  -0.400   0.013  0.00  0.00    +0.185 A 
ATOM      4  N   UNL     1      -2.963   0.832   0.017  0.00  0.00    -0.127 NA
ATOM      5  N   UNL     1      -4.248   0.828   0.025  0.00  0.00    -0.121 NA
ATOM      6  C   UNL     1      -4.695  -0.406   0.027  0.00  0.00    +0.209 A 
ATOM      7  N   UNL     1      -3.605  -1.232   0.013  0.00  0.00    -0.224 N 
BRANCH   3  10
ATOM      8  C   UNL     1      -0.018   1.503   0.010  0.00  0.00    +0.087 C 
ATOM      9  C   UNL     1       0.002  -0.004   0.002  0.00  0.00    +0.112 A 
ATOM     10  C   UNL     1      -1.091  -0.815   0.003  0.00  0.00    +0.061 A 
ATOM     11  C   UNL     1      -0.568  -2.187  -0.008  0.00  0.00    +0.053 A 
ATOM     12  C   UNL     1       0.770  -2.074  -0.014  0.00  0.00    +0.196 A 
ATOM     13  O   UNL     1       1.100  -0.773  -0.013  0.00  0.00    -0.467 OA
ENDBRANCH   3  10
BRANCH   7  14
ATOM     14  N   UNL     1      -3.604  -2.598   0.004  0.00  0.00    -0.295 N 
ATOM     15  H   UNL     1      -3.598  -2.966   0.944  0.00  0.00    +0.163 HD
ATOM     16  H   UNL     1      -4.388  -2.957  -0.520  0.00  0.00    +0.163 HD
ENDBRANCH   7  14
ENDBRANCH   2   6
ENDBRANCH   1   2
BRANCH   1  17
ATOM     17  C   UNL     1      -8.806   0.365   0.057  0.00  0.00    +0.107 C 
BRANCH  17  18
ATOM     18  C   UNL     1      -9.571   1.664   0.064  0.00  0.00    +0.218 C 
ATOM     19  O   UNL     1      -8.973   2.719   0.060  0.00  0.00    -0.275 OA
ATOM     20  N   UNL     1     -10.918   1.653   0.074  0.00  0.00    -0.279 N 
ATOM     21  H   UNL     1     -11.396   0.808   0.076  0.00  0.00    +0.155 HD
BRANCH  20  22
ATOM     22  C   UNL     1     -11.622   2.848   0.080  0.00  0.00    +0.084 A 
ATOM     23  C   UNL     1     -12.997   3.028   0.095  0.00  0.00    +0.065 A 
ATOM     24  C   UNL     1     -13.470   4.393   0.098  0.00  0.00    +0.022 A 
ATOM     25  C   UNL     1     -12.518   5.344   0.086  0.00  0.00    +0.048 A 
ATOM     26  S   UNL     1     -11.005   4.408   0.077  0.00  0.00    -0.081 S 
BRANCH  23  27
ATOM     27  C   UNL     1     -13.923   1.891   0.108  0.00  0.00    +0.244 C 
ATOM     28  O   UNL     1     -13.491   0.753   0.104  0.00  0.00    -0.270 OA
ATOM     29  N   UNL     1     -15.254   2.106   0.123  0.00  0.00    -0.325 N 
ATOM     30  H   UNL     1     -15.598   3.012   0.125  0.00  0.00    +0.145 HD
ATOM     31  H   UNL     1     -15.866   1.354   0.131  0.00  0.00    +0.145 HD
ENDBRANCH  23  27
ENDBRANCH  20  22
ENDBRANCH  17  18
ENDBRANCH   1  17
TORSDOF 8
