REMARK  Name = ZINC55088314
REMARK  7 active torsions:
REMARK  status: ('A' for Active; 'I' for Inactive)
REMARK    1  A    between atoms: C_1  and  C_2
REMARK    2  A    between atoms: C_2  and  C_4
REMARK    3  A    between atoms: C_2  and  N_20
REMARK    4  A    between atoms: C_7  and  C_9
REMARK    5  A    between atoms: N_11  and  C_12
REMARK    6  A    between atoms: C_12  and  C_13
REMARK    7  A    between atoms: C_13  and  N_14
REMARK                            x       y       z     vdW  Elec       q    Type
REMARK                         _______ _______ _______ _____ _____    ______ ____
ROOT
ATOM      1  C   UNL     1      -1.412  -0.526   0.013  0.00  0.00    +0.092 A 
ATOM      2  C   UNL     1      -2.075  -0.978   1.099  0.00  0.00    +0.044 A 
ATOM      3  C   UNL     1      -3.355  -1.365   0.671  0.00  0.00    +0.055 A 
ATOM      4  C   UNL     1      -3.407  -1.126  -0.673  0.00  0.00    +0.189 A 
ATOM      5  O   UNL     1      -2.219  -0.612  -1.052  0.00  0.00    -0.457 OA
ENDROOT
BRANCH   4   6
ATOM      6  C   UNL     1      -4.556  -1.380  -1.549  0.00  0.00    +0.279 C 
ATOM      7  O   UNL     1      -5.582  -1.846  -1.088  0.00  0.00    -0.267 OA
ATOM      8  N   UNL     1      -4.475  -1.098  -2.864  0.00  0.00    -0.307 N 
ATOM      9  H   UNL     1      -3.658  -0.727  -3.232  0.00  0.00    +0.149 HD
BRANCH   8  10
ATOM     10  C   UNL     1      -5.623  -1.352  -3.739  0.00  0.00    +0.123 C 
BRANCH  10  11
ATOM     11  C   UNL     1      -5.270  -0.947  -5.172  0.00  0.00    +0.128 C 
BRANCH  11  12
ATOM     12  N   UNL     1      -6.418  -1.201  -6.047  0.00  0.00    -0.283 N 
ATOM     13  C   UNL     1      -6.681  -2.458  -6.764  0.00  0.00    +0.128 C 
ATOM     14  C   UNL     1      -7.994  -2.182  -7.522  0.00  0.00    +0.124 C 
ATOM     15  N   UNL     1      -8.331  -0.800  -7.152  0.00  0.00    -0.298 N 
ATOM     16  C   UNL     1      -7.396  -0.327  -6.317  0.00  0.00    +0.302 C 
ATOM     17  O   UNL     1      -7.431   0.794  -5.849  0.00  0.00    -0.253 OA
ATOM     18  H   UNL     1      -9.109  -0.309  -7.460  0.00  0.00    +0.150 HD
ENDBRANCH  11  12
ENDBRANCH  10  11
ENDBRANCH   8  10
ENDBRANCH   4   6
BRANCH   1  20
ATOM     19  C   UNL     1      -0.019   1.526   0.010  0.00  0.00    -0.005 C 
ATOM     20  C   UNL     1       0.002  -0.004   0.002  0.00  0.00    -0.004 C 
BRANCH  20  21
ATOM     21  N   UNL     1       0.690  -0.478  -1.207  0.00  0.00    +0.386 N 
ATOM     22  C   UNL     1       2.064   0.038  -1.220  0.00  0.00    -0.078 C 
ATOM     23  C   UNL     1       2.759  -0.385  -2.516  0.00  0.00    -0.019 C 
ATOM     24  C   UNL     1       2.785  -1.914  -2.599  0.00  0.00    -0.004 C 
ATOM     25  C   UNL     1       1.352  -2.445  -2.509  0.00  0.00    -0.019 C 
ATOM     26  C   UNL     1       0.709  -1.946  -1.213  0.00  0.00    -0.078 C 
ATOM     27  H   UNL     1       0.200  -0.145  -2.023  0.00  0.00    -0.081 HD
ENDBRANCH  20  21
ENDBRANCH   1  20
TORSDOF 6
