REMARK  Name = ZINC48310068
REMARK  6 active torsions:
REMARK  status: ('A' for Active; 'I' for Inactive)
REMARK    1  A    between atoms: C_1  and  C_2
REMARK    2  A    between atoms: C_2  and  C_4
REMARK    3  A    between atoms: C_2  and  N_12
REMARK    4  A    between atoms: N_15  and  C_16
REMARK    5  A    between atoms: C_16  and  C_18
REMARK    6  A    between atoms: C_16  and  C_19
REMARK                            x       y       z     vdW  Elec       q    Type
REMARK                         _______ _______ _______ _____ _____    ______ ____
ROOT
ATOM      1  N   UNL     1       0.234  -1.070  -1.064  0.00  0.00    -0.293 N 
ATOM      2  C   UNL     1      -0.295  -0.997  -2.301  0.00  0.00    +0.301 C 
ATOM      3  O   UNL     1      -1.462  -0.690  -2.447  0.00  0.00    -0.253 OA
ATOM      4  N   UNL     1       0.471  -1.265  -3.378  0.00  0.00    -0.293 N 
ATOM      5  H   UNL     1       1.165  -1.316  -0.948  0.00  0.00    +0.151 HD
ATOM      6  H   UNL     1       1.402  -1.511  -3.262  0.00  0.00    +0.151 HD
ENDROOT
BRANCH   1   8
ATOM      7  C   UNL     1      -0.611   0.730   0.360  0.00  0.00    +0.033 C 
ATOM      8  C   UNL     1      -0.598  -0.779   0.106  0.00  0.00    +0.103 C 
BRANCH   8   9
ATOM      9  C   UNL     1      -0.034  -1.486   1.312  0.00  0.00    -0.009 A 
ATOM     10  C   UNL     1       1.309  -1.810   1.358  0.00  0.00    +0.008 A 
ATOM     11  C   UNL     1       1.826  -2.459   2.463  0.00  0.00    +0.020 A 
ATOM     12  C   UNL     1       1.000  -2.784   3.525  0.00  0.00    +0.042 A 
ATOM     13  C   UNL     1      -0.344  -2.460   3.479  0.00  0.00    +0.040 A 
ATOM     14  C   UNL     1      -0.860  -1.806   2.375  0.00  0.00    +0.047 A 
ATOM     15 CL   UNL     1      -2.545  -1.394   2.320  0.00  0.00    -0.083 Cl
ATOM     16 CL   UNL     1       1.650  -3.599   4.913  0.00  0.00    -0.083 Cl
ENDBRANCH   8   9
ENDBRANCH   1   8
BRANCH   4  17
ATOM     17  C   UNL     1      -0.104  -1.186  -4.723  0.00  0.00    +0.103 C 
ATOM     18  C   UNL     1       0.011   0.248  -5.243  0.00  0.00    +0.033 C 
BRANCH  17  19
ATOM     19  C   UNL     1       0.643  -2.115  -5.644  0.00  0.00    -0.009 A 
ATOM     20  C   UNL     1       1.964  -2.433  -5.384  0.00  0.00    +0.008 A 
ATOM     21  C   UNL     1       2.650  -3.285  -6.228  0.00  0.00    +0.020 A 
ATOM     22  C   UNL     1       2.015  -3.822  -7.334  0.00  0.00    +0.042 A 
ATOM     23  C   UNL     1       0.695  -3.505  -7.596  0.00  0.00    +0.040 A 
ATOM     24  C   UNL     1       0.007  -2.655  -6.747  0.00  0.00    +0.047 A 
ATOM     25 CL   UNL     1      -1.653  -2.262  -7.071  0.00  0.00    -0.083 Cl
ATOM     26 CL   UNL     1       2.877  -4.892  -8.395  0.00  0.00    -0.083 Cl
ENDBRANCH  17  19
ENDBRANCH   4  17
TORSDOF 4
