REMARK  Name = ZINC06873922
REMARK  5 active torsions:
REMARK  status: ('A' for Active; 'I' for Inactive)
REMARK    1  A    between atoms: C_1  and  C_2
REMARK    2  A    between atoms: C_7  and  N_12
REMARK    3  A    between atoms: C_9  and  C_11
REMARK    4  A    between atoms: N_12  and  S_13
REMARK    5  A    between atoms: S_13  and  C_16
REMARK                            x       y       z     vdW  Elec       q    Type
REMARK                         _______ _______ _______ _____ _____    ______ ____
ROOT
ATOM      1  S   UNL     1      -0.952  -4.003   1.956  0.00  0.00    +0.060 S 
ATOM      2  O   UNL     1      -0.517  -4.014   3.309  0.00  0.00    -0.153 OA
ATOM      3  O   UNL     1      -2.309  -4.215   1.591  0.00  0.00    -0.153 OA
ENDROOT
BRANCH   1   4
ATOM      4  C   UNL     1      -0.007  -5.229   1.114  0.00  0.00    +0.127 A 
ATOM      5  C   UNL     1       0.913  -5.991   1.813  0.00  0.00    +0.077 A 
ATOM      6  C   UNL     1       1.655  -6.954   1.152  0.00  0.00    +0.144 A 
ATOM      7  C   UNL     1       1.474  -7.152  -0.216  0.00  0.00    +0.077 A 
ATOM      8  C   UNL     1       0.553  -6.387  -0.911  0.00  0.00    +0.049 A 
ATOM      9  C   UNL     1      -0.191  -5.430  -0.242  0.00  0.00    +0.069 A 
ATOM     10 CL   UNL     1      -1.353  -4.475  -1.109  0.00  0.00    -0.081 Cl
ATOM     11  N   UNL     1       2.234  -8.130  -0.873  0.00  0.00    -0.280 N 
ATOM     12  C   UNL     1       2.881  -9.061  -0.137  0.00  0.00    +0.255 C 
ATOM     13  O   UNL     1       3.569  -9.898  -0.682  0.00  0.00    -0.272 OA
ATOM     14  C   UNL     1       2.745  -9.054   1.364  0.00  0.00    +0.325 C 
ATOM     15  O   UNL     1       2.562  -7.712   1.824  0.00  0.00    -0.481 OA
ATOM     16  H   UNL     1       2.294  -8.139  -1.841  0.00  0.00    +0.155 HD
ENDBRANCH   1   4
BRANCH   1  17
ATOM     17  N   UNL     1      -0.516  -2.534   1.330  0.00  0.00    -0.187 NA
ATOM     18  H   UNL     1      -1.163  -2.006   0.835  0.00  0.00    +0.148 HD
BRANCH  17  24
ATOM     19  C   UNL     1       0.147   1.663   0.686  0.00  0.00    +0.008 C 
ATOM     20  C   UNL     1       0.187   0.147   0.487  0.00  0.00    -0.010 C 
ATOM     21  C   UNL     1       1.033  -0.184  -0.745  0.00  0.00    +0.003 C 
ATOM     22  C   UNL     1       1.074  -1.700  -0.943  0.00  0.00    +0.002 C 
ATOM     23  C   UNL     1       1.691  -2.360   0.291  0.00  0.00    +0.020 C 
ATOM     24  C   UNL     1       0.846  -2.030   1.523  0.00  0.00    +0.080 C 
ATOM     25  C   UNL     1       0.805  -0.513   1.722  0.00  0.00    +0.007 C 
ATOM     26  C   UNL     1      -0.041  -0.183   2.953  0.00  0.00    +0.009 C 
ENDBRANCH  17  24
ENDBRANCH   1  17
TORSDOF 3
