REMARK  Name = ZINC48624945
REMARK  3 active torsions:
REMARK  status: ('A' for Active; 'I' for Inactive)
REMARK    1  A    between atoms: C_6  and  C_7
REMARK    2  A    between atoms: C_7  and  C_9
REMARK    3  A    between atoms: C_10  and  C_11
REMARK                            x       y       z     vdW  Elec       q    Type
REMARK                         _______ _______ _______ _____ _____    ______ ____
ROOT
ATOM      1  C   UNL     1      -1.244  -2.181   0.003  0.00  0.00    +0.052 C 
ATOM      2  C   UNL     1      -2.405  -2.876   0.011  0.00  0.00    +0.012 C 
ENDROOT
BRANCH   2   3
ATOM      3  C   UNL     1      -2.381  -4.345   0.002  0.00  0.00    -0.024 A 
ATOM      4  C   UNL     1      -1.161  -5.032  -0.007  0.00  0.00    +0.011 A 
ATOM      5  C   UNL     1      -1.142  -6.406  -0.010  0.00  0.00    +0.046 A 
ATOM      6  C   UNL     1      -2.336  -7.130  -0.004  0.00  0.00    +0.124 A 
ATOM      7  C   UNL     1      -3.547  -6.443  -0.003  0.00  0.00    -0.002 A 
ATOM      8  C   UNL     1      -3.579  -5.071   0.010  0.00  0.00    +0.015 A 
ATOM      9  C   UNL     1      -4.648  -7.485  -0.022  0.00  0.00    +0.080 C 
ATOM     10  C   UNL     1      -3.874  -8.760  -0.432  0.00  0.00    +0.234 C 
ATOM     11  O   UNL     1      -2.535  -8.476   0.007  0.00  0.00    -0.491 OA
ENDBRANCH   2   3
BRANCH   1  12
ATOM     12  C   UNL     1      -1.267  -0.764   0.011  0.00  0.00    +0.186 C 
ATOM     13  O   UNL     1      -2.331  -0.172   0.024  0.00  0.00    -0.287 OA
BRANCH  12  19
ATOM     14  C   UNL     1      -0.017   1.392   0.010  0.00  0.00    +0.013 A 
ATOM     15  C   UNL     1       1.169   2.095   0.002  0.00  0.00    +0.016 A 
ATOM     16  C   UNL     1       2.378   1.419  -0.013  0.00  0.00    +0.018 A 
ATOM     17  C   UNL     1       2.404   0.034  -0.021  0.00  0.00    +0.016 A 
ATOM     18  C   UNL     1       1.224  -0.680  -0.013  0.00  0.00    +0.013 A 
ATOM     19  C   UNL     1       0.002  -0.004   0.002  0.00  0.00    +0.022 A 
ATOM     20 BR   UNL     1       4.000   2.390  -0.025  0.00  0.00    -0.050 Br
ENDBRANCH  12  19
ENDBRANCH   1  12
TORSDOF 3
