REMARK  Name = ZINC24049067
REMARK  9 active torsions:
REMARK  status: ('A' for Active; 'I' for Inactive)
REMARK    1  A    between atoms: C_1  and  N_2
REMARK    2  A    between atoms: N_5  and  C_8
REMARK    3  A    between atoms: C_13  and  N_14
REMARK    4  A    between atoms: C_15  and  C_17
REMARK    5  A    between atoms: C_18  and  C_19
REMARK    6  A    between atoms: C_22  and  O_29
REMARK    7  A    between atoms: C_24  and  O_25
REMARK    8  A    between atoms: O_25  and  C_26
REMARK    9  A    between atoms: O_29  and  C_30
REMARK                            x       y       z     vdW  Elec       q    Type
REMARK                         _______ _______ _______ _____ _____    ______ ____
ROOT
ATOM      1  N   UNL     1      -0.757  -1.626  -2.148  0.00  0.00    -0.280 N 
ATOM      2  C   UNL     1      -0.775  -2.836  -2.743  0.00  0.00    +0.241 C 
ATOM      3  O   UNL     1      -1.645  -3.640  -2.462  0.00  0.00    -0.270 OA
ATOM      4  H   UNL     1      -0.016  -0.874  -2.455  0.00  0.00    +0.155 HD
ENDROOT
BRANCH   1  10
ATOM      5  C   UNL     1      -1.311  -0.515  -0.069  0.00  0.00    +0.051 A 
ATOM      6  C   UNL     1      -2.234  -0.218   0.923  0.00  0.00    +0.026 A 
ATOM      7  C   UNL     1      -3.515  -0.731   0.852  0.00  0.00    +0.022 A 
ATOM      8  C   UNL     1      -3.882  -1.542  -0.208  0.00  0.00    +0.043 A 
ATOM      9  C   UNL     1      -2.968  -1.843  -1.202  0.00  0.00    +0.045 A 
ATOM     10  C   UNL     1      -1.682  -1.328  -1.140  0.00  0.00    +0.056 A 
ATOM     11 CL   UNL     1      -5.493  -2.183  -0.290  0.00  0.00    -0.083 Cl
BRANCH   5  16
ATOM     12  C   UNL     1       3.476   2.031   1.252  0.00  0.00    -0.096 C 
ATOM     13  N   UNL     1       2.114   1.486   1.179  0.00  0.00    +0.380 N 
ATOM     14  C   UNL     1       1.403   2.001   0.000  0.00  0.00    -0.060 C 
ATOM     15  C   UNL     1      -0.034   1.474   0.003  0.00  0.00    +0.086 C 
ATOM     16  N   UNL     1      -0.013   0.005   0.001  0.00  0.00    -0.332 N 
ATOM     17  C   UNL     1       0.697  -0.511   1.179  0.00  0.00    +0.086 C 
ATOM     18  C   UNL     1       2.134   0.016   1.177  0.00  0.00    -0.060 C 
ATOM     19  H   UNL     1       1.570   1.817   2.075  0.00  0.00    -0.082 HD
ENDBRANCH   5  16
ENDBRANCH   1  10
BRANCH   2  20
ATOM     20  C   UNL     1       0.220  -3.173  -3.695  0.00  0.00    +0.068 C 
ATOM     21  C   UNL     1       0.202  -4.386  -4.291  0.00  0.00    +0.016 C 
BRANCH  21  22
ATOM     22  C   UNL     1       1.231  -4.734  -5.277  0.00  0.00    +0.017 A 
ATOM     23  C   UNL     1       2.231  -3.810  -5.607  0.00  0.00    +0.015 A 
ATOM     24  C   UNL     1       3.191  -4.139  -6.521  0.00  0.00    +0.046 A 
ATOM     25  C   UNL     1       3.178  -5.386  -7.138  0.00  0.00    +0.130 A 
ATOM     26  C   UNL     1       2.192  -6.311  -6.827  0.00  0.00    +0.092 A 
ATOM     27  C   UNL     1       1.216  -5.995  -5.899  0.00  0.00    +0.137 A 
BRANCH  27  28
ATOM     28  O   UNL     1       0.249  -6.895  -5.591  0.00  0.00    -0.434 OA
BRANCH  28  29
ATOM     29  C   UNL     1       0.298  -8.155  -6.264  0.00  0.00    +0.541 C 
ATOM     30  F   UNL     1       0.197  -7.952  -7.644  0.00  0.00    -0.166 F 
ATOM     31  F   UNL     1       1.510  -8.791  -5.974  0.00  0.00    -0.166 F 
ENDBRANCH  28  29
ENDBRANCH  27  28
BRANCH  25  32
ATOM     32  O   UNL     1       4.135  -5.699  -8.049  0.00  0.00    -0.434 OA
BRANCH  32  33
ATOM     33  C   UNL     1       5.120  -4.701  -8.323  0.00  0.00    +0.541 C 
ATOM     34  F   UNL     1       4.495  -3.550  -8.815  0.00  0.00    -0.166 F 
ATOM     35  F   UNL     1       5.809  -4.390  -7.146  0.00  0.00    -0.166 F 
ENDBRANCH  32  33
ENDBRANCH  25  32
ENDBRANCH  21  22
ENDBRANCH   2  20
TORSDOF 8
