REMARK  Name = ZINC04307964
REMARK  9 active torsions:
REMARK  status: ('A' for Active; 'I' for Inactive)
REMARK    1  A    between atoms: C_1  and  C_2
REMARK    2  A    between atoms: C_2  and  C_3
REMARK    3  A    between atoms: C_2  and  C_4
REMARK    4  A    between atoms: C_4  and  C_5
REMARK    5  A    between atoms: C_5  and  C_6
REMARK    6  A    between atoms: C_6  and  C_24
REMARK    7  A    between atoms: N_9  and  C_13
REMARK    8  A    between atoms: C_13  and  C_14
REMARK    9  A    between atoms: N_16  and  C_17
REMARK                            x       y       z     vdW  Elec       q    Type
REMARK                         _______ _______ _______ _____ _____    ______ ____
ROOT
ATOM      1  C   UNL     1       4.876   4.032  -0.043  0.00  0.00    +0.110 C 
ATOM      2  C   UNL     1       3.931   3.078   0.658  0.00  0.00    +0.247 C 
ATOM      3  O   UNL     1       3.687   3.028   1.845  0.00  0.00    -0.273 OA
ATOM      4  N   UNL     1       3.417   2.296  -0.312  0.00  0.00    -0.215 N 
ATOM      5  C   UNL     1       3.905   2.617  -1.515  0.00  0.00    +0.310 C 
ATOM      6  O   UNL     1       3.593   2.050  -2.544  0.00  0.00    -0.252 OA
ATOM      7  N   UNL     1       4.776   3.641  -1.460  0.00  0.00    -0.285 N 
ATOM      8  C   UNL     1       4.422   5.480   0.152  0.00  0.00    +0.041 C 
ATOM      9  H   UNL     1       5.248   4.040  -2.207  0.00  0.00    +0.151 HD
ENDROOT
BRANCH   1  10
ATOM     10  C   UNL     1       6.306   3.845   0.467  0.00  0.00    +0.035 C 
BRANCH  10  11
ATOM     11  C   UNL     1       7.238   4.820  -0.257  0.00  0.00    +0.005 C 
BRANCH  11  13
ATOM     12  C   UNL     1       9.618   5.517  -0.557  0.00  0.00    +0.007 C 
ATOM     13  C   UNL     1       8.668   4.633   0.253  0.00  0.00    -0.017 C 
ATOM     14  C   UNL     1       8.739   5.027   1.730  0.00  0.00    +0.007 C 
ENDBRANCH  11  13
ENDBRANCH  10  11
ENDBRANCH   1  10
BRANCH   4  15
ATOM     15  C   UNL     1       2.448   1.222  -0.076  0.00  0.00    +0.214 C 
BRANCH  15  16
ATOM     16  C   UNL     1       1.050   1.777  -0.174  0.00  0.00    +0.235 C 
ATOM     17  O   UNL     1       0.880   2.953  -0.417  0.00  0.00    -0.274 OA
ATOM     18  N   UNL     1      -0.011   0.966   0.007  0.00  0.00    -0.284 N 
ATOM     19  H   UNL     1       0.122   0.012   0.124  0.00  0.00    +0.155 HD
BRANCH  18  20
ATOM     20  C   UNL     1      -1.305   1.499   0.022  0.00  0.00    +0.035 A 
ATOM     21  C   UNL     1      -1.528   2.770   0.536  0.00  0.00    +0.023 A 
ATOM     22  C   UNL     1      -2.805   3.295   0.546  0.00  0.00    +0.003 A 
ATOM     23  C   UNL     1      -3.863   2.554   0.053  0.00  0.00    +0.020 A 
ATOM     24  C   UNL     1      -3.646   1.286  -0.456  0.00  0.00    +0.043 A 
ATOM     25  C   UNL     1      -2.369   0.756  -0.472  0.00  0.00    +0.043 A 
ATOM     26 CL   UNL     1      -4.977   0.359  -1.073  0.00  0.00    -0.083 Cl
ENDBRANCH  18  20
ENDBRANCH  15  16
ENDBRANCH   4  15
TORSDOF 6
