REMARK  Name = ZINC40140494
REMARK  11 active torsions:
REMARK  status: ('A' for Active; 'I' for Inactive)
REMARK    1  A    between atoms: C_1  and  C_2
REMARK    2  A    between atoms: C_2  and  C_3
REMARK    3  A    between atoms: C_3  and  C_4
REMARK    4  A    between atoms: C_4  and  N_5
REMARK    5  A    between atoms: C_6  and  N_31
REMARK    6  A    between atoms: C_7  and  N_14
REMARK    7  A    between atoms: N_14  and  C_15
REMARK    8  A    between atoms: C_15  and  C_16
REMARK    9  A    between atoms: C_21  and  C_23
REMARK   10  A    between atoms: C_23  and  O_24
REMARK   11  A    between atoms: O_24  and  C_25
REMARK                            x       y       z     vdW  Elec       q    Type
REMARK                         _______ _______ _______ _____ _____    ______ ____
ROOT
ATOM      1  N   UNL     1       0.830  -3.323  -6.013  0.00  0.00    -0.255 N 
ATOM      2  C   UNL     1      -0.423  -2.836  -6.132  0.00  0.00    +0.246 C 
ATOM      3  O   UNL     1      -1.035  -2.490  -5.144  0.00  0.00    -0.273 OA
ENDROOT
BRANCH   1   6
ATOM      4  N   UNL     1       3.166  -2.596  -3.271  0.00  0.00    -0.280 N 
ATOM      5  C   UNL     1       2.571  -2.556  -4.511  0.00  0.00    +0.127 A 
ATOM      6  C   UNL     1       1.463  -3.342  -4.752  0.00  0.00    +0.140 A 
ATOM      7  C   UNL     1       0.974  -4.162  -3.718  0.00  0.00    +0.277 A 
ATOM      8  O   UNL     1      -0.004  -4.867  -3.903  0.00  0.00    -0.266 OA
ATOM      9  N   UNL     1       1.593  -4.164  -2.521  0.00  0.00    -0.273 N 
ATOM     10  H   UNL     1       1.258  -4.729  -1.808  0.00  0.00    +0.173 HD
ATOM     11  C   UNL     1       2.676  -3.395  -2.306  0.00  0.00    +0.331 A 
ATOM     12  O   UNL     1       3.219  -3.420  -1.219  0.00  0.00    -0.246 OA
BRANCH   5  13
ATOM     13  N   UNL     1       3.075  -1.743  -5.498  0.00  0.00    -0.343 N 
ATOM     14  H   UNL     1       3.821  -1.154  -5.307  0.00  0.00    +0.144 HD
ATOM     15  H   UNL     1       2.684  -1.759  -6.386  0.00  0.00    +0.144 HD
ENDBRANCH   5  13
BRANCH   4  16
ATOM     16  C   UNL     1       4.343  -1.767  -3.002  0.00  0.00    +0.128 C 
BRANCH  16  17
ATOM     17  C   UNL     1       5.610  -2.548  -3.359  0.00  0.00    +0.021 C 
BRANCH  17  19
ATOM     18  C   UNL     1       8.105  -2.463  -3.436  0.00  0.00    +0.004 C 
ATOM     19  C   UNL     1       6.839  -1.682  -3.078  0.00  0.00    -0.002 C 
ENDBRANCH  17  19
ENDBRANCH  16  17
ENDBRANCH   4  16
ENDBRANCH   1   6
BRANCH   1  20
ATOM     20  C   UNL     1       1.534  -3.832  -7.193  0.00  0.00    +0.188 C 
BRANCH  20  21
ATOM     21  C   UNL     1       1.334  -5.323  -7.292  0.00  0.00    +0.122 A 
ATOM     22  C   UNL     1       0.337  -5.940  -7.952  0.00  0.00    +0.046 A 
ATOM     23  C   UNL     1       0.536  -7.330  -7.785  0.00  0.00    +0.041 A 
ATOM     24  C   UNL     1       1.641  -7.479  -7.033  0.00  0.00    +0.195 A 
ATOM     25  O   UNL     1       2.124  -6.259  -6.743  0.00  0.00    -0.466 OA
ENDBRANCH  20  21
ENDBRANCH   1  20
BRANCH   2  26
ATOM     26  C   UNL     1      -1.061  -2.723  -7.492  0.00  0.00    +0.256 C 
BRANCH  26  27
ATOM     27  O   UNL     1      -2.377  -2.184  -7.357  0.00  0.00    -0.367 OA
BRANCH  27  28
ATOM     28  C   UNL     1      -3.074  -2.035  -8.596  0.00  0.00    +0.119 C 
ATOM     29  C   UNL     1      -2.791  -0.648  -9.177  0.00  0.00    +0.031 C 
ATOM     30  C   UNL     1      -3.537  -0.488 -10.503  0.00  0.00    +0.003 C 
ATOM     31  C   UNL     1      -5.040  -0.644 -10.265  0.00  0.00    +0.000 C 
ATOM     32  C   UNL     1      -5.323  -2.032  -9.684  0.00  0.00    +0.003 C 
ATOM     33  C   UNL     1      -4.577  -2.191  -8.358  0.00  0.00    +0.031 C 
ENDBRANCH  27  28
ENDBRANCH  26  27
ENDBRANCH   2  26
TORSDOF 10
