REMARK  Name = ZINC64137023
REMARK  8 active torsions:
REMARK  status: ('A' for Active; 'I' for Inactive)
REMARK    1  A    between atoms: C_1  and  C_2
REMARK    2  A    between atoms: C_5  and  O_31
REMARK    3  A    between atoms: C_7  and  O_30
REMARK    4  A    between atoms: C_13  and  C_15
REMARK    5  A    between atoms: C_15  and  C_16
REMARK    6  A    between atoms: N_18  and  C_19
REMARK    7  A    between atoms: C_19  and  C_20
REMARK    8  A    between atoms: C_20  and  C_21
REMARK                            x       y       z     vdW  Elec       q    Type
REMARK                         _______ _______ _______ _____ _____    ______ ____
ROOT
ATOM      1  C   UNL     1       2.104   0.274   1.291  0.00  0.00    +0.111 C 
ENDROOT
BRANCH   1  13
ATOM      2  C   UNL     1      -0.042   1.507   0.018  0.00  0.00    +0.013 C 
ATOM      3  C   UNL     1      -0.021  -0.022  -0.002  0.00  0.00    +0.037 C 
ATOM      4  C   UNL     1       0.583  -0.499  -1.299  0.00  0.00    +0.040 A 
ATOM      5  C   UNL     1       0.259   0.180  -2.469  0.00  0.00    +0.127 A 
ATOM      6  C   UNL     1       0.785  -0.227  -3.683  0.00  0.00    +0.091 A 
ATOM      7  C   UNL     1       1.639  -1.319  -3.735  0.00  0.00    +0.124 A 
ATOM      8  C   UNL     1       1.965  -1.994  -2.571  0.00  0.00    +0.092 A 
ATOM      9  C   UNL     1       1.440  -1.583  -1.350  0.00  0.00    +0.142 A 
ATOM     10  O   UNL     1       1.802  -2.265  -0.230  0.00  0.00    -0.425 OA
ATOM     11  C   UNL     1       1.136  -1.991   0.910  0.00  0.00    +0.317 C 
ATOM     12  O   UNL     1       0.814  -2.865   1.680  0.00  0.00    -0.250 OA
ATOM     13  C   UNL     1       0.811  -0.535   1.177  0.00  0.00    +0.114 C 
BRANCH   7  14
ATOM     14  O   UNL     1       2.155  -1.724  -4.925  0.00  0.00    -0.507 OA
ATOM     15  H   UNL     1       2.997  -1.305  -5.152  0.00  0.00    +0.292 HD
ENDBRANCH   7  14
BRANCH   5  16
ATOM     16  O   UNL     1      -0.580   1.249  -2.421  0.00  0.00    -0.506 OA
ATOM     17  H   UNL     1      -0.127   2.102  -2.374  0.00  0.00    +0.292 HD
ENDBRANCH   5  16
ENDBRANCH   1  13
BRANCH   1  18
ATOM     18  C   UNL     1       2.857  -0.154   2.524  0.00  0.00    +0.214 C 
ATOM     19  O   UNL     1       2.405  -1.021   3.241  0.00  0.00    -0.276 OA
ATOM     20  N   UNL     1       4.035   0.426   2.830  0.00  0.00    -0.315 N 
ATOM     21  H   UNL     1       4.397   1.120   2.257  0.00  0.00    +0.149 HD
BRANCH  20  22
ATOM     22  C   UNL     1       4.767   0.010   4.029  0.00  0.00    +0.108 C 
BRANCH  22  23
ATOM     23  C   UNL     1       6.061   0.820   4.143  0.00  0.00    +0.052 C 
BRANCH  23  24
ATOM     24  C   UNL     1       6.814   0.392   5.375  0.00  0.00    -0.040 C 
ATOM     25  C   UNL     1       7.811  -0.520   5.444  0.00  0.00    -0.001 A 
ATOM     26  C   UNL     1       8.465  -1.355   4.430  0.00  0.00    +0.010 A 
ATOM     27  C   UNL     1       9.456  -2.194   4.810  0.00  0.00    +0.001 A 
ATOM     28  C   UNL     1       9.872  -2.285   6.146  0.00  0.00    +0.002 A 
ATOM     29  C   UNL     1       9.319  -1.550   7.133  0.00  0.00    +0.026 A 
ATOM     30  C   UNL     1       8.268  -0.635   6.847  0.00  0.00    +0.043 A 
ATOM     31  N   UNL     1       7.582   0.174   7.616  0.00  0.00    -0.380 N 
ATOM     32  C   UNL     1       6.614   0.899   6.786  0.00  0.00    +0.144 C 
ATOM     33  H   UNL     1       7.697   0.279   8.573  0.00  0.00    +0.160 HD
ENDBRANCH  23  24
ENDBRANCH  22  23
ENDBRANCH  20  22
ENDBRANCH   1  18
TORSDOF 7
