REMARK  Name = ZINC45326786
REMARK  7 active torsions:
REMARK  status: ('A' for Active; 'I' for Inactive)
REMARK    1  A    between atoms: C_1  and  C_2
REMARK    2  A    between atoms: C_3  and  C_20
REMARK    3  A    between atoms: C_4  and  C_10
REMARK    4  A    between atoms: C_13  and  C_16
REMARK    5  A    between atoms: C_16  and  O_18
REMARK    6  A    between atoms: O_18  and  C_19
REMARK    7  A    between atoms: N_22  and  C_23
REMARK                            x       y       z     vdW  Elec       q    Type
REMARK                         _______ _______ _______ _____ _____    ______ ____
ROOT
ATOM      1  C   UNL     1       0.680   1.546  -1.518  0.00  0.00    +0.061 C 
ATOM      2  C   UNL     1       0.611   0.210  -0.825  0.00  0.00    +0.017 C 
ATOM      3  C   UNL     1      -0.526  -0.153  -0.194  0.00  0.00    +0.056 C 
ATOM      4  C   UNL     1      -0.552  -1.505   0.490  0.00  0.00    +0.139 C 
ATOM      5  N   UNL     1       0.674  -2.317   0.411  0.00  0.00    -0.315 N 
ATOM      6  C   UNL     1       1.732  -1.816  -0.257  0.00  0.00    +0.135 C 
ATOM      7  S   UNL     1       3.164  -2.749  -0.358  0.00  0.00    -0.019 S 
ATOM      8  N   UNL     1       1.698  -0.616  -0.849  0.00  0.00    -0.300 N 
ATOM      9  H   UNL     1       0.719  -3.191   0.829  0.00  0.00    +0.149 HD
ATOM     10  H   UNL     1       2.492  -0.314  -1.318  0.00  0.00    +0.154 HD
ENDROOT
BRANCH   4  11
ATOM     11  C   UNL     1      -1.679  -2.307  -0.108  0.00  0.00    -0.023 A 
ATOM     12  C   UNL     1      -1.518  -2.904  -1.346  0.00  0.00    +0.006 A 
ATOM     13  C   UNL     1      -2.545  -3.639  -1.900  0.00  0.00    +0.015 A 
ATOM     14  C   UNL     1      -3.750  -3.780  -1.208  0.00  0.00    +0.059 A 
ATOM     15  C   UNL     1      -3.906  -3.175   0.041  0.00  0.00    +0.015 A 
ATOM     16  C   UNL     1      -2.868  -2.447   0.585  0.00  0.00    +0.006 A 
BRANCH  14  17
ATOM     17  C   UNL     1      -4.855  -4.566  -1.795  0.00  0.00    +0.339 C 
ATOM     18  O   UNL     1      -4.716  -5.091  -2.881  0.00  0.00    -0.245 OA
BRANCH  17  19
ATOM     19  O   UNL     1      -6.016  -4.701  -1.125  0.00  0.00    -0.464 OA
ATOM     20  C   UNL     1      -7.041  -5.474  -1.752  0.00  0.00    +0.280 C 
ENDBRANCH  17  19
ENDBRANCH  14  17
ENDBRANCH   4  11
BRANCH   3  21
ATOM     21  C   UNL     1      -1.656   0.700  -0.173  0.00  0.00    +0.248 C 
ATOM     22  O   UNL     1      -1.920   1.336   0.831  0.00  0.00    -0.270 OA
ATOM     23  N   UNL     1      -2.439   0.809  -1.264  0.00  0.00    -0.282 N 
ATOM     24  H   UNL     1      -2.277   0.243  -2.036  0.00  0.00    +0.155 HD
BRANCH  23  25
ATOM     25  C   UNL     1      -3.485   1.737  -1.285  0.00  0.00    +0.034 A 
ATOM     26  C   UNL     1      -4.232   1.969  -0.138  0.00  0.00    +0.024 A 
ATOM     27  C   UNL     1      -5.264   2.887  -0.161  0.00  0.00    +0.017 A 
ATOM     28  C   UNL     1      -5.554   3.575  -1.326  0.00  0.00    +0.018 A 
ATOM     29  C   UNL     1      -4.812   3.345  -2.471  0.00  0.00    +0.017 A 
ATOM     30  C   UNL     1      -3.775   2.433  -2.452  0.00  0.00    +0.024 A 
ATOM     31 BR   UNL     1      -6.968   4.830  -1.354  0.00  0.00    -0.050 Br
ENDBRANCH  23  25
ENDBRANCH   3  21
TORSDOF 5
