REMARK  Name = ZINC40435439
REMARK  6 active torsions:
REMARK  status: ('A' for Active; 'I' for Inactive)
REMARK    1  A    between atoms: C_1  and  C_2
REMARK    2  A    between atoms: C_5  and  S_9
REMARK    3  A    between atoms: S_9  and  N_12
REMARK    4  A    between atoms: N_12  and  C_13
REMARK    5  A    between atoms: C_13  and  C_14
REMARK    6  A    between atoms: C_18  and  C_20
REMARK                            x       y       z     vdW  Elec       q    Type
REMARK                         _______ _______ _______ _____ _____    ______ ____
ROOT
ATOM      1  S   UNL     1       0.014  -4.673   0.008  0.00  0.00    +0.060 S 
ATOM      2  O   UNL     1      -0.857  -5.344   0.909  0.00  0.00    -0.153 OA
ATOM      3  O   UNL     1      -0.019  -4.901  -1.395  0.00  0.00    -0.153 OA
ENDROOT
BRANCH   1   8
ATOM      4  C   UNL     1      -0.890   1.238   0.817  0.00  0.00    +0.044 C 
ATOM      5  C   UNL     1      -0.664  -0.238   0.614  0.00  0.00    -0.049 A 
ATOM      6  C   UNL     1      -1.408  -1.156   1.332  0.00  0.00    +0.005 A 
ATOM      7  C   UNL     1      -1.202  -2.510   1.146  0.00  0.00    +0.030 A 
ATOM      8  C   UNL     1      -0.251  -2.947   0.243  0.00  0.00    +0.119 A 
ATOM      9  C   UNL     1       0.494  -2.029  -0.475  0.00  0.00    +0.044 A 
ATOM     10  C   UNL     1       0.283  -0.674  -0.293  0.00  0.00    +0.020 A 
ATOM     11 BR   UNL     1       1.795  -2.626  -1.711  0.00  0.00    -0.048 Br
ENDBRANCH   1   8
BRANCH   1  12
ATOM     12  N   UNL     1       1.558  -5.005   0.505  0.00  0.00    -0.186 NA
ATOM     13  H   UNL     1       2.214  -5.327  -0.132  0.00  0.00    +0.148 HD
BRANCH  12  14
ATOM     14  C   UNL     1       1.933  -4.810   1.908  0.00  0.00    +0.141 C 
BRANCH  14  15
ATOM     15  C   UNL     1       3.224  -5.536   2.188  0.00  0.00    -0.031 A 
ATOM     16  C   UNL     1       3.197  -6.853   2.613  0.00  0.00    +0.005 A 
ATOM     17  C   UNL     1       4.377  -7.526   2.872  0.00  0.00    +0.002 A 
ATOM     18  C   UNL     1       5.590  -6.888   2.709  0.00  0.00    +0.019 A 
ATOM     19  C   UNL     1       5.624  -5.560   2.281  0.00  0.00    +0.052 A 
ATOM     20  C   UNL     1       4.429  -4.888   2.016  0.00  0.00    +0.023 A 
BRANCH  19  21
ATOM     21  C   UNL     1       6.878  -4.891   2.109  0.00  0.00    +0.099 C 
ATOM     22  N   UNL     1       7.874  -4.361   1.973  0.00  0.00    -0.191 NA
ENDBRANCH  19  21
ENDBRANCH  14  15
ENDBRANCH  12  14
ENDBRANCH   1  12
TORSDOF 5
