REMARK  Name = ZINC12010167
REMARK  5 active torsions:
REMARK  status: ('A' for Active; 'I' for Inactive)
REMARK    1  A    between atoms: C_3  and  C_6
REMARK    2  A    between atoms: C_8  and  N_23
REMARK    3  A    between atoms: C_24  and  C_26
REMARK    4  A    between atoms: C_26  and  C_27
REMARK    5  A    between atoms: C_27  and  C_28
REMARK                            x       y       z     vdW  Elec       q    Type
REMARK                         _______ _______ _______ _____ _____    ______ ____
ROOT
ATOM      1  C   UNL     1       1.116   1.923   0.002  0.00  0.00    +0.130 A 
ATOM      2  C   UNL     1      -0.013   1.076   0.008  0.00  0.00    +0.077 A 
ATOM      3  C   UNL     1      -1.120   1.860   0.017  0.00  0.00    +0.132 A 
ATOM      4  N   UNL     1      -0.706   3.162   0.025  0.00  0.00    -0.184 N 
ATOM      5  N   UNL     1       0.695   3.171   0.012  0.00  0.00    -0.159 NA
ATOM      6  C   UNL     1      -1.525   4.274   0.037  0.00  0.00    +0.234 A 
ATOM      7  N   UNL     1      -0.968   5.515   0.038  0.00  0.00    -0.291 N 
ATOM      8  H   UNL     1      -0.004   5.618   0.027  0.00  0.00    +0.172 HD
ATOM      9  C   UNL     1      -1.767   6.601   0.054  0.00  0.00    +0.256 A 
ATOM     10  O   UNL     1      -1.287   7.722   0.054  0.00  0.00    -0.267 OA
ATOM     11  C   UNL     1      -3.168   6.422   0.072  0.00  0.00    +0.038 A 
ATOM     12  C   UNL     1      -3.668   5.160   0.062  0.00  0.00    +0.053 A 
ATOM     13  N   UNL     1      -2.828   4.117   0.042  0.00  0.00    -0.217 NA
ATOM     14  C   UNL     1      -5.146   4.871   0.057  0.00  0.00    +0.056 C 
ATOM     15  C   UNL     1      -5.934   6.097   0.515  0.00  0.00    +0.006 C 
ATOM     16  C   UNL     1      -5.469   7.306  -0.306  0.00  0.00    +0.005 C 
ATOM     17  C   UNL     1      -4.039   7.648   0.111  0.00  0.00    +0.042 C 
ENDROOT
BRANCH   1  20
ATOM     18  C   UNL     1       4.750   1.463  -0.033  0.00  0.00    +0.042 A 
ATOM     19  C   UNL     1       3.616   2.300  -0.024  0.00  0.00    +0.051 A 
ATOM     20  C   UNL     1       2.528   1.485  -0.013  0.00  0.00    +0.155 A 
ATOM     21  O   UNL     1       2.960   0.209  -0.022  0.00  0.00    -0.461 OA
ATOM     22  C   UNL     1       4.303   0.192  -0.035  0.00  0.00    +0.196 A 
ENDBRANCH   1  20
BRANCH   3  23
ATOM     23  N   UNL     1      -2.441   1.417   0.021  0.00  0.00    -0.270 N 
ATOM     24  C   UNL     1      -2.709   0.097   0.016  0.00  0.00    +0.218 C 
ATOM     25  O   UNL     1      -1.800  -0.707   0.008  0.00  0.00    -0.275 OA
ATOM     26  H   UNL     1      -3.167   2.060   0.027  0.00  0.00    +0.156 HD
BRANCH  24  27
ATOM     27  C   UNL     1      -4.138  -0.382   0.020  0.00  0.00    +0.096 C 
BRANCH  27  28
ATOM     28  C   UNL     1      -4.163  -1.912   0.013  0.00  0.00    +0.013 C 
BRANCH  28  29
ATOM     29  C   UNL     1      -5.613  -2.398   0.017  0.00  0.00    -0.011 C 
ATOM     30  C   UNL     1      -6.282  -2.054   1.364  0.00  0.00    +0.003 C 
ATOM     31  C   UNL     1      -7.198  -3.269   1.655  0.00  0.00    +0.000 C 
ATOM     32  C   UNL     1      -6.349  -4.464   1.155  0.00  0.00    +0.000 C 
ATOM     33  C   UNL     1      -5.656  -3.931  -0.115  0.00  0.00    +0.003 C 
ENDBRANCH  28  29
ENDBRANCH  27  28
ENDBRANCH  24  27
ENDBRANCH   3  23
TORSDOF 5
