REMARK  Name = ZINC36865508
REMARK  3 active torsions:
REMARK  status: ('A' for Active; 'I' for Inactive)
REMARK    1  A    between atoms: C_1  and  C_2
REMARK    2  A    between atoms: C_5  and  C_21
REMARK    3  A    between atoms: N_14  and  C_15
REMARK                            x       y       z     vdW  Elec       q    Type
REMARK                         _______ _______ _______ _____ _____    ______ ____
ROOT
ATOM      1  C   UNL     1      -1.030   0.998   0.761  0.00  0.00    +0.009 C 
ATOM      2  C   UNL     1      -0.791  -0.512   0.814  0.00  0.00    +0.004 C 
ATOM      3  C   UNL     1      -2.058  -1.212   1.310  0.00  0.00    +0.009 C 
ATOM      4  C   UNL     1      -1.832  -2.726   1.332  0.00  0.00    +0.004 C 
ATOM      5  C   UNL     1      -0.688  -3.053   2.298  0.00  0.00    +0.111 C 
ATOM      6  N   UNL     1       0.494  -2.271   1.912  0.00  0.00    -0.299 N 
ATOM      7  C   UNL     1       0.364  -0.814   1.773  0.00  0.00    +0.111 C 
ATOM      8  C   UNL     1       1.711  -2.896   1.684  0.00  0.00    +0.218 A 
ATOM      9  N   UNL     1       1.874  -4.052   1.108  0.00  0.00    -0.137 NA
ATOM     10  N   UNL     1       3.248  -4.328   1.070  0.00  0.00    -0.253 N 
ATOM     11  C   UNL     1       3.884  -3.287   1.647  0.00  0.00    +0.177 A 
ATOM     12  N   UNL     1       2.946  -2.396   2.024  0.00  0.00    -0.288 N 
ATOM     13  S   UNL     1       5.576  -3.125   1.856  0.00  0.00    -0.011 S 
ATOM     14  C   UNL     1      -3.110  -3.427   1.797  0.00  0.00    +0.009 C 
ATOM     15  H   UNL     1       3.665  -5.120   0.697  0.00  0.00    +0.191 HD
ENDROOT
BRANCH  12  16
ATOM     16  C   UNL     1       3.199  -1.114   2.687  0.00  0.00    +0.092 C 
ATOM     17  C   UNL     1       3.718  -1.352   4.120  0.00  0.00    +0.025 C 
ATOM     18  C   UNL     1       5.259  -1.277   3.983  0.00  0.00    +0.002 C 
ATOM     19  C   UNL     1       5.456  -0.142   2.947  0.00  0.00    +0.002 C 
ATOM     20  C   UNL     1       4.304  -0.344   1.941  0.00  0.00    +0.025 C 
ENDBRANCH  12  16
TORSDOF 1
