REMARK  Name = ZINC59363098
REMARK  6 active torsions:
REMARK  status: ('A' for Active; 'I' for Inactive)
REMARK    1  A    between atoms: C_1  and  C_2
REMARK    2  A    between atoms: C_2  and  C_4
REMARK    3  A    between atoms: C_2  and  N_11
REMARK    4  A    between atoms: C_12  and  C_14
REMARK    5  A    between atoms: C_18  and  N_21
REMARK    6  A    between atoms: C_19  and  N_20
REMARK                            x       y       z     vdW  Elec       q    Type
REMARK                         _______ _______ _______ _____ _____    ______ ____
ROOT
ATOM      1  N   UNL     1       0.695  -1.502  -0.980  0.00  0.00    -0.305 N 
ATOM      2  C   UNL     1       2.041  -1.452  -1.036  0.00  0.00    +0.246 C 
ATOM      3  O   UNL     1       2.690  -1.380  -0.010  0.00  0.00    -0.270 OA
ATOM      4  H   UNL     1       0.177  -1.560  -1.798  0.00  0.00    +0.150 HD
ENDROOT
BRANCH   2   5
ATOM      5  C   UNL     1       2.726  -1.482  -2.341  0.00  0.00    +0.062 A 
ATOM      6  C   UNL     1       1.994  -1.684  -3.515  0.00  0.00    +0.053 A 
ATOM      7  C   UNL     1       2.641  -1.712  -4.732  0.00  0.00    +0.126 A 
ATOM      8  C   UNL     1       4.017  -1.541  -4.798  0.00  0.00    +0.073 A 
ATOM      9  C   UNL     1       4.751  -1.341  -3.647  0.00  0.00    +0.150 A 
ATOM     10  C   UNL     1       4.115  -1.304  -2.413  0.00  0.00    +0.068 A 
ATOM     11  F   UNL     1       1.933  -1.907  -5.866  0.00  0.00    -0.205 F 
BRANCH  10  12
ATOM     12  N   UNL     1       4.854  -1.096  -1.254  0.00  0.00    -0.356 N 
ATOM     13  H   UNL     1       5.754  -1.449  -1.182  0.00  0.00    +0.142 HD
ATOM     14  H   UNL     1       4.468  -0.599  -0.516  0.00  0.00    +0.142 HD
ENDBRANCH  10  12
BRANCH   9  15
ATOM     15  N   UNL     1       6.218  -1.161  -3.729  0.00  0.00    +0.058 N 
ATOM     16  O   UNL     1       6.786  -1.297  -4.788  0.00  0.00    -0.126 OA
ATOM     17  O   UNL     1       6.849  -0.878  -2.737  0.00  0.00    -0.126 OA
ENDBRANCH   9  15
ENDBRANCH   2   5
BRANCH   1  19
ATOM     18  C   UNL     1      -0.169  -0.020   0.763  0.00  0.00    +0.033 C 
ATOM     19  C   UNL     1       0.014  -1.472   0.317  0.00  0.00    +0.100 C 
BRANCH  19  20
ATOM     20  C   UNL     1      -1.335  -2.133   0.192  0.00  0.00    -0.026 A 
ATOM     21  C   UNL     1      -2.104  -1.925  -0.938  0.00  0.00    +0.005 A 
ATOM     22  C   UNL     1      -3.341  -2.530  -1.053  0.00  0.00    +0.001 A 
ATOM     23  C   UNL     1      -3.809  -3.345  -0.038  0.00  0.00    +0.015 A 
ATOM     24  C   UNL     1      -3.040  -3.553   1.091  0.00  0.00    +0.018 A 
ATOM     25  C   UNL     1      -1.799  -2.951   1.204  0.00  0.00    +0.020 A 
ATOM     26 BR   UNL     1      -3.680  -4.666   2.480  0.00  0.00    -0.050 Br
ENDBRANCH  19  20
ENDBRANCH   1  19
TORSDOF 5
