REMARK  Name = ZINC39926930
REMARK  4 active torsions:
REMARK  status: ('A' for Active; 'I' for Inactive)
REMARK    1  A    between atoms: C_1  and  C_2
REMARK    2  A    between atoms: C_7  and  C_8
REMARK    3  A    between atoms: C_8  and  S_9
REMARK    4  A    between atoms: S_9  and  C_10
REMARK                            x       y       z     vdW  Elec       q    Type
REMARK                         _______ _______ _______ _____ _____    ______ ____
ROOT
ATOM      1  C   UNL     1      -1.513   1.192   4.568  0.00  0.00    +0.207 C 
ATOM      2  N   UNL     1      -0.302   1.463   4.992  0.00  0.00    -0.227 NA
ATOM      3  C   UNL     1      -0.171   2.255   6.213  0.00  0.00    +0.252 C 
ATOM      4  C   UNL     1      -1.414   1.970   7.044  0.00  0.00    +0.117 C 
ATOM      5  C   UNL     1      -0.960   1.680   8.295  0.00  0.00    +0.025 A 
ATOM      6  C   UNL     1      -1.631   1.440   9.519  0.00  0.00    +0.012 A 
ATOM      7  C   UNL     1      -0.866   1.157  10.607  0.00  0.00    +0.001 A 
ATOM      8  C   UNL     1       0.531   1.091  10.590  0.00  0.00    +0.002 A 
ATOM      9  C   UNL     1       1.278   1.310   9.476  0.00  0.00    +0.026 A 
ATOM     10  C   UNL     1       0.534   1.630   8.247  0.00  0.00    +0.046 A 
ATOM     11  N   UNL     1       0.965   1.903   7.053  0.00  0.00    -0.358 N 
ATOM     12  N   UNL     1      -2.624   1.904   6.480  0.00  0.00    -0.147 NA
ATOM     13  N   UNL     1      -2.641   1.548   5.230  0.00  0.00    -0.122 NA
ATOM     14  H   UNL     1       1.892   1.876   6.768  0.00  0.00    +0.162 HD
ENDROOT
BRANCH   1  15
ATOM     15  S   UNL     1      -1.684   0.321   3.046  0.00  0.00    -0.080 S 
BRANCH  15  16
ATOM     16  C   UNL     1       0.025   0.045   2.504  0.00  0.00    +0.112 C 
BRANCH  16  23
ATOM     17  C   UNL     1      -0.018   1.503   0.010  0.00  0.00    +0.044 C 
ATOM     18  C   UNL     1       0.002  -0.004   0.002  0.00  0.00    -0.046 A 
ATOM     19  C   UNL     1       0.006  -0.689  -1.199  0.00  0.00    +0.003 A 
ATOM     20  C   UNL     1       0.025  -2.071  -1.207  0.00  0.00    +0.000 A 
ATOM     21  C   UNL     1       0.040  -2.768  -0.013  0.00  0.00    +0.000 A 
ATOM     22  C   UNL     1       0.037  -2.084   1.188  0.00  0.00    +0.005 A 
ATOM     23  C   UNL     1       0.023  -0.702   1.195  0.00  0.00    -0.034 A 
ENDBRANCH  16  23
ENDBRANCH  15  16
ENDBRANCH   1  15
TORSDOF 3
