REMARK  Name = ZINC12411412
REMARK  13 active torsions:
REMARK  status: ('A' for Active; 'I' for Inactive)
REMARK    1  A    between atoms: C_1  and  C_2
REMARK    2  A    between atoms: C_2  and  O_3
REMARK    3  A    between atoms: O_3  and  C_4
REMARK    4  A    between atoms: C_6  and  C_17
REMARK    5  A    between atoms: C_9  and  O_10
REMARK    6  A    between atoms: O_10  and  C_11
REMARK    7  A    between atoms: C_11  and  C_12
REMARK    8  A    between atoms: C_12  and  O_14
REMARK    9  A    between atoms: O_14  and  C_15
REMARK   10  A    between atoms: N_21  and  C_25
REMARK   11  A    between atoms: C_25  and  C_26
REMARK   12  A    between atoms: N_28  and  C_29
REMARK   13  A    between atoms: C_32  and  C_35
REMARK                            x       y       z     vdW  Elec       q    Type
REMARK                         _______ _______ _______ _____ _____    ______ ____
ROOT
ATOM      1  C   UNL     1      -5.587   9.423   1.671  0.00  0.00    +0.028 C 
ATOM      2  C   UNL     1      -4.662   9.182   0.708  0.00  0.00    +0.080 C 
ATOM      3  C   UNL     1      -3.190   9.126   0.808  0.00  0.00    +0.261 C 
ATOM      4  O   UNL     1      -2.614   9.308   1.865  0.00  0.00    -0.269 OA
ATOM      5  N   UNL     1      -2.529   8.868  -0.308  0.00  0.00    -0.219 N 
ATOM      6  C   UNL     1      -3.171   8.672  -1.478  0.00  0.00    +0.286 C 
ATOM      7  O   UNL     1      -2.694   8.434  -2.571  0.00  0.00    -0.262 OA
ATOM      8  S   UNL     1      -4.892   8.845  -1.033  0.00  0.00    -0.026 S 
ENDROOT
BRANCH   1  11
ATOM      9  C   UNL     1      -3.873   8.621   4.910  0.00  0.00    +0.164 A 
ATOM     10  C   UNL     1      -4.256   8.557   3.584  0.00  0.00    +0.057 A 
ATOM     11  C   UNL     1      -5.179   9.482   3.081  0.00  0.00    -0.019 A 
ATOM     12  C   UNL     1      -5.718  10.459   3.927  0.00  0.00    +0.032 A 
ATOM     13  C   UNL     1      -5.333  10.511   5.250  0.00  0.00    +0.087 A 
ATOM     14  C   UNL     1      -4.413   9.596   5.746  0.00  0.00    +0.181 A 
ATOM     15 CL   UNL     1      -6.001  11.723   6.298  0.00  0.00    -0.080 Cl
BRANCH   9  16
ATOM     16  O   UNL     1      -2.972   7.728   5.400  0.00  0.00    -0.489 OA
BRANCH  16  18
ATOM     17  C   UNL     1      -1.468   5.845   5.215  0.00  0.00    +0.048 C 
ATOM     18  C   UNL     1      -2.460   6.755   4.487  0.00  0.00    +0.226 C 
ENDBRANCH  16  18
ENDBRANCH   9  16
BRANCH  14  19
ATOM     19  O   UNL     1      -4.037   9.653   7.051  0.00  0.00    -0.476 OA
BRANCH  19  20
ATOM     20  C   UNL     1      -4.808   8.891   7.982  0.00  0.00    +0.349 C 
BRANCH  20  21
ATOM     21  C   UNL     1      -4.248   9.076   9.368  0.00  0.00    +0.345 C 
ATOM     22  O   UNL     1      -3.287   9.787   9.542  0.00  0.00    -0.247 OA
BRANCH  21  23
ATOM     23  O   UNL     1      -4.817   8.450  10.411  0.00  0.00    -0.466 OA
ATOM     24  C   UNL     1      -4.224   8.674  11.718  0.00  0.00    +0.280 C 
ENDBRANCH  21  23
ENDBRANCH  20  21
ENDBRANCH  19  20
ENDBRANCH  14  19
ENDBRANCH   1  11
BRANCH   5  25
ATOM     25  C   UNL     1      -1.066   8.800  -0.274  0.00  0.00    +0.213 C 
BRANCH  25  26
ATOM     26  C   UNL     1      -0.636   7.385   0.017  0.00  0.00    +0.235 C 
ATOM     27  O   UNL     1      -1.470   6.519   0.180  0.00  0.00    -0.274 OA
ATOM     28  N   UNL     1       0.674   7.082   0.096  0.00  0.00    -0.284 N 
ATOM     29  H   UNL     1       1.339   7.786   0.046  0.00  0.00    +0.155 HD
BRANCH  28  30
ATOM     30  C   UNL     1       1.077   5.750   0.251  0.00  0.00    +0.033 A 
ATOM     31  C   UNL     1       0.293   4.723  -0.260  0.00  0.00    +0.023 A 
ATOM     32  C   UNL     1       0.693   3.410  -0.105  0.00  0.00    +0.005 A 
ATOM     33  C   UNL     1       1.871   3.118   0.557  0.00  0.00    -0.050 A 
ATOM     34  C   UNL     1       2.651   4.138   1.071  0.00  0.00    +0.005 A 
ATOM     35  C   UNL     1       2.259   5.453   0.915  0.00  0.00    +0.023 A 
ATOM     36  C   UNL     1       2.304   1.684   0.724  0.00  0.00    +0.044 C 
ENDBRANCH  28  30
ENDBRANCH  25  26
ENDBRANCH   5  25
TORSDOF 10
