REMARK  Name = ZINC07112374
REMARK  10 active torsions:
REMARK  status: ('A' for Active; 'I' for Inactive)
REMARK    1  A    between atoms: C_1  and  C_2
REMARK    2  A    between atoms: C_5  and  C_8
REMARK    3  A    between atoms: C_11  and  C_13
REMARK    4  A    between atoms: C_13  and  C_15
REMARK    5  A    between atoms: C_13  and  S_16
REMARK    6  A    between atoms: S_16  and  C_17
REMARK    7  A    between atoms: C_20  and  C_23
REMARK    8  A    between atoms: N_21  and  N_22
REMARK    9  A    between atoms: C_26  and  O_29
REMARK   10  A    between atoms: O_29  and  C_30
REMARK                            x       y       z     vdW  Elec       q    Type
REMARK                         _______ _______ _______ _____ _____    ______ ____
ROOT
ATOM      1  C   UNL     1      -0.003  -0.824  -1.091  0.00  0.00    +0.209 A 
ATOM      2  N   UNL     1       0.023  -2.061  -0.650  0.00  0.00    -0.121 NA
ATOM      3  N   UNL     1       0.035  -2.071   0.635  0.00  0.00    -0.127 NA
ATOM      4  C   UNL     1       0.024  -0.841   1.094  0.00  0.00    +0.182 A 
ATOM      5  N   UNL     1       0.002  -0.004   0.002  0.00  0.00    -0.224 N 
ENDROOT
BRANCH   4   6
ATOM      6  C   UNL     1       0.032  -0.433   2.514  0.00  0.00    +0.021 A 
ATOM      7  C   UNL     1       0.336   0.885   2.862  0.00  0.00    +0.015 A 
ATOM      8  C   UNL     1       0.338   1.263   4.187  0.00  0.00    +0.046 A 
ATOM      9  C   UNL     1       0.048   0.333   5.177  0.00  0.00    +0.120 A 
ATOM     10  C   UNL     1      -0.249  -0.980   4.836  0.00  0.00    +0.046 A 
ATOM     11  C   UNL     1      -0.259  -1.365   3.512  0.00  0.00    +0.015 A 
BRANCH   9  12
ATOM     12  O   UNL     1       0.056   0.708   6.483  0.00  0.00    -0.495 OA
ATOM     13  C   UNL     1       0.369   2.074   6.763  0.00  0.00    +0.277 C 
ENDBRANCH   9  12
ENDBRANCH   4   6
BRANCH   5  14
ATOM     14  N   UNL     1      -0.016   1.362   0.009  0.00  0.00    -0.295 N 
ATOM     15  H   UNL     1       0.920   1.736   0.003  0.00  0.00    +0.163 HD
ATOM     16  H   UNL     1      -0.555   1.720  -0.765  0.00  0.00    +0.163 HD
ENDBRANCH   5  14
BRANCH   1  17
ATOM     17  S   UNL     1      -0.034  -0.316  -2.778  0.00  0.00    -0.072 S 
BRANCH  17  18
ATOM     18  C   UNL     1      -0.025  -1.933  -3.593  0.00  0.00    +0.139 C 
ATOM     19  C   UNL     1      -1.318  -2.679  -3.259  0.00  0.00    +0.029 C 
BRANCH  18  23
ATOM     20  C   UNL     1       0.645  -1.935  -7.154  0.00  0.00    +0.248 A 
ATOM     21  N   UNL     1      -0.268  -0.999  -7.036  0.00  0.00    -0.107 NA
ATOM     22  N   UNL     1      -0.608  -0.892  -5.799  0.00  0.00    -0.111 NA
ATOM     23  C   UNL     1       0.074  -1.743  -5.084  0.00  0.00    +0.231 A 
ATOM     24  O   UNL     1       0.878  -2.423  -5.919  0.00  0.00    -0.419 OA
BRANCH  20  29
ATOM     25  C   UNL     1       3.179  -3.635 -12.033  0.00  0.00    +0.044 C 
ATOM     26  C   UNL     1       2.515  -3.190 -10.755  0.00  0.00    -0.050 A 
ATOM     27  C   UNL     1       1.564  -2.186 -10.787  0.00  0.00    +0.004 A 
ATOM     28  C   UNL     1       0.953  -1.773  -9.620  0.00  0.00    +0.013 A 
ATOM     29  C   UNL     1       1.296  -2.372  -8.407  0.00  0.00    +0.038 A 
ATOM     30  C   UNL     1       2.260  -3.381  -8.382  0.00  0.00    +0.013 A 
ATOM     31  C   UNL     1       2.859  -3.788  -9.556  0.00  0.00    +0.004 A 
ENDBRANCH  20  29
ENDBRANCH  18  23
ENDBRANCH  17  18
ENDBRANCH   1  17
TORSDOF 7
