REMARK  Name = ZINC14987390
REMARK  12 active torsions:
REMARK  status: ('A' for Active; 'I' for Inactive)
REMARK    1  A    between atoms: C_1  and  C_2
REMARK    2  A    between atoms: C_5  and  C_9
REMARK    3  A    between atoms: C_6  and  C_8
REMARK    4  A    between atoms: N_11  and  C_12
REMARK    5  A    between atoms: C_15  and  N_18
REMARK    6  A    between atoms: C_21  and  N_63
REMARK    7  A    between atoms: C_24  and  N_63
REMARK    8  A    between atoms: C_25  and  C_26
REMARK    9  A    between atoms: C_25  and  N_63
REMARK   10  A    between atoms: C_26  and  C_28
REMARK   11  A    between atoms: C_26  and  O_30
REMARK   12  A    between atoms: C_28  and  O_29
REMARK                            x       y       z     vdW  Elec       q    Type
REMARK                         _______ _______ _______ _____ _____    ______ ____
ROOT
ATOM      1  C   UNL     1       4.705   0.210  -9.916  0.00  0.00    +0.034 A 
ATOM      2  C   UNL     1       5.476   0.917  -9.002  0.00  0.00    +0.025 A 
ATOM      3  C   UNL     1       4.921   1.335  -7.809  0.00  0.00    +0.025 A 
ATOM      4  C   UNL     1       3.592   1.049  -7.523  0.00  0.00    +0.030 A 
ATOM      5  C   UNL     1       2.823   0.338  -8.435  0.00  0.00    +0.025 A 
ATOM      6  C   UNL     1       3.377  -0.075  -9.630  0.00  0.00    +0.025 A 
ENDROOT
BRANCH   4   7
ATOM      7  N   UNL     1       3.030   1.472  -6.314  0.00  0.00    -0.330 N 
ATOM      8  C   UNL     1       1.623   1.066  -6.217  0.00  0.00    +0.103 C 
ATOM      9  C   UNL     1       1.002   1.668  -4.954  0.00  0.00    +0.004 C 
ATOM     10  C   UNL     1       1.779   1.181  -3.728  0.00  0.00    -0.066 C 
ATOM     11  C   UNL     1       3.251   1.573  -3.875  0.00  0.00    +0.004 C 
ATOM     12  C   UNL     1       3.806   0.975  -5.170  0.00  0.00    +0.103 C 
BRANCH  10  14
ATOM     13  C   UNL     1       1.342   3.264  -2.575  0.00  0.00    -0.096 C 
ATOM     14  N   UNL     1       1.196   1.795  -2.516  0.00  0.00    +0.381 N 
ATOM     15  H   UNL     1       0.198   1.560  -2.470  0.00  0.00    -0.082 HD
BRANCH  14  16
ATOM     16  C   UNL     1       1.869   1.268  -1.310  0.00  0.00    -0.045 C 
BRANCH  16  17
ATOM     17  C   UNL     1       1.106   1.744  -0.072  0.00  0.00    +0.123 C 
BRANCH  17  18
ATOM     18  O   UNL     1      -0.208   1.182  -0.077  0.00  0.00    -0.391 OA
ATOM     19  H   UNL     1      -0.222   0.215  -0.068  0.00  0.00    +0.210 HD
ENDBRANCH  17  18
BRANCH  17  20
ATOM     20  C   UNL     1       1.848   1.294   1.189  0.00  0.00    +0.185 C 
BRANCH  20  21
ATOM     21  O   UNL     1       1.200   1.835   2.341  0.00  0.00    -0.393 OA
ATOM     22  H   UNL     1       1.618   1.590   3.179  0.00  0.00    +0.210 HD
ENDBRANCH  20  21
ENDBRANCH  17  20
ENDBRANCH  16  17
ENDBRANCH  14  16
ENDBRANCH  10  14
ENDBRANCH   4   7
BRANCH   1  25
ATOM     23  C   UNL     1       4.513  -0.257 -12.242  0.00  0.00    +0.249 C 
ATOM     24  O   UNL     1       3.371   0.160 -12.220  0.00  0.00    -0.270 OA
ATOM     25  N   UNL     1       5.268  -0.214 -11.127  0.00  0.00    -0.281 N 
ATOM     26  H   UNL     1       6.201  -0.476 -11.162  0.00  0.00    +0.155 HD
BRANCH  23  31
ATOM     27  C   UNL     1       6.693  -2.418 -17.109  0.00  0.00    +0.044 C 
ATOM     28  C   UNL     1       6.122  -1.852 -15.835  0.00  0.00    -0.050 A 
ATOM     29  C   UNL     1       6.937  -1.687 -14.729  0.00  0.00    +0.004 A 
ATOM     30  C   UNL     1       6.421  -1.169 -13.559  0.00  0.00    +0.013 A 
ATOM     31  C   UNL     1       5.073  -0.812 -13.493  0.00  0.00    +0.040 A 
ATOM     32  C   UNL     1       4.255  -0.986 -14.610  0.00  0.00    -0.038 A 
ATOM     33  C   UNL     1       4.785  -1.500 -15.775  0.00  0.00    +0.007 A 
ATOM     34  C   UNL     1       2.798  -0.609 -14.546  0.00  0.00    +0.044 C 
ENDBRANCH  23  31
ENDBRANCH   1  25
TORSDOF 9
