REMARK  Name = ZINC20805962
REMARK  9 active torsions:
REMARK  status: ('A' for Active; 'I' for Inactive)
REMARK    1  A    between atoms: C_1  and  O_2
REMARK    2  A    between atoms: O_2  and  C_3
REMARK    3  A    between atoms: C_3  and  C_5
REMARK    4  A    between atoms: C_8  and  C_11
REMARK    5  A    between atoms: N_12  and  N_13
REMARK    6  A    between atoms: C_17  and  S_20
REMARK    7  A    between atoms: N_18  and  N_19
REMARK    8  A    between atoms: S_20  and  C_21
REMARK    9  A    between atoms: C_21  and  C_22
REMARK                            x       y       z     vdW  Elec       q    Type
REMARK                         _______ _______ _______ _____ _____    ______ ____
ROOT
ATOM      1  N   UNL     1      -6.238   5.982   0.065  0.00  0.00    -0.204 N 
ATOM      2  C   UNL     1      -6.257   7.370   0.073  0.00  0.00    +0.254 A 
ATOM      3  N   UNL     1      -5.214   8.162   0.077  0.00  0.00    -0.109 NA
ATOM      4  N   UNL     1      -5.593   9.390   0.081  0.00  0.00    -0.119 NA
ATOM      5  C   UNL     1      -6.902   9.456   0.088  0.00  0.00    +0.210 A 
ATOM      6  N   UNL     1      -7.371   8.169   0.083  0.00  0.00    -0.211 N 
ATOM      7  H   UNL     1      -7.183   5.420   0.067  0.00  0.00    +0.177 HD
ENDROOT
BRANCH   6   8
ATOM      8  N   UNL     1      -8.677   7.766   0.086  0.00  0.00    -0.294 N 
ATOM      9  H   UNL     1      -9.483   8.514   0.095  0.00  0.00    +0.163 HD
ATOM     10  H   UNL     1      -8.921   6.694   0.081  0.00  0.00    +0.163 HD
ENDBRANCH   6   8
BRANCH   1  12
ATOM     11  C   UNL     1      -4.998   3.999   0.048  0.00  0.00    +0.138 C 
ATOM     12  N   UNL     1      -5.016   5.299   0.055  0.00  0.00    -0.188 NA
BRANCH  11  16
ATOM     13  C   UNL     1      -1.301   1.931   0.019  0.00  0.00    +0.059 A 
ATOM     14  C   UNL     1      -1.320   3.329   0.032  0.00  0.00    +0.015 A 
ATOM     15  C   UNL     1      -2.511   3.996   0.036  0.00  0.00    +0.010 A 
ATOM     16  C   UNL     1      -3.714   3.280   0.037  0.00  0.00    -0.005 A 
ATOM     17  C   UNL     1      -3.695   1.881   0.030  0.00  0.00    +0.010 A 
ATOM     18  C   UNL     1      -2.503   1.215   0.021  0.00  0.00    +0.015 A 
BRANCH  13  19
ATOM     19  C   UNL     1      -0.014   1.211   0.009  0.00  0.00    +0.339 C 
ATOM     20  O   UNL     1       0.002  -0.004   0.002  0.00  0.00    -0.245 OA
BRANCH  19  22
ATOM     21  C   UNL     1       2.372   1.127  -0.015  0.00  0.00    +0.280 C 
ATOM     22  O   UNL     1       1.143   1.901   0.001  0.00  0.00    -0.464 OA
ENDBRANCH  19  22
ENDBRANCH  13  19
ENDBRANCH  11  16
ENDBRANCH   1  12
BRANCH   5  23
ATOM     23  S   UNL     1      -7.875  10.925   0.102  0.00  0.00    -0.075 S 
BRANCH  23  24
ATOM     24  C   UNL     1      -6.563  12.171   0.102  0.00  0.00    +0.172 C 
BRANCH  24  25
ATOM     25  C   UNL     1      -7.178  13.547   0.114  0.00  0.00    +0.221 C 
ATOM     26  O   UNL     1      -8.384  13.673   0.121  0.00  0.00    -0.275 OA
ATOM     27  N   UNL     1      -6.387  14.639   0.116  0.00  0.00    -0.329 N 
ATOM     28  H   UNL     1      -6.835  15.643   0.124  0.00  0.00    +0.145 HD
ATOM     29  H   UNL     1      -5.293  14.525   0.109  0.00  0.00    +0.145 HD
ENDBRANCH  24  25
ENDBRANCH  23  24
ENDBRANCH   5  23
TORSDOF 8
