REMARK  Name = ZINC34788405
REMARK  6 active torsions:
REMARK  status: ('A' for Active; 'I' for Inactive)
REMARK    1  A    between atoms: C_1  and  C_2
REMARK    2  A    between atoms: C_2  and  C_3
REMARK    3  A    between atoms: C_6  and  C_9
REMARK    4  A    between atoms: C_17  and  C_19
REMARK    5  A    between atoms: C_19  and  N_20
REMARK    6  A    between atoms: C_28  and  C_30
REMARK                            x       y       z     vdW  Elec       q    Type
REMARK                         _______ _______ _______ _____ _____    ______ ____
ROOT
ATOM      1  C   UNL     1       2.785  -1.911   4.664  0.00  0.00    +0.247 C 
ATOM      2  O   UNL     1       3.965  -2.194   4.594  0.00  0.00    -0.270 OA
ATOM      3  N   UNL     1       2.125  -2.060   5.829  0.00  0.00    -0.295 N 
ATOM      4  C   UNL     1       0.672  -1.851   5.897  0.00  0.00    +0.127 C 
ATOM      5  C   UNL     1       0.022  -3.112   6.481  0.00  0.00    +0.127 C 
ATOM      6  N   UNL     1       0.741  -3.487   7.706  0.00  0.00    -0.297 N 
ATOM      7  C   UNL     1       2.194  -3.696   7.638  0.00  0.00    +0.127 C 
ATOM      8  C   UNL     1       2.844  -2.441   7.053  0.00  0.00    +0.127 C 
ATOM      9  C   UNL     1       0.081  -3.637   8.871  0.00  0.00    +0.230 C 
ATOM     10  O   UNL     1      -1.119  -3.461   8.915  0.00  0.00    -0.274 OA
ENDROOT
BRANCH   1  14
ATOM     11  C   UNL     1       0.744  -0.451   1.238  0.00  0.00    -0.048 A 
ATOM     12  C   UNL     1       1.635  -1.501   1.112  0.00  0.00    +0.004 A 
ATOM     13  C   UNL     1       2.301  -1.980   2.221  0.00  0.00    +0.013 A 
ATOM     14  C   UNL     1       2.075  -1.402   3.471  0.00  0.00    +0.037 A 
ATOM     15  C   UNL     1       1.174  -0.343   3.591  0.00  0.00    +0.013 A 
ATOM     16  C   UNL     1       0.518   0.130   2.473  0.00  0.00    +0.004 A 
BRANCH  11  18
ATOM     17  C   UNL     1       0.847   1.175  -0.632  0.00  0.00    +0.009 C 
ATOM     18  C   UNL     1       0.019   0.067   0.022  0.00  0.00    +0.032 C 
ENDBRANCH  11  18
ENDBRANCH   1  14
BRANCH   9  19
ATOM     19  C   UNL     1       0.832  -4.022  10.119  0.00  0.00    +0.181 C 
BRANCH  19  20
ATOM     20  N   UNL     1      -0.106  -4.120  11.245  0.00  0.00    -0.283 NA
ATOM     21  C   UNL     1      -1.071  -5.208  11.033  0.00  0.00    +0.091 C 
ATOM     22  C   UNL     1      -2.255  -5.016  11.996  0.00  0.00    +0.058 C 
ATOM     23  C   UNL     1      -1.696  -4.723  13.351  0.00  0.00    -0.004 A 
ATOM     24  C   UNL     1      -0.411  -4.380  13.644  0.00  0.00    -0.016 A 
ATOM     25  C   UNL     1      -0.117  -4.157  14.987  0.00  0.00    +0.013 A 
ATOM     26  C   UNL     1      -1.088  -4.282  15.922  0.00  0.00    +0.046 A 
ATOM     27  S   UNL     1      -2.502  -4.734  14.927  0.00  0.00    -0.101 S 
ATOM     28  C   UNL     1       0.612  -4.259  12.518  0.00  0.00    +0.118 C 
BRANCH  28  29
ATOM     29  C   UNL     1       1.475  -3.046  12.747  0.00  0.00    -0.023 A 
ATOM     30  C   UNL     1       0.998  -1.788  12.429  0.00  0.00    +0.006 A 
ATOM     31  C   UNL     1       1.788  -0.674  12.639  0.00  0.00    +0.003 A 
ATOM     32  C   UNL     1       3.058  -0.816  13.166  0.00  0.00    +0.038 A 
ATOM     33  C   UNL     1       3.537  -2.075  13.485  0.00  0.00    +0.124 A 
ATOM     34  C   UNL     1       2.742  -3.190  13.280  0.00  0.00    +0.043 A 
ATOM     35  F   UNL     1       4.778  -2.215  14.000  0.00  0.00    -0.205 F 
ENDBRANCH  28  29
ENDBRANCH  19  20
ENDBRANCH   9  19
TORSDOF 5
