REMARK  Name = ZINC55621158
REMARK  7 active torsions:
REMARK  status: ('A' for Active; 'I' for Inactive)
REMARK    1  A    between atoms: C_1  and  C_2
REMARK    2  A    between atoms: C_2  and  C_3
REMARK    3  A    between atoms: C_9  and  C_11
REMARK    4  A    between atoms: C_15  and  N_17
REMARK    5  A    between atoms: N_17  and  S_18
REMARK    6  A    between atoms: S_18  and  C_21
REMARK    7  A    between atoms: C_25  and  C_27
REMARK                            x       y       z     vdW  Elec       q    Type
REMARK                         _______ _______ _______ _____ _____    ______ ____
ROOT
ATOM      1  C   UNL     1      -0.168  -1.159  -4.723  0.00  0.00    +0.019 A 
ATOM      2  C   UNL     1       0.439  -1.610  -5.897  0.00  0.00    +0.011 A 
ATOM      3  C   UNL     1      -0.301  -1.723  -7.057  0.00  0.00    +0.003 A 
ATOM      4  C   UNL     1      -1.643  -1.391  -7.061  0.00  0.00    +0.024 A 
ATOM      5  C   UNL     1      -2.257  -0.940  -5.898  0.00  0.00    +0.049 A 
ATOM      6  C   UNL     1      -1.524  -0.828  -4.727  0.00  0.00    +0.036 A 
ENDROOT
BRANCH   1  13
ATOM      7  C   UNL     1       0.707  -0.490  -1.238  0.00  0.00    +0.048 A 
ATOM      8  C   UNL     1       2.034  -0.802  -1.188  0.00  0.00    +0.093 A 
ATOM      9  C   UNL     1       2.671  -1.254  -2.360  0.00  0.00    +0.252 A 
ATOM     10  O   UNL     1       3.857  -1.542  -2.352  0.00  0.00    -0.268 OA
ATOM     11  N   UNL     1       1.944  -1.364  -3.493  0.00  0.00    -0.307 N 
ATOM     12  H   UNL     1       2.361  -1.673  -4.312  0.00  0.00    +0.170 HD
ATOM     13  C   UNL     1       0.621  -1.037  -3.480  0.00  0.00    +0.141 A 
ATOM     14  N   UNL     1       0.033  -0.620  -2.378  0.00  0.00    -0.234 NA
BRANCH   7  16
ATOM     15  C   UNL     1      -0.019   1.526   0.010  0.00  0.00    +0.010 C 
ATOM     16  C   UNL     1       0.002  -0.004   0.002  0.00  0.00    +0.052 C 
ENDBRANCH   7  16
ENDBRANCH   1  13
BRANCH   5  17
ATOM     17  N   UNL     1      -3.613  -0.606  -5.909  0.00  0.00    -0.216 N 
ATOM     18  H   UNL     1      -3.914   0.210  -5.479  0.00  0.00    +0.174 HD
BRANCH  17  19
ATOM     19  S   UNL     1      -4.706  -1.601  -6.655  0.00  0.00    +0.072 S 
ATOM     20  O   UNL     1      -5.985  -1.009  -6.472  0.00  0.00    -0.150 OA
ATOM     21  O   UNL     1      -4.178  -1.892  -7.942  0.00  0.00    -0.150 OA
BRANCH  19  22
ATOM     22  C   UNL     1      -4.722  -3.120  -5.762  0.00  0.00    +0.109 A 
ATOM     23  C   UNL     1      -3.855  -4.138  -6.114  0.00  0.00    +0.029 A 
ATOM     24  C   UNL     1      -3.868  -5.329  -5.413  0.00  0.00    +0.002 A 
ATOM     25  C   UNL     1      -4.746  -5.503  -4.360  0.00  0.00    +0.003 A 
ATOM     26  C   UNL     1      -5.611  -4.484  -4.007  0.00  0.00    -0.049 A 
ATOM     27  C   UNL     1      -5.596  -3.291  -4.705  0.00  0.00    +0.032 A 
ATOM     28  C   UNL     1      -6.569  -4.673  -2.859  0.00  0.00    +0.044 C 
ENDBRANCH  19  22
ENDBRANCH  17  19
ENDBRANCH   5  17
TORSDOF 5
