REMARK  Name = ZINC12126445
REMARK  6 active torsions:
REMARK  status: ('A' for Active; 'I' for Inactive)
REMARK    1  A    between atoms: C_1  and  C_2
REMARK    2  A    between atoms: C_2  and  C_3
REMARK    3  A    between atoms: C_2  and  C_4
REMARK    4  A    between atoms: C_13  and  N_20
REMARK    5  A    between atoms: C_15  and  C_17
REMARK    6  A    between atoms: C_21  and  C_23
REMARK                            x       y       z     vdW  Elec       q    Type
REMARK                         _______ _______ _______ _____ _____    ______ ____
ROOT
ATOM      1  C   UNL     1       2.053  -2.390   0.230  0.00  0.00    +0.053 A 
ATOM      2  C   UNL     1       3.334  -2.822   0.412  0.00  0.00    +0.093 A 
ATOM      3  C   UNL     1       4.367  -1.868   0.487  0.00  0.00    +0.253 A 
ATOM      4  O   UNL     1       5.524  -2.217   0.649  0.00  0.00    -0.268 OA
ATOM      5  N   UNL     1       4.051  -0.561   0.372  0.00  0.00    -0.291 N 
ATOM      6  H   UNL     1       4.747   0.114   0.417  0.00  0.00    +0.172 HD
ATOM      7  C   UNL     1       2.755  -0.192   0.198  0.00  0.00    +0.234 A 
ATOM      8  N   UNL     1       1.795  -1.088   0.128  0.00  0.00    -0.217 NA
ATOM      9  N   UNL     1       2.440   1.150   0.086  0.00  0.00    -0.185 N 
ATOM     10  C   UNL     1       1.209   1.668  -0.195  0.00  0.00    +0.132 A 
ATOM     11  C   UNL     1       1.331   3.022  -0.207  0.00  0.00    +0.069 A 
ATOM     12  C   UNL     1       2.666   3.337   0.068  0.00  0.00    +0.068 A 
ATOM     13  N   UNL     1       3.329   2.222   0.240  0.00  0.00    -0.167 NA
ENDROOT
BRANCH  10  14
ATOM     14  N   UNL     1       0.043   0.943  -0.422  0.00  0.00    -0.266 N 
ATOM     15  C   UNL     1      -1.135   1.585  -0.555  0.00  0.00    +0.256 C 
ATOM     16  O   UNL     1      -1.179   2.798  -0.471  0.00  0.00    -0.269 OA
ATOM     17  H   UNL     1       0.078  -0.024  -0.489  0.00  0.00    +0.157 HD
BRANCH  15  18
ATOM     18  C   UNL     1      -2.362   0.822  -0.800  0.00  0.00    +0.074 A 
ATOM     19  C   UNL     1      -3.659   1.283  -0.965  0.00  0.00    +0.021 A 
ATOM     20  C   UNL     1      -4.633   0.342  -1.184  0.00  0.00    +0.008 A 
ATOM     21  C   UNL     1      -4.288  -0.972  -1.230  0.00  0.00    +0.046 A 
ATOM     22  S   UNL     1      -2.574  -0.941  -0.973  0.00  0.00    -0.092 S 
ENDBRANCH  15  18
ENDBRANCH  10  14
BRANCH   1  24
ATOM     23  C   UNL     1      -0.078  -3.122   1.267  0.00  0.00    +0.014 C 
ATOM     24  C   UNL     1       0.927  -3.389   0.145  0.00  0.00    +0.032 C 
ATOM     25  C   UNL     1       0.228  -3.256  -1.209  0.00  0.00    +0.014 C 
ENDBRANCH   1  24
BRANCH  12  26
ATOM     26  C   UNL     1       3.244   4.726   0.152  0.00  0.00    +0.040 C 
ATOM     27  C   UNL     1       2.421   5.870  -0.443  0.00  0.00    +0.010 C 
ATOM     28  C   UNL     1       3.687   5.387  -1.155  0.00  0.00    +0.010 C 
ENDBRANCH  12  26
TORSDOF 4
