REMARK  Name = ZINC04317065
REMARK  4 active torsions:
REMARK  status: ('A' for Active; 'I' for Inactive)
REMARK    1  A    between atoms: C_1  and  C_2
REMARK    2  A    between atoms: C_12  and  C_14
REMARK    3  A    between atoms: C_14  and  S_15
REMARK    4  A    between atoms: S_15  and  C_16
REMARK                            x       y       z     vdW  Elec       q    Type
REMARK                         _______ _______ _______ _____ _____    ______ ____
ROOT
ATOM      1  C   UNL     1      -0.018   1.503   0.010  0.00  0.00    +0.044 C 
ATOM      2  C   UNL     1       0.002  -0.004   0.002  0.00  0.00    -0.049 A 
ATOM      3  C   UNL     1       0.006  -0.698  -1.199  0.00  0.00    +0.005 A 
ATOM      4  C   UNL     1       0.024  -2.068  -1.235  0.00  0.00    +0.029 A 
ATOM      5  C   UNL     1       0.040  -2.822  -0.038  0.00  0.00    +0.080 A 
ATOM      6  C   UNL     1       0.036  -2.081   1.166  0.00  0.00    +0.041 A 
ATOM      7  C   UNL     1       0.023  -0.709   1.191  0.00  0.00    +0.020 A 
ATOM      8  S   UNL     1       0.059  -3.361   2.397  0.00  0.00    -0.052 S 
ATOM      9  C   UNL     1       0.073  -4.752   1.275  0.00  0.00    +0.165 A 
ATOM     10  N   UNL     1       0.059  -4.165   0.101  0.00  0.00    -0.225 NA
ATOM     11  N   UNL     1       0.093  -6.106   1.569  0.00  0.00    -0.264 N 
ATOM     12  C   UNL     1       0.101  -7.012   0.571  0.00  0.00    +0.229 C 
ATOM     13  O   UNL     1       0.090  -6.643  -0.584  0.00  0.00    -0.275 OA
ATOM     14  H   UNL     1       0.101  -6.402   2.493  0.00  0.00    +0.157 HD
ENDROOT
BRANCH  12  15
ATOM     15  C   UNL     1       0.122  -8.485   0.891  0.00  0.00    +0.172 C 
BRANCH  15  16
ATOM     16  S   UNL     1       0.128  -9.439  -0.652  0.00  0.00    -0.096 S 
BRANCH  16  17
ATOM     17  C   UNL     1       0.154 -11.117  -0.116  0.00  0.00    +0.108 A 
ATOM     18  C   UNL     1       0.169 -12.165  -1.068  0.00  0.00    +0.004 A 
ATOM     19  C   UNL     1       0.196 -13.438  -0.633  0.00  0.00    +0.026 A 
ATOM     20  N   UNL     1       0.194 -13.679   0.716  0.00  0.00    -0.310 N 
ATOM     21  H   UNL     1       0.204 -14.593   1.039  0.00  0.00    +0.170 HD
ATOM     22  C   UNL     1       0.177 -12.664   1.595  0.00  0.00    +0.347 A 
ATOM     23  O   UNL     1       0.180 -12.904   2.791  0.00  0.00    -0.245 OA
ATOM     24  N   UNL     1       0.163 -11.399   1.180  0.00  0.00    -0.186 NA
ATOM     25  C   UNL     1       0.237 -14.620  -1.562  0.00  0.00    +0.054 C 
ATOM     26  C   UNL     1      -0.199 -14.215  -2.969  0.00  0.00    +0.006 C 
ATOM     27  C   UNL     1       0.606 -12.977  -3.385  0.00  0.00    +0.005 C 
ATOM     28  C   UNL     1       0.150 -11.798  -2.527  0.00  0.00    +0.039 C 
ENDBRANCH  16  17
ENDBRANCH  15  16
ENDBRANCH  12  15
TORSDOF 3
