REMARK  Name = ZINC52062896
REMARK  3 active torsions:
REMARK  status: ('A' for Active; 'I' for Inactive)
REMARK    1  A    between atoms: C_3  and  N_10
REMARK    2  A    between atoms: C_5  and  C_8
REMARK    3  A    between atoms: N_13  and  C_16
REMARK                            x       y       z     vdW  Elec       q    Type
REMARK                         _______ _______ _______ _____ _____    ______ ____
ROOT
ATOM      1  N   UNL     1       3.594   2.000  -0.022  0.00  0.00    -0.319 N 
ATOM      2  C   UNL     1       4.863   1.257  -0.044  0.00  0.00    +0.088 C 
ATOM      3  C   UNL     1       5.737   1.820  -1.170  0.00  0.00    -0.059 C 
ATOM      4  N   UNL     1       5.887   3.270  -0.993  0.00  0.00    +0.384 N 
ATOM      5  C   UNL     1       4.582   3.929  -1.137  0.00  0.00    -0.059 C 
ATOM      6  C   UNL     1       3.652   3.470  -0.015  0.00  0.00    +0.088 C 
ATOM      7  H   UNL     1       6.258   3.459  -0.073  0.00  0.00    -0.081 HD
ENDROOT
BRANCH   1  10
ATOM      8  C   UNL     1      -0.005   1.367   0.226  0.00  0.00    +0.025 A 
ATOM      9  C   UNL     1       1.202   2.043   0.221  0.00  0.00    +0.045 A 
ATOM     10  C   UNL     1       2.374   1.333  -0.013  0.00  0.00    +0.122 A 
ATOM     11  N   UNL     1       2.340   0.026  -0.229  0.00  0.00    -0.234 NA
ATOM     12  C   UNL     1       1.204  -0.645  -0.230  0.00  0.00    +0.076 A 
ATOM     13  C   UNL     1       0.002  -0.003  -0.004  0.00  0.00    +0.064 A 
ATOM     14 CL   UNL     1      -1.485  -0.900  -0.007  0.00  0.00    -0.082 Cl
BRANCH  12  15
ATOM     15  C   UNL     1       1.219  -2.131  -0.480  0.00  0.00    +0.165 C 
ATOM     16 CL   UNL     1       1.389  -3.003   1.089  0.00  0.00    -0.119 Cl
ENDBRANCH  12  15
ENDBRANCH   1  10
BRANCH   4  17
ATOM     17  C   UNL     1       6.812   3.793  -2.007  0.00  0.00    -0.068 C 
ATOM     18  C   UNL     1       8.211   3.170  -1.817  0.00  0.00    -0.015 C 
ATOM     19  C   UNL     1       9.189   4.325  -2.148  0.00  0.00    -0.002 C 
ATOM     20  C   UNL     1       8.475   5.561  -1.545  0.00  0.00    -0.002 C 
ATOM     21  C   UNL     1       6.980   5.312  -1.834  0.00  0.00    -0.015 C 
ENDBRANCH   4  17
TORSDOF 3
