REMARK  Name = ZINC10390806
REMARK  6 active torsions:
REMARK  status: ('A' for Active; 'I' for Inactive)
REMARK    1  A    between atoms: C_1  and  C_2
REMARK    2  A    between atoms: N_4  and  C_5
REMARK    3  A    between atoms: C_13  and  C_16
REMARK    4  A    between atoms: C_16  and  N_17
REMARK    5  A    between atoms: C_20  and  C_24
REMARK    6  A    between atoms: C_20  and  C_25
REMARK                            x       y       z     vdW  Elec       q    Type
REMARK                         _______ _______ _______ _____ _____    ______ ____
ROOT
ATOM      1  N   UNL     1       0.205   0.512  -0.322  0.00  0.00    -0.218 N 
ATOM      2  C   UNL     1       0.012   1.479  -1.241  0.00  0.00    +0.251 C 
ATOM      3  O   UNL     1       0.481   2.597  -1.238  0.00  0.00    -0.272 OA
ATOM      4  C   UNL     1      -0.913   0.877  -2.280  0.00  0.00    +0.135 C 
ATOM      5  N   UNL     1      -1.156  -0.487  -1.779  0.00  0.00    -0.281 N 
ATOM      6  C   UNL     1      -0.458  -0.606  -0.635  0.00  0.00    +0.310 C 
ATOM      7  O   UNL     1      -0.436  -1.617   0.040  0.00  0.00    -0.252 OA
ATOM      8  C   UNL     1      -0.230   0.837  -3.649  0.00  0.00    +0.047 C 
ATOM      9  H   UNL     1      -1.709  -1.167  -2.194  0.00  0.00    +0.152 HD
ENDROOT
BRANCH   4  10
ATOM     10  C   UNL     1      -2.203   1.653  -2.355  0.00  0.00    -0.012 A 
ATOM     11  C   UNL     1      -2.212   3.005  -2.067  0.00  0.00    +0.010 A 
ATOM     12  C   UNL     1      -3.393   3.720  -2.133  0.00  0.00    +0.050 A 
ATOM     13  C   UNL     1      -4.572   3.082  -2.489  0.00  0.00    +0.162 A 
ATOM     14  C   UNL     1      -4.562   1.723  -2.781  0.00  0.00    +0.162 A 
ATOM     15  C   UNL     1      -3.373   1.012  -2.717  0.00  0.00    +0.055 A 
ATOM     16  O   UNL     1      -5.707   1.078  -3.136  0.00  0.00    -0.485 OA
ATOM     17  C   UNL     1      -6.939   1.739  -2.828  0.00  0.00    +0.270 C 
ATOM     18  C   UNL     1      -6.819   3.206  -3.260  0.00  0.00    +0.270 C 
ATOM     19  O   UNL     1      -5.729   3.797  -2.542  0.00  0.00    -0.485 OA
ENDBRANCH   4  10
BRANCH   1  20
ATOM     20  C   UNL     1       1.043   0.666   0.870  0.00  0.00    +0.174 C 
BRANCH  20  27
ATOM     21  C   UNL     1      -0.780   6.705   3.133  0.00  0.00    +0.110 C 
ATOM     22  C   UNL     1      -0.517   5.275   2.736  0.00  0.00    +0.223 C 
ATOM     23  O   UNL     1       0.182   5.031   1.776  0.00  0.00    -0.275 OA
ATOM     24  N   UNL     1      -1.060   4.268   3.449  0.00  0.00    -0.219 N 
ATOM     25  C   UNL     1      -0.736   2.949   3.147  0.00  0.00    +0.172 A 
ATOM     26  N   UNL     1      -0.001   2.482   2.156  0.00  0.00    -0.228 NA
ATOM     27  C   UNL     1       0.205   1.188   2.009  0.00  0.00    +0.068 A 
ATOM     28  C   UNL     1      -0.348   0.340   2.909  0.00  0.00    +0.073 A 
ATOM     29  S   UNL     1      -1.192   1.495   3.980  0.00  0.00    -0.060 S 
BRANCH  24  30
ATOM     30  C   UNL     1      -1.950   4.549   4.493  0.00  0.00    +0.043 A 
ATOM     31  C   UNL     1      -1.466   4.826   5.765  0.00  0.00    +0.024 A 
ATOM     32  C   UNL     1      -2.345   5.108   6.791  0.00  0.00    +0.002 A 
ATOM     33  C   UNL     1      -3.708   5.104   6.556  0.00  0.00    +0.000 A 
ATOM     34  C   UNL     1      -4.194   4.823   5.293  0.00  0.00    +0.002 A 
ATOM     35  C   UNL     1      -3.319   4.545   4.261  0.00  0.00    +0.024 A 
ENDBRANCH  24  30
ENDBRANCH  20  27
ENDBRANCH   1  20
TORSDOF 4
