REMARK  Name = ZINC66397569
REMARK  8 active torsions:
REMARK  status: ('A' for Active; 'I' for Inactive)
REMARK    1  A    between atoms: C_1  and  C_2
REMARK    2  A    between atoms: C_2  and  C_3
REMARK    3  A    between atoms: C_2  and  C_4
REMARK    4  A    between atoms: C_2  and  C_5
REMARK    5  A    between atoms: C_8  and  C_11
REMARK    6  A    between atoms: C_11  and  C_13
REMARK    7  A    between atoms: C_11  and  N_15
REMARK    8  A    between atoms: C_16  and  C_18
REMARK                            x       y       z     vdW  Elec       q    Type
REMARK                         _______ _______ _______ _____ _____    ______ ____
ROOT
ATOM      1  N   UNL     1       3.548  -0.795  -5.289  0.00  0.00    -0.292 N 
ATOM      2  C   UNL     1       3.868  -0.781  -6.598  0.00  0.00    +0.249 C 
ATOM      3  O   UNL     1       3.459  -1.658  -7.333  0.00  0.00    -0.270 OA
ATOM      4  H   UNL     1       3.874  -0.095  -4.702  0.00  0.00    +0.151 HD
ENDROOT
BRANCH   2   5
ATOM      5  C   UNL     1       4.715   0.300  -7.138  0.00  0.00    +0.080 A 
ATOM      6  C   UNL     1       5.192   1.309  -6.295  0.00  0.00    +0.017 A 
ATOM      7  C   UNL     1       5.983   2.317  -6.803  0.00  0.00    +0.003 A 
ATOM      8  C   UNL     1       6.311   2.340  -8.149  0.00  0.00    +0.027 A 
ATOM      9  C   UNL     1       5.846   1.349  -8.996  0.00  0.00    +0.076 A 
ATOM     10  C   UNL     1       5.050   0.320  -8.495  0.00  0.00    +0.154 A 
ATOM     11  O   UNL     1       4.603  -0.649  -9.334  0.00  0.00    -0.480 OA
ATOM     12  C   UNL     1       4.335  -0.258 -10.683  0.00  0.00    +0.325 C 
ATOM     13  C   UNL     1       5.479   0.573 -11.206  0.00  0.00    +0.255 C 
ATOM     14  O   UNL     1       5.766   0.541 -12.384  0.00  0.00    -0.272 OA
ATOM     15  N   UNL     1       6.172   1.361 -10.360  0.00  0.00    -0.280 N 
ATOM     16  H   UNL     1       6.894   1.919 -10.689  0.00  0.00    +0.155 HD
ENDBRANCH   2   5
BRANCH   1  17
ATOM     17  C   UNL     1       2.707  -1.868  -4.752  0.00  0.00    +0.207 C 
BRANCH  17  21
ATOM     18  C   UNL     1       0.707  -0.490  -1.238  0.00  0.00    -0.042 A 
ATOM     19  C   UNL     1       0.036  -1.284  -2.148  0.00  0.00    +0.004 A 
ATOM     20  C   UNL     1       0.683  -1.730  -3.286  0.00  0.00    +0.007 A 
ATOM     21  C   UNL     1       2.001  -1.381  -3.513  0.00  0.00    -0.013 A 
ATOM     22  C   UNL     1       2.672  -0.586  -2.603  0.00  0.00    +0.007 A 
ATOM     23  C   UNL     1       2.024  -0.137  -1.467  0.00  0.00    +0.004 A 
BRANCH  18  25
ATOM     24  C   UNL     1      -0.019   1.526   0.010  0.00  0.00    +0.015 C 
ATOM     25  C   UNL     1       0.002  -0.004   0.002  0.00  0.00    -0.013 C 
ATOM     26  C   UNL     1       0.742  -0.511   1.242  0.00  0.00    +0.015 C 
ATOM     27  C   UNL     1      -1.433  -0.534   0.013  0.00  0.00    +0.015 C 
ENDBRANCH  18  25
ENDBRANCH  17  21
BRANCH  17  28
ATOM     28  C   UNL     1       3.548  -3.028  -4.414  0.00  0.00    +0.090 C 
ATOM     29  N   UNL     1       4.197  -3.923  -4.154  0.00  0.00    -0.194 NA
ENDBRANCH  17  28
ENDBRANCH   1  17
TORSDOF 5
