REMARK  Name = ZINC03418774
REMARK  10 active torsions:
REMARK  status: ('A' for Active; 'I' for Inactive)
REMARK    1  A    between atoms: C_1  and  C_2
REMARK    2  A    between atoms: C_2  and  O_3
REMARK    3  A    between atoms: O_3  and  C_4
REMARK    4  A    between atoms: C_4  and  C_6
REMARK    5  A    between atoms: C_7  and  C_30
REMARK    6  A    between atoms: N_8  and  C_22
REMARK    7  A    between atoms: C_12  and  C_14
REMARK    8  A    between atoms: C_17  and  O_20
REMARK    9  A    between atoms: O_20  and  C_21
REMARK   10  A    between atoms: C_25  and  C_28
REMARK                            x       y       z     vdW  Elec       q    Type
REMARK                         _______ _______ _______ _____ _____    ______ ____
ROOT
ATOM      1  C   UNL     1       1.058   2.038  -0.272  0.00  0.00    +0.078 C 
ATOM      2  C   UNL     1       1.392   2.931   0.685  0.00  0.00    +0.029 C 
ATOM      3  N   UNL     1       0.877   2.837   1.948  0.00  0.00    -0.228 N 
ATOM      4  C   UNL     1       0.023   1.879   2.332  0.00  0.00    +0.311 C 
ATOM      5  O   UNL     1      -0.382   1.877   3.478  0.00  0.00    -0.252 OA
ATOM      6  N   UNL     1      -0.402   0.917   1.489  0.00  0.00    -0.288 N 
ATOM      7  C   UNL     1       0.095   0.930   0.103  0.00  0.00    +0.144 C 
ATOM      8  C   UNL     1       2.347   4.049   0.355  0.00  0.00    +0.062 C 
ATOM      9  H   UNL     1      -1.021   0.233   1.788  0.00  0.00    +0.151 HD
ENDROOT
BRANCH   7  10
ATOM     10  C   UNL     1      -1.096   1.020  -0.816  0.00  0.00    -0.022 A 
ATOM     11  C   UNL     1      -2.129   1.891  -0.524  0.00  0.00    +0.009 A 
ATOM     12  C   UNL     1      -3.220   1.980  -1.367  0.00  0.00    +0.046 A 
ATOM     13  C   UNL     1      -3.283   1.185  -2.503  0.00  0.00    +0.120 A 
ATOM     14  C   UNL     1      -2.248   0.307  -2.791  0.00  0.00    +0.046 A 
ATOM     15  C   UNL     1      -1.157   0.227  -1.947  0.00  0.00    +0.009 A 
BRANCH  13  16
ATOM     16  O   UNL     1      -4.357   1.266  -3.331  0.00  0.00    -0.495 OA
ATOM     17  C   UNL     1      -5.385   2.192  -2.972  0.00  0.00    +0.277 C 
ENDBRANCH  13  16
ENDBRANCH   7  10
BRANCH   3  18
ATOM     18  C   UNL     1       1.262   3.792   2.890  0.00  0.00    +0.043 A 
ATOM     19  C   UNL     1       0.444   4.889   3.140  0.00  0.00    +0.025 A 
ATOM     20  C   UNL     1       0.818   5.830   4.073  0.00  0.00    +0.017 A 
ATOM     21  C   UNL     1       2.027   5.689   4.760  0.00  0.00    +0.063 A 
ATOM     22  C   UNL     1       2.850   4.588   4.502  0.00  0.00    +0.017 A 
ATOM     23  C   UNL     1       2.466   3.648   3.572  0.00  0.00    +0.025 A 
BRANCH  21  24
ATOM     24  C   UNL     1       2.434   6.699   5.755  0.00  0.00    +0.387 C 
ATOM     25  O   UNL     1       3.485   6.574   6.352  0.00  0.00    -0.241 OA
ATOM     26  O   UNL     1       1.640   7.759   6.003  0.00  0.00    -0.241 OA
ENDBRANCH  21  24
ENDBRANCH   3  18
BRANCH   1  27
ATOM     27  C   UNL     1       1.590   2.134  -1.579  0.00  0.00    +0.339 C 
ATOM     28  O   UNL     1       2.439   2.969  -1.831  0.00  0.00    -0.245 OA
BRANCH  27  29
ATOM     29  O   UNL     1       1.157   1.299  -2.547  0.00  0.00    -0.462 OA
BRANCH  29  31
ATOM     30  C   UNL     1       1.127   0.426  -4.801  0.00  0.00    +0.048 C 
ATOM     31  C   UNL     1       1.738   1.452  -3.844  0.00  0.00    +0.229 C 
ENDBRANCH  29  31
ENDBRANCH  27  29
ENDBRANCH   1  27
TORSDOF 7
