REMARK  Name = ZINC14008408
REMARK  10 active torsions:
REMARK  status: ('A' for Active; 'I' for Inactive)
REMARK    1  A    between atoms: C_1  and  C_2
REMARK    2  A    between atoms: C_5  and  C_26
REMARK    3  A    between atoms: C_6  and  O_8
REMARK    4  A    between atoms: O_8  and  C_9
REMARK    5  A    between atoms: C_9  and  C_11
REMARK    6  A    between atoms: C_9  and  C_12
REMARK    7  A    between atoms: N_14  and  N_15
REMARK    8  A    between atoms: C_16  and  C_18
REMARK    9  A    between atoms: C_21  and  O_24
REMARK   10  A    between atoms: O_24  and  C_25
REMARK                            x       y       z     vdW  Elec       q    Type
REMARK                         _______ _______ _______ _____ _____    ______ ____
ROOT
ATOM      1  C   UNL     1       3.763  -4.776  -0.225  0.00  0.00    +0.270 C 
ATOM      2  O   UNL     1       4.830  -4.231  -0.041  0.00  0.00    -0.270 OA
ATOM      3  N   UNL     1       2.647  -4.037  -0.384  0.00  0.00    -0.231 N 
ATOM      4  H   UNL     1       1.793  -4.473  -0.531  0.00  0.00    +0.173 HD
ENDROOT
BRANCH   3   5
ATOM      5  N   UNL     1       2.721  -2.639  -0.337  0.00  0.00    -0.230 N 
ATOM      6  C   UNL     1       1.605  -1.899  -0.496  0.00  0.00    +0.260 C 
ATOM      7  O   UNL     1       0.535  -2.446  -0.680  0.00  0.00    -0.269 OA
ATOM      8  H   UNL     1       3.575  -2.203  -0.190  0.00  0.00    +0.173 HD
BRANCH   6   9
ATOM      9  C   UNL     1       1.683  -0.426  -0.447  0.00  0.00    +0.038 A 
ATOM     10  C   UNL     1       0.527   0.342  -0.612  0.00  0.00    +0.016 A 
ATOM     11  C   UNL     1       0.604   1.716  -0.564  0.00  0.00    +0.046 A 
ATOM     12  C   UNL     1       1.828   2.339  -0.353  0.00  0.00    +0.120 A 
ATOM     13  C   UNL     1       2.980   1.578  -0.189  0.00  0.00    +0.046 A 
ATOM     14  C   UNL     1       2.912   0.204  -0.235  0.00  0.00    +0.016 A 
BRANCH  12  15
ATOM     15  O   UNL     1       1.899   3.693  -0.308  0.00  0.00    -0.495 OA
ATOM     16  C   UNL     1       3.189   4.268  -0.088  0.00  0.00    +0.277 C 
ENDBRANCH  12  15
ENDBRANCH   6   9
ENDBRANCH   3   5
BRANCH   1  17
ATOM     17  C   UNL     1       3.684  -6.280  -0.275  0.00  0.00    +0.257 C 
ATOM     18  C   UNL     1       2.850  -6.787   0.904  0.00  0.00    +0.062 C 
BRANCH  17  19
ATOM     19  O   UNL     1       5.001  -6.830  -0.198  0.00  0.00    -0.480 OA
BRANCH  19  25
ATOM     20  C   UNL     1       3.117 -10.815  -2.294  0.00  0.00    +0.044 C 
ATOM     21  C   UNL     1       4.294 -10.036  -1.766  0.00  0.00    -0.047 A 
ATOM     22  C   UNL     1       5.565 -10.577  -1.828  0.00  0.00    +0.004 A 
ATOM     23  C   UNL     1       6.647  -9.865  -1.344  0.00  0.00    +0.007 A 
ATOM     24  C   UNL     1       6.461  -8.607  -0.803  0.00  0.00    -0.009 A 
ATOM     25  C   UNL     1       5.187  -8.064  -0.735  0.00  0.00    +0.125 A 
ATOM     26  C   UNL     1       4.103  -8.781  -1.221  0.00  0.00    +0.049 A 
ATOM     27  C   UNL     1       7.641  -7.829  -0.282  0.00  0.00    +0.047 C 
ENDBRANCH  19  25
ENDBRANCH  17  19
ENDBRANCH   1  17
TORSDOF 6
