REMARK  Name = ZINC08491751
REMARK  9 active torsions:
REMARK  status: ('A' for Active; 'I' for Inactive)
REMARK    1  A    between atoms: C_1  and  C_2
REMARK    2  A    between atoms: C_5  and  C_32
REMARK    3  A    between atoms: C_6  and  C_8
REMARK    4  A    between atoms: C_8  and  C_10
REMARK    5  A    between atoms: C_8  and  N_57
REMARK    6  A    between atoms: C_11  and  N_57
REMARK    7  A    between atoms: C_20  and  N_22
REMARK    8  A    between atoms: N_22  and  S_23
REMARK    9  A    between atoms: S_23  and  C_26
REMARK                            x       y       z     vdW  Elec       q    Type
REMARK                         _______ _______ _______ _____ _____    ______ ____
ROOT
ATOM      1  C   UNL     1       2.302   4.161   0.001  0.00  0.00    -0.021 C 
ATOM      2  C   UNL     1       1.159   3.168   0.008  0.00  0.00    -0.057 A 
ATOM      3  C   UNL     1       1.173   1.783   0.000  0.00  0.00    +0.002 A 
ATOM      4  C   UNL     1      -0.013   1.076   0.008  0.00  0.00    +0.000 A 
ATOM      5  C   UNL     1      -1.219   1.751   0.017  0.00  0.00    +0.000 A 
ATOM      6  C   UNL     1      -1.235   3.132   0.031  0.00  0.00    +0.004 A 
ATOM      7  C   UNL     1      -0.047   3.844   0.023  0.00  0.00    -0.044 A 
ATOM      8  C   UNL     1       0.203   5.336   0.027  0.00  0.00    +0.054 C 
ATOM      9  C   UNL     1       1.678   5.498   0.454  0.00  0.00    +0.071 C 
ENDROOT
BRANCH   1  10
ATOM     10  N   UNL     1       3.348   3.744   0.954  0.00  0.00    +0.389 N 
ATOM     11  H   UNL     1       3.861   4.573   1.276  0.00  0.00    -0.084 HD
ATOM     12  H   UNL     1       2.909   3.280   1.757  0.00  0.00    -0.084 HD
BRANCH  10  13
ATOM     13  C   UNL     1       4.288   2.811   0.306  0.00  0.00    -0.043 C 
ATOM     14  C   UNL     1       5.367   3.604  -0.434  0.00  0.00    -0.009 C 
BRANCH  13  20
ATOM     15  C   UNL     1       5.530   2.010   5.088  0.00  0.00    +0.044 C 
ATOM     16  C   UNL     1       5.528   1.565   3.648  0.00  0.00    -0.050 A 
ATOM     17  C   UNL     1       6.118   0.366   3.293  0.00  0.00    +0.003 A 
ATOM     18  C   UNL     1       6.116  -0.041   1.973  0.00  0.00    +0.004 A 
ATOM     19  C   UNL     1       5.519   0.747   1.007  0.00  0.00    -0.049 A 
ATOM     20  C   UNL     1       4.934   1.949   1.360  0.00  0.00    -0.058 A 
ATOM     21  C   UNL     1       4.936   2.357   2.681  0.00  0.00    +0.005 A 
ATOM     22  C   UNL     1       5.511   0.300  -0.432  0.00  0.00    +0.044 C 
ENDBRANCH  13  20
ENDBRANCH  10  13
ENDBRANCH   1  10
BRANCH   9  23
ATOM     23  N   UNL     1       2.304   6.626  -0.240  0.00  0.00    -0.188 NA
ATOM     24  H   UNL     1       2.593   6.530  -1.161  0.00  0.00    +0.148 HD
BRANCH  23  25
ATOM     25  S   UNL     1       2.518   8.067   0.548  0.00  0.00    +0.059 S 
ATOM     26  O   UNL     1       3.166   8.939  -0.368  0.00  0.00    -0.153 OA
ATOM     27  O   UNL     1       1.274   8.387   1.155  0.00  0.00    -0.153 OA
BRANCH  25  28
ATOM     28  C   UNL     1       3.659   7.778   1.860  0.00  0.00    +0.105 A 
ATOM     29  C   UNL     1       3.197   7.405   3.108  0.00  0.00    +0.028 A 
ATOM     30  C   UNL     1       4.092   7.175   4.136  0.00  0.00    +0.002 A 
ATOM     31  C   UNL     1       5.449   7.326   3.918  0.00  0.00    +0.000 A 
ATOM     32  C   UNL     1       5.910   7.704   2.671  0.00  0.00    +0.002 A 
ATOM     33  C   UNL     1       5.016   7.930   1.642  0.00  0.00    +0.028 A 
ENDBRANCH  25  28
ENDBRANCH  23  25
ENDBRANCH   9  23
TORSDOF 6
