REMARK  Name = ZINC22936077
REMARK  9 active torsions:
REMARK  status: ('A' for Active; 'I' for Inactive)
REMARK    1  A    between atoms: C_4  and  C_7
REMARK    2  A    between atoms: C_7  and  N_8
REMARK    3  A    between atoms: N_11  and  C_14
REMARK    4  A    between atoms: C_14  and  C_15
REMARK    5  A    between atoms: C_15  and  C_17
REMARK    6  A    between atoms: C_15  and  O_35
REMARK    7  A    between atoms: C_17  and  O_18
REMARK    8  A    between atoms: O_18  and  C_19
REMARK    9  A    between atoms: C_22  and  C_25
REMARK                            x       y       z     vdW  Elec       q    Type
REMARK                         _______ _______ _______ _____ _____    ______ ____
ROOT
ATOM      1  C   UNL     1       6.735  -3.816   4.760  0.00  0.00    +0.166 C 
ENDROOT
BRANCH   1   2
ATOM      2  O   UNL     1       6.487  -5.037   4.062  0.00  0.00    -0.387 OA
ATOM      3  H   UNL     1       5.806  -5.592   4.468  0.00  0.00    +0.210 HD
ENDBRANCH   1   2
BRANCH   1   4
ATOM      4  C   UNL     1       5.450  -2.988   4.812  0.00  0.00    +0.119 C 
BRANCH   4   8
ATOM      5  N   UNL     1       4.153  -0.953   1.342  0.00  0.00    +0.384 N 
ATOM      6  C   UNL     1       3.207  -1.861   2.004  0.00  0.00    -0.063 C 
ATOM      7  C   UNL     1       3.657  -2.102   3.447  0.00  0.00    +0.066 C 
ATOM      8  N   UNL     1       5.005  -2.688   3.445  0.00  0.00    -0.303 NA
ATOM      9  C   UNL     1       5.958  -1.801   2.763  0.00  0.00    +0.066 C 
ATOM     10  C   UNL     1       5.489  -1.562   1.326  0.00  0.00    -0.063 C 
ATOM     11  H   UNL     1       4.188  -0.079   1.844  0.00  0.00    -0.081 HD
BRANCH   5  12
ATOM     12  C   UNL     1       3.711  -0.707  -0.038  0.00  0.00    -0.043 C 
BRANCH  12  16
ATOM     13  C   UNL     1      -0.017   1.378   0.010  0.00  0.00    +0.000 A 
ATOM     14  C   UNL     1       1.171   2.086   0.002  0.00  0.00    +0.000 A 
ATOM     15  C   UNL     1       2.377   1.411  -0.013  0.00  0.00    +0.002 A 
ATOM     16  C   UNL     1       2.396   0.029  -0.020  0.00  0.00    -0.064 A 
ATOM     17  C   UNL     1       1.208  -0.679  -0.012  0.00  0.00    +0.002 A 
ATOM     18  C   UNL     1       0.002  -0.004   0.002  0.00  0.00    +0.000 A 
ENDBRANCH  12  16
ENDBRANCH   5  12
ENDBRANCH   4   8
ENDBRANCH   1   4
BRANCH   1  19
ATOM     19  C   UNL     1       7.199  -4.128   6.184  0.00  0.00    +0.261 C 
BRANCH  19  20
ATOM     20  O   UNL     1       8.459  -4.801   6.138  0.00  0.00    -0.489 OA
BRANCH  20  21
ATOM     21  C   UNL     1       9.015  -5.151   7.328  0.00  0.00    +0.121 A 
ATOM     22  C   UNL     1       8.358  -4.860   8.514  0.00  0.00    +0.046 A 
ATOM     23  C   UNL     1       8.925  -5.218   9.722  0.00  0.00    +0.008 A 
ATOM     24  C   UNL     1      10.146  -5.866   9.749  0.00  0.00    -0.041 A 
ATOM     25  C   UNL     1      10.803  -6.157   8.568  0.00  0.00    +0.008 A 
ATOM     26  C   UNL     1      10.238  -5.807   7.357  0.00  0.00    +0.046 A 
BRANCH  24  27
ATOM     27  C   UNL     1      10.763  -6.255  11.068  0.00  0.00    -0.003 C 
ATOM     28  C   UNL     1       9.822  -7.207  11.809  0.00  0.00    +0.015 C 
ATOM     29  C   UNL     1      10.448  -7.602  13.149  0.00  0.00    -0.010 C 
ATOM     30  C   UNL     1      11.787  -8.300  12.900  0.00  0.00    +0.007 C 
ATOM     31  C   UNL     1      12.728  -7.348  12.158  0.00  0.00    -0.010 C 
ATOM     32  C   UNL     1      12.102  -6.953  10.819  0.00  0.00    +0.015 C 
ATOM     33  C   UNL     1      12.956  -6.094  13.004  0.00  0.00    +0.007 C 
ATOM     34  C   UNL     1      11.617  -5.396  13.253  0.00  0.00    -0.010 C 
ATOM     35  C   UNL     1      10.676  -6.348  13.995  0.00  0.00    +0.007 C 
ATOM     36  C   UNL     1      10.991  -5.001  11.914  0.00  0.00    +0.015 C 
ENDBRANCH  24  27
ENDBRANCH  20  21
ENDBRANCH  19  20
ENDBRANCH   1  19
TORSDOF 9
