REMARK  Name = ZINC20491687
REMARK  7 active torsions:
REMARK  status: ('A' for Active; 'I' for Inactive)
REMARK    1  A    between atoms: C_1  and  C_2
REMARK    2  A    between atoms: C_7  and  S_8
REMARK    3  A    between atoms: S_8  and  N_11
REMARK    4  A    between atoms: N_11  and  C_12
REMARK    5  A    between atoms: C_15  and  C_18
REMARK    6  A    between atoms: C_18  and  C_19
REMARK    7  A    between atoms: C_18  and  C_20
REMARK                            x       y       z     vdW  Elec       q    Type
REMARK                         _______ _______ _______ _____ _____    ______ ____
ROOT
ATOM      1  S   UNL     1      -2.020   4.189   5.440  0.00  0.00    +0.073 S 
ATOM      2  O   UNL     1      -2.805   4.491   6.586  0.00  0.00    -0.150 OA
ATOM      3  O   UNL     1      -0.643   3.851   5.528  0.00  0.00    -0.150 OA
ENDROOT
BRANCH   1  10
ATOM      4  C   UNL     1      -0.750   4.332   2.705  0.00  0.00    +0.046 C 
ATOM      5  C   UNL     1      -1.512   5.558   3.136  0.00  0.00    -0.022 A 
ATOM      6  C   UNL     1      -1.593   6.652   2.293  0.00  0.00    +0.032 A 
ATOM      7  C   UNL     1      -2.294   7.778   2.691  0.00  0.00    +0.076 A 
ATOM      8  C   UNL     1      -2.915   7.807   3.939  0.00  0.00    +0.144 A 
ATOM      9  C   UNL     1      -2.834   6.707   4.774  0.00  0.00    +0.076 A 
ATOM     10  C   UNL     1      -2.128   5.587   4.373  0.00  0.00    +0.115 A 
ATOM     11  O   UNL     1      -3.599   8.919   4.320  0.00  0.00    -0.481 OA
ATOM     12  C   UNL     1      -3.101  10.173   3.847  0.00  0.00    +0.325 C 
ATOM     13  C   UNL     1      -2.796  10.074   2.373  0.00  0.00    +0.255 C 
ATOM     14  O   UNL     1      -2.916  11.048   1.660  0.00  0.00    -0.272 OA
ATOM     15  N   UNL     1      -2.390   8.897   1.851  0.00  0.00    -0.280 N 
ATOM     16  H   UNL     1      -2.135   8.807   0.785  0.00  0.00    +0.155 HD
ENDBRANCH   1  10
BRANCH   1  17
ATOM     17  N   UNL     1      -2.770   2.928   4.672  0.00  0.00    -0.216 N 
ATOM     18  H   UNL     1      -2.199   2.024   4.414  0.00  0.00    +0.174 HD
BRANCH  17  19
ATOM     19  C   UNL     1      -4.127   3.012   4.351  0.00  0.00    +0.048 A 
ATOM     20  C   UNL     1      -4.567   2.641   3.087  0.00  0.00    +0.025 A 
ATOM     21  C   UNL     1      -5.910   2.726   2.774  0.00  0.00    +0.006 A 
ATOM     22  C   UNL     1      -6.815   3.179   3.716  0.00  0.00    -0.045 A 
ATOM     23  C   UNL     1      -6.378   3.554   4.974  0.00  0.00    +0.006 A 
ATOM     24  C   UNL     1      -5.038   3.467   5.296  0.00  0.00    +0.025 A 
BRANCH  22  25
ATOM     25  C   UNL     1      -8.279   3.269   3.371  0.00  0.00    +0.013 C 
ATOM     26  C   UNL     1      -8.748   4.718   3.514  0.00  0.00    +0.012 C 
ATOM     27  C   UNL     1      -9.083   2.377   4.318  0.00  0.00    +0.012 C 
ENDBRANCH  22  25
ENDBRANCH  17  19
ENDBRANCH   1  17
TORSDOF 4
