REMARK  Name = ZINC23153407
REMARK  13 active torsions:
REMARK  status: ('A' for Active; 'I' for Inactive)
REMARK    1  A    between atoms: C_1  and  O_2
REMARK    2  A    between atoms: O_2  and  C_3
REMARK    3  A    between atoms: C_7  and  C_9
REMARK    4  A    between atoms: C_9  and  C_10
REMARK    5  A    between atoms: C_10  and  N_11
REMARK    6  A    between atoms: N_11  and  C_12
REMARK    7  A    between atoms: C_12  and  C_13
REMARK    8  A    between atoms: C_18  and  O_19
REMARK    9  A    between atoms: O_19  and  C_20
REMARK   10  A    between atoms: C_20  and  C_21
REMARK   11  A    between atoms: C_21  and  C_23
REMARK   12  A    between atoms: C_21  and  O_34
REMARK   13  A    between atoms: C_23  and  N_24
REMARK                            x       y       z     vdW  Elec       q    Type
REMARK                         _______ _______ _______ _____ _____    ______ ____
ROOT
ATOM      1  C   UNL     1      -0.134   9.377  -2.720  0.00  0.00    +0.008 A 
ATOM      2  C   UNL     1      -1.321  10.062  -2.894  0.00  0.00    +0.008 A 
ATOM      3  C   UNL     1      -1.337  11.444  -2.849  0.00  0.00    +0.001 A 
ATOM      4  C   UNL     1      -0.164  12.144  -2.630  0.00  0.00    +0.004 A 
ATOM      5  C   UNL     1       1.025  11.464  -2.455  0.00  0.00    +0.046 A 
ATOM      6  C   UNL     1       1.042  10.077  -2.495  0.00  0.00    +0.125 A 
ENDROOT
BRANCH   1   7
ATOM      7  C   UNL     1      -0.119   7.871  -2.768  0.00  0.00    +0.120 C 
BRANCH   7   8
ATOM      8  N   UNL     1      -0.100   7.337  -1.400  0.00  0.00    -0.312 NA
ATOM      9  H   UNL     1      -0.997   7.692  -0.871  0.00  0.00    +0.122 HD
BRANCH   8  10
ATOM     10  C   UNL     1      -0.084   5.868  -1.408  0.00  0.00    +0.086 C 
BRANCH  10  11
ATOM     11  C   UNL     1      -0.065   5.351   0.032  0.00  0.00    +0.050 C 
BRANCH  11  16
ATOM     12  C   UNL     1      -1.223   1.754   0.017  0.00  0.00    +0.120 A 
ATOM     13  C   UNL     1      -0.013   1.076   0.008  0.00  0.00    +0.045 A 
ATOM     14  C   UNL     1       1.174   1.783   0.000  0.00  0.00    +0.004 A 
ATOM     15  C   UNL     1       1.156   3.166   0.008  0.00  0.00    +0.004 A 
ATOM     16  C   UNL     1      -0.049   3.844   0.023  0.00  0.00    -0.043 A 
ATOM     17  C   UNL     1      -1.239   3.141   0.031  0.00  0.00    +0.049 A 
BRANCH  12  19
ATOM     18  C   UNL     1      -2.300  -0.366   0.011  0.00  0.00    +0.277 C 
ATOM     19  O   UNL     1      -2.392   1.060   0.019  0.00  0.00    -0.495 OA
ENDBRANCH  12  19
ENDBRANCH  11  16
ENDBRANCH  10  11
ENDBRANCH   8  10
ENDBRANCH   7   8
ENDBRANCH   1   7
BRANCH   6  20
ATOM     20  O   UNL     1       2.210   9.405  -2.317  0.00  0.00    -0.489 OA
BRANCH  20  21
ATOM     21  C   UNL     1       3.382  10.190  -2.090  0.00  0.00    +0.258 C 
BRANCH  21  22
ATOM     22  C   UNL     1       4.589   9.266  -1.915  0.00  0.00    +0.135 C 
BRANCH  22  23
ATOM     23  O   UNL     1       4.422   8.485  -0.731  0.00  0.00    -0.390 OA
ATOM     24  H   UNL     1       5.194   7.758  -0.438  0.00  0.00    +0.210 HD
ENDBRANCH  22  23
BRANCH  22  25
ATOM     25  C   UNL     1       5.862  10.107  -1.796  0.00  0.00    -0.043 C 
BRANCH  25  26
ATOM     26  N   UNL     1       7.032   9.220  -1.748  0.00  0.00    +0.384 N 
ATOM     27  C   UNL     1       8.252   9.974  -1.419  0.00  0.00    -0.074 C 
ATOM     28  C   UNL     1       9.345   8.980  -1.024  0.00  0.00    +0.017 C 
ATOM     29  C   UNL     1       9.458   7.899  -2.067  0.00  0.00    -0.048 A 
ATOM     30  C   UNL     1      10.601   7.114  -2.085  0.00  0.00    +0.004 A 
ATOM     31  C   UNL     1      10.744   6.110  -3.021  0.00  0.00    +0.000 A 
ATOM     32  C   UNL     1       9.742   5.885  -3.947  0.00  0.00    +0.000 A 
ATOM     33  C   UNL     1       8.604   6.667  -3.931  0.00  0.00    +0.002 A 
ATOM     34  C   UNL     1       8.460   7.678  -2.992  0.00  0.00    -0.061 A 
ATOM     35  C   UNL     1       7.202   8.506  -3.017  0.00  0.00    -0.043 C 
ATOM     36  H   UNL     1       6.855   8.477  -0.956  0.00  0.00    -0.081 HD
ENDBRANCH  25  26
ENDBRANCH  22  25
ENDBRANCH  21  22
ENDBRANCH  20  21
ENDBRANCH   6  20
TORSDOF 12
