REMARK  Name = ZINC21726336
REMARK  6 active torsions:
REMARK  status: ('A' for Active; 'I' for Inactive)
REMARK    1  A    between atoms: C_1  and  C_2
REMARK    2  A    between atoms: C_13  and  C_16
REMARK    3  A    between atoms: C_21  and  C_23
REMARK    4  A    between atoms: C_28  and  O_29
REMARK    5  A    between atoms: O_29  and  C_30
REMARK    6  A    between atoms: C_30  and  C_31
REMARK                            x       y       z     vdW  Elec       q    Type
REMARK                         _______ _______ _______ _____ _____    ______ ____
ROOT
ATOM      1  C   UNL     1      -3.152   1.689   0.497  0.00  0.00    +0.068 C 
ATOM      2  C   UNL     1      -2.034   1.838   1.497  0.00  0.00    +0.066 A 
ATOM      3  C   UNL     1      -0.692   1.578   1.261  0.00  0.00    +0.023 A 
ATOM      4  C   UNL     1       0.000   1.848   2.412  0.00  0.00    +0.134 A 
ATOM      5  N   UNL     1      -0.895   2.242   3.342  0.00  0.00    -0.198 N 
ATOM      6  N   UNL     1      -2.164   2.237   2.741  0.00  0.00    -0.168 NA
ATOM      7  C   UNL     1      -0.610   2.591   4.665  0.00  0.00    +0.176 A 
ATOM      8  C   UNL     1      -1.475   3.460   5.356  0.00  0.00    +0.054 A 
ATOM      9  C   UNL     1      -1.211   3.803   6.645  0.00  0.00    +0.054 A 
ATOM     10  C   UNL     1      -0.060   3.288   7.269  0.00  0.00    +0.178 A 
ATOM     11  N   UNL     1       0.469   3.426   8.474  0.00  0.00    -0.128 NA
ATOM     12  N   UNL     1       1.551   2.731   8.545  0.00  0.00    -0.132 NA
ATOM     13  C   UNL     1       1.771   2.119   7.408  0.00  0.00    +0.152 A 
ATOM     14  N   UNL     1       0.768   2.446   6.566  0.00  0.00    -0.195 N 
ATOM     15  N   UNL     1       0.464   2.110   5.245  0.00  0.00    -0.144 NA
ATOM     16  C   UNL     1       2.934   1.213   7.097  0.00  0.00    +0.090 C 
ATOM     17  N   UNL     1       1.382   1.688   2.493  0.00  0.00    -0.270 N 
ATOM     18  C   UNL     1       2.067   1.480   1.347  0.00  0.00    +0.219 C 
ATOM     19  O   UNL     1       3.237   1.169   1.411  0.00  0.00    -0.275 OA
ATOM     20  C   UNL     1       1.423   1.622  -0.003  0.00  0.00    +0.109 C 
ATOM     21  C   UNL     1      -0.013   1.086   0.008  0.00  0.00    +0.066 C 
ATOM     22  H   UNL     1       1.885   1.733   3.470  0.00  0.00    +0.156 HD
ENDROOT
BRANCH  21  23
ATOM     23  C   UNL     1      -0.753   1.590  -1.204  0.00  0.00    +0.002 A 
ATOM     24  C   UNL     1      -0.899   2.949  -1.409  0.00  0.00    +0.008 A 
ATOM     25  C   UNL     1      -1.578   3.412  -2.520  0.00  0.00    +0.001 A 
ATOM     26  C   UNL     1      -2.111   2.518  -3.430  0.00  0.00    +0.004 A 
ATOM     27  C   UNL     1      -1.966   1.159  -3.231  0.00  0.00    +0.046 A 
ATOM     28  C   UNL     1      -1.282   0.691  -2.118  0.00  0.00    +0.125 A 
BRANCH  28  29
ATOM     29  O   UNL     1      -1.135  -0.645  -1.922  0.00  0.00    -0.487 OA
BRANCH  29  30
ATOM     30  C   UNL     1      -1.706  -1.512  -2.904  0.00  0.00    +0.266 C 
BRANCH  30  31
ATOM     31  C   UNL     1      -1.444  -2.946  -2.521  0.00  0.00    +0.008 A 
ATOM     32  C   UNL     1      -0.743  -3.236  -1.366  0.00  0.00    +0.008 A 
ATOM     33  C   UNL     1      -0.502  -4.551  -1.015  0.00  0.00    +0.000 A 
ATOM     34  C   UNL     1      -0.964  -5.577  -1.819  0.00  0.00    +0.001 A 
ATOM     35  C   UNL     1      -1.665  -5.288  -2.974  0.00  0.00    +0.020 A 
ATOM     36  C   UNL     1      -1.910  -3.972  -3.324  0.00  0.00    +0.047 A 
ATOM     37 CL   UNL     1      -2.797  -3.608  -4.771  0.00  0.00    -0.083 Cl
ENDBRANCH  30  31
ENDBRANCH  29  30
ENDBRANCH  28  29
ENDBRANCH  21  23
TORSDOF 4
