REMARK  Name = ZINC00930871
REMARK  9 active torsions:
REMARK  status: ('A' for Active; 'I' for Inactive)
REMARK    1  A    between atoms: C_1  and  O_2
REMARK    2  A    between atoms: O_2  and  C_3
REMARK    3  A    between atoms: C_7  and  C_9
REMARK    4  A    between atoms: C_9  and  C_11
REMARK    5  A    between atoms: C_9  and  N_20
REMARK    6  A    between atoms: N_13  and  C_14
REMARK    7  A    between atoms: N_20  and  C_21
REMARK    8  A    between atoms: C_21  and  C_22
REMARK    9  A    between atoms: C_28  and  C_30
REMARK                            x       y       z     vdW  Elec       q    Type
REMARK                         _______ _______ _______ _____ _____    ______ ____
ROOT
ATOM      1  N   UNL     1      -1.559  -0.271   1.353  0.00  0.00    -0.278 N 
ATOM      2  C   UNL     1      -2.079  -0.549   2.565  0.00  0.00    +0.261 C 
ATOM      3  O   UNL     1      -2.392   0.353   3.313  0.00  0.00    -0.271 OA
ENDROOT
BRANCH   2   4
ATOM      4  C   UNL     1      -2.271  -1.982   2.992  0.00  0.00    +0.296 C 
ATOM      5  C   UNL     1      -3.475  -2.584   2.254  0.00  0.00    +0.283 C 
ATOM      6  O   UNL     1      -3.637  -3.938   2.692  0.00  0.00    -0.484 OA
ATOM      7  C   UNL     1      -3.574  -4.159   4.033  0.00  0.00    +0.162 A 
ATOM      8  C   UNL     1      -4.069  -5.346   4.552  0.00  0.00    +0.049 A 
ATOM      9  C   UNL     1      -4.009  -5.586   5.911  0.00  0.00    +0.004 A 
ATOM     10  C   UNL     1      -3.456  -4.644   6.758  0.00  0.00    +0.004 A 
ATOM     11  C   UNL     1      -2.961  -3.458   6.248  0.00  0.00    +0.049 A 
ATOM     12  C   UNL     1      -3.019  -3.211   4.885  0.00  0.00    +0.163 A 
ATOM     13  O   UNL     1      -2.534  -2.036   4.398  0.00  0.00    -0.473 OA
ENDBRANCH   2   4
BRANCH   1  14
ATOM     14  C   UNL     1      -1.421   1.121   0.918  0.00  0.00    +0.193 C 
BRANCH  14  19
ATOM     15  C   UNL     1       0.551   3.782   2.738  0.00  0.00    +0.120 A 
ATOM     16  C   UNL     1       1.613   3.042   3.238  0.00  0.00    +0.045 A 
ATOM     17  C   UNL     1       1.687   1.686   2.988  0.00  0.00    +0.004 A 
ATOM     18  C   UNL     1       0.703   1.065   2.241  0.00  0.00    +0.006 A 
ATOM     19  C   UNL     1      -0.353   1.800   1.737  0.00  0.00    -0.015 A 
ATOM     20  C   UNL     1      -0.435   3.156   1.989  0.00  0.00    +0.051 A 
BRANCH  15  22
ATOM     21  C   UNL     1       1.526   5.693   3.761  0.00  0.00    +0.277 C 
ATOM     22  O   UNL     1       0.476   5.117   2.983  0.00  0.00    -0.495 OA
ENDBRANCH  15  22
ENDBRANCH  14  19
BRANCH  14  23
ATOM     23  C   UNL     1      -1.034   1.156  -0.538  0.00  0.00    +0.238 C 
ATOM     24  O   UNL     1      -1.288   0.212  -1.256  0.00  0.00    -0.273 OA
ATOM     25  N   UNL     1      -0.406   2.236  -1.043  0.00  0.00    -0.311 N 
ATOM     26  H   UNL     1      -0.203   2.992  -0.469  0.00  0.00    +0.149 HD
BRANCH  25  27
ATOM     27  C   UNL     1      -0.031   2.270  -2.459  0.00  0.00    +0.073 C 
ATOM     28  C   UNL     1       1.322   1.580  -2.644  0.00  0.00    +0.022 C 
ATOM     29  C   UNL     1       1.715   1.615  -4.122  0.00  0.00    +0.002 C 
ATOM     30  C   UNL     1       1.816   3.069  -4.589  0.00  0.00    +0.000 C 
ATOM     31  C   UNL     1       0.463   3.759  -4.403  0.00  0.00    +0.002 C 
ATOM     32  C   UNL     1       0.071   3.724  -2.925  0.00  0.00    +0.022 C 
ENDBRANCH  25  27
ENDBRANCH  14  23
ENDBRANCH   1  14
BRANCH   1  33
ATOM     33  C   UNL     1      -1.132  -1.360   0.472  0.00  0.00    +0.145 C 
BRANCH  33  34
ATOM     34  C   UNL     1       0.371  -1.355   0.359  0.00  0.00    -0.012 A 
ATOM     35  C   UNL     1       0.986  -0.906  -0.800  0.00  0.00    +0.008 A 
ATOM     36  C   UNL     1       2.371  -0.916  -0.857  0.00  0.00    +0.020 A 
ATOM     37  C   UNL     1       3.087  -1.379   0.231  0.00  0.00    +0.111 A 
ATOM     38  N   UNL     1       2.468  -1.803   1.315  0.00  0.00    -0.263 NA
ATOM     39  C   UNL     1       1.152  -1.803   1.406  0.00  0.00    +0.115 A 
ENDBRANCH  33  34
ENDBRANCH   1  33
TORSDOF 8
