REMARK  Name = ZINC55647484
REMARK  7 active torsions:
REMARK  status: ('A' for Active; 'I' for Inactive)
REMARK    1  A    between atoms: C_1  and  C_2
REMARK    2  A    between atoms: C_5  and  C_9
REMARK    3  A    between atoms: C_6  and  O_8
REMARK    4  A    between atoms: N_11  and  N_12
REMARK    5  A    between atoms: N_12  and  S_13
REMARK    6  A    between atoms: S_13  and  C_16
REMARK    7  A    between atoms: C_21  and  C_22
REMARK                            x       y       z     vdW  Elec       q    Type
REMARK                         _______ _______ _______ _____ _____    ______ ____
ROOT
ATOM      1  C   UNL     1       0.005  -4.596   0.067  0.00  0.00    +0.262 C 
ATOM      2  O   UNL     1      -0.041  -5.264   1.082  0.00  0.00    -0.269 OA
ATOM      3  N   UNL     1      -0.007  -5.198  -1.138  0.00  0.00    -0.228 N 
ATOM      4  H   UNL     1       0.102  -4.671  -1.945  0.00  0.00    +0.171 HD
ENDROOT
BRANCH   1   9
ATOM      5  C   UNL     1       0.276   1.144   0.406  0.00  0.00    +0.044 C 
ATOM      6  C   UNL     1       0.205  -0.359   0.321  0.00  0.00    -0.047 A 
ATOM      7  C   UNL     1       0.318  -0.985  -0.909  0.00  0.00    +0.004 A 
ATOM      8  C   UNL     1       0.254  -2.359  -0.999  0.00  0.00    +0.017 A 
ATOM      9  C   UNL     1       0.075  -3.124   0.156  0.00  0.00    +0.079 A 
ATOM     10  C   UNL     1      -0.039  -2.487   1.399  0.00  0.00    +0.129 A 
ATOM     11  C   UNL     1       0.033  -1.104   1.471  0.00  0.00    +0.049 A 
BRANCH  10  12
ATOM     12  O   UNL     1      -0.214  -3.220   2.527  0.00  0.00    -0.506 OA
ATOM     13  H   UNL     1       0.612  -3.481   2.958  0.00  0.00    +0.292 HD
ENDBRANCH  10  12
ENDBRANCH   1   9
BRANCH   3  14
ATOM     14  N   UNL     1      -0.179  -6.586  -1.226  0.00  0.00    -0.108 NA
ATOM     15  H   UNL     1       0.423  -7.180  -0.750  0.00  0.00    +0.172 HD
BRANCH  14  16
ATOM     16  S   UNL     1      -1.407  -7.212  -2.143  0.00  0.00    +0.074 S 
ATOM     17  O   UNL     1      -1.169  -8.610  -2.241  0.00  0.00    -0.152 OA
ATOM     18  O   UNL     1      -2.617  -6.681  -1.618  0.00  0.00    -0.152 OA
BRANCH  16  19
ATOM     19  C   UNL     1      -1.232  -6.556  -3.768  0.00  0.00    +0.111 A 
ATOM     20  C   UNL     1      -2.207  -5.723  -4.286  0.00  0.00    +0.048 A 
ATOM     21  C   UNL     1      -2.068  -5.208  -5.562  0.00  0.00    +0.043 A 
ATOM     22  C   UNL     1      -0.954  -5.525  -6.319  0.00  0.00    +0.020 A 
ATOM     23  C   UNL     1       0.019  -6.357  -5.800  0.00  0.00    +0.007 A 
ATOM     24  C   UNL     1      -0.117  -6.868  -4.523  0.00  0.00    -0.024 A 
ATOM     25  C   UNL     1       0.948  -7.771  -3.955  0.00  0.00    +0.046 C 
ATOM     26 CL   UNL     1      -3.292  -4.163  -6.214  0.00  0.00    -0.083 Cl
ENDBRANCH  16  19
ENDBRANCH  14  16
ENDBRANCH   3  14
TORSDOF 5
