REMARK  Name = ZINC12740638
REMARK  6 active torsions:
REMARK  status: ('A' for Active; 'I' for Inactive)
REMARK    1  A    between atoms: C_1  and  C_2
REMARK    2  A    between atoms: C_4  and  C_30
REMARK    3  A    between atoms: C_6  and  C_8
REMARK    4  A    between atoms: N_10  and  C_11
REMARK    5  A    between atoms: C_11  and  C_12
REMARK    6  A    between atoms: C_18  and  C_20
REMARK                            x       y       z     vdW  Elec       q    Type
REMARK                         _______ _______ _______ _____ _____    ______ ____
ROOT
ATOM      1  C   UNL     1       4.611   5.733  -0.010  0.00  0.00    +0.236 C 
ATOM      2  O   UNL     1       3.463   6.125   0.002  0.00  0.00    -0.274 OA
ATOM      3  N   UNL     1       5.626   6.620  -0.014  0.00  0.00    -0.262 N 
ATOM      4  C   UNL     1       5.356   7.984  -0.005  0.00  0.00    +0.188 A 
ATOM      5  N   UNL     1       4.194   8.614   0.002  0.00  0.00    -0.126 NA
ATOM      6  N   UNL     1       4.118   9.874   0.015  0.00  0.00    -0.144 NA
ATOM      7  C   UNL     1       5.209  10.613   0.009  0.00  0.00    +0.110 A 
ATOM      8  S   UNL     1       6.457   9.331  -0.008  0.00  0.00    -0.035 S 
ATOM      9  H   UNL     1       6.544   6.307  -0.024  0.00  0.00    +0.157 HD
ENDROOT
BRANCH   7  10
ATOM     10  C   UNL     1       5.362  12.112   0.016  0.00  0.00    +0.022 C 
ATOM     11  C   UNL     1       4.686  12.699  -1.224  0.00  0.00    +0.017 C 
ATOM     12  C   UNL     1       4.841  14.221  -1.218  0.00  0.00    -0.010 C 
ATOM     13  C   UNL     1       4.186  14.795   0.040  0.00  0.00    +0.007 C 
ATOM     14  C   UNL     1       4.862  14.208   1.281  0.00  0.00    -0.010 C 
ATOM     15  C   UNL     1       4.707  12.686   1.274  0.00  0.00    +0.017 C 
ATOM     16  C   UNL     1       6.349  14.569   1.270  0.00  0.00    +0.007 C 
ATOM     17  C   UNL     1       7.004  13.995   0.012  0.00  0.00    -0.010 C 
ATOM     18  C   UNL     1       6.328  14.582  -1.228  0.00  0.00    +0.007 C 
ATOM     19  C   UNL     1       6.849  12.473   0.005  0.00  0.00    +0.017 C 
ENDBRANCH   7  10
BRANCH   1  20
ATOM     20  C   UNL     1       4.903   4.254  -0.020  0.00  0.00    +0.200 C 
BRANCH  20  23
ATOM     21  C   UNL     1       3.657   2.160  -0.020  0.00  0.00    +0.244 C 
ATOM     22  O   UNL     1       4.716   1.564  -0.032  0.00  0.00    -0.270 OA
ATOM     23  N   UNL     1       3.642   3.508  -0.013  0.00  0.00    -0.303 N 
ATOM     24  H   UNL     1       2.797   3.984  -0.003  0.00  0.00    +0.150 HD
BRANCH  21  30
ATOM     25  C   UNL     1      -1.333   2.113   0.020  0.00  0.00    +0.044 C 
ATOM     26  C   UNL     1      -0.017   1.379   0.010  0.00  0.00    -0.049 A 
ATOM     27  C   UNL     1       0.002  -0.004   0.002  0.00  0.00    +0.006 A 
ATOM     28  C   UNL     1       1.206  -0.686  -0.013  0.00  0.00    -0.049 A 
ATOM     29  C   UNL     1       2.397   0.011  -0.020  0.00  0.00    +0.016 A 
ATOM     30  C   UNL     1       2.385   1.407  -0.013  0.00  0.00    +0.037 A 
ATOM     31  C   UNL     1       1.167   2.088   0.002  0.00  0.00    +0.016 A 
ATOM     32  C   UNL     1       1.217  -2.193  -0.020  0.00  0.00    +0.044 C 
ENDBRANCH  21  30
ENDBRANCH  20  23
ENDBRANCH   1  20
TORSDOF 4
