REMARK  Name = ZINC09649880
REMARK  5 active torsions:
REMARK  status: ('A' for Active; 'I' for Inactive)
REMARK    1  A    between atoms: C_1  and  C_2
REMARK    2  A    between atoms: C_5  and  N_8
REMARK    3  A    between atoms: C_14  and  C_17
REMARK    4  A    between atoms: C_17  and  C_18
REMARK    5  A    between atoms: N_20  and  C_21
REMARK                            x       y       z     vdW  Elec       q    Type
REMARK                         _______ _______ _______ _____ _____    ______ ____
ROOT
ATOM      1  N   UNL     1       8.950   6.066   3.018  0.00  0.00    -0.269 N 
ATOM      2  C   UNL     1       8.048   6.292   2.043  0.00  0.00    +0.310 C 
ATOM      3  O   UNL     1       8.335   7.008   1.103  0.00  0.00    -0.252 OA
ATOM      4  N   UNL     1       6.827   5.725   2.110  0.00  0.00    -0.248 N 
ATOM      5  C   UNL     1       5.896   5.959   1.104  0.00  0.00    +0.166 A 
ATOM      6  N   UNL     1       4.663   5.505   0.995  0.00  0.00    -0.229 NA
ATOM      7  C   UNL     1       3.906   5.824  -0.037  0.00  0.00    +0.059 A 
ATOM      8  C   UNL     1       4.421   6.644  -0.986  0.00  0.00    +0.072 A 
ATOM      9  S   UNL     1       6.056   6.930  -0.327  0.00  0.00    -0.060 S 
ATOM     10  H   UNL     1       8.750   5.435   3.727  0.00  0.00    +0.156 HD
ATOM     11  H   UNL     1       6.598   5.154   2.860  0.00  0.00    +0.158 HD
ENDROOT
BRANCH   1  16
ATOM     12  C   UNL     1      13.921   8.800   2.974  0.00  0.00    +0.044 C 
ATOM     13  C   UNL     1      12.600   8.074   2.986  0.00  0.00    -0.050 A 
ATOM     14  C   UNL     1      11.464   8.701   2.509  0.00  0.00    +0.005 A 
ATOM     15  C   UNL     1      10.252   8.038   2.518  0.00  0.00    +0.023 A 
ATOM     16  C   UNL     1      10.176   6.740   3.007  0.00  0.00    +0.035 A 
ATOM     17  C   UNL     1      11.318   6.115   3.490  0.00  0.00    +0.023 A 
ATOM     18  C   UNL     1      12.528   6.782   3.473  0.00  0.00    +0.005 A 
ENDBRANCH   1  16
BRANCH   7  19
ATOM     19  C   UNL     1       2.500   5.295  -0.156  0.00  0.00    +0.152 C 
BRANCH  19  20
ATOM     20  C   UNL     1       2.522   3.790  -0.076  0.00  0.00    +0.223 C 
ATOM     21  O   UNL     1       3.575   3.205   0.062  0.00  0.00    -0.275 OA
ATOM     22  N   UNL     1       1.371   3.094  -0.160  0.00  0.00    -0.285 N 
ATOM     23  H   UNL     1       0.537   3.555  -0.343  0.00  0.00    +0.155 HD
BRANCH  22  24
ATOM     24  C   UNL     1       1.378   1.706   0.018  0.00  0.00    +0.033 A 
ATOM     25  C   UNL     1       2.272   1.122   0.905  0.00  0.00    +0.024 A 
ATOM     26  C   UNL     1       2.277  -0.248   1.078  0.00  0.00    +0.017 A 
ATOM     27  C   UNL     1       1.391  -1.039   0.369  0.00  0.00    +0.018 A 
ATOM     28  C   UNL     1       0.498  -0.460  -0.516  0.00  0.00    +0.017 A 
ATOM     29  C   UNL     1       0.490   0.909  -0.693  0.00  0.00    +0.024 A 
ATOM     30 BR   UNL     1       1.400  -2.915   0.608  0.00  0.00    -0.050 Br
ENDBRANCH  22  24
ENDBRANCH  19  20
ENDBRANCH   7  19
TORSDOF 4
