REMARK  Name = ZINC35179277
REMARK  3 active torsions:
REMARK  status: ('A' for Active; 'I' for Inactive)
REMARK    1  A    between atoms: C_1  and  N_2
REMARK    2  A    between atoms: N_7  and  C_10
REMARK    3  A    between atoms: N_11  and  C_12
REMARK                            x       y       z     vdW  Elec       q    Type
REMARK                         _______ _______ _______ _____ _____    ______ ____
ROOT
ATOM      1  C   UNL     1      -0.018   1.461   0.010  0.00  0.00    +0.157 C 
ATOM      2  N   UNL     1       0.002  -0.004   0.002  0.00  0.00    -0.260 N 
ATOM      3  C   UNL     1      -1.157  -0.694   0.004  0.00  0.00    +0.297 A 
ATOM      4  O   UNL     1      -2.224  -0.108   0.012  0.00  0.00    -0.264 OA
ATOM      5  C   UNL     1      -1.115  -2.166  -0.005  0.00  0.00    +0.205 A 
ATOM      6  N   UNL     1       0.047  -2.765  -0.014  0.00  0.00    -0.147 NA
ATOM      7  N   UNL     1       1.223  -2.004  -0.015  0.00  0.00    -0.216 N 
ATOM      8  C   UNL     1       1.177  -0.660  -0.013  0.00  0.00    +0.348 A 
ATOM      9  O   UNL     1       2.216  -0.027  -0.019  0.00  0.00    -0.245 OA
ATOM     10  C   UNL     1       2.521  -2.682  -0.026  0.00  0.00    +0.178 C 
ATOM     11  N   UNL     1      -2.296  -2.909  -0.003  0.00  0.00    -0.319 N 
ATOM     12  H   UNL     1      -3.154  -2.456   0.004  0.00  0.00    +0.148 HD
ENDROOT
BRANCH  11  13
ATOM     13  C   UNL     1      -2.240  -4.373  -0.012  0.00  0.00    +0.094 C 
ATOM     14  C   UNL     1      -2.099  -4.887   1.431  0.00  0.00    +0.046 C 
ATOM     15  C   UNL     1      -2.356  -6.421   1.425  0.00  0.00    +0.168 C 
ATOM     16  S   UNL     1      -3.771  -6.521   0.249  0.00  0.00    -0.029 S 
ATOM     17  O   UNL     1      -3.548  -7.598  -0.651  0.00  0.00    -0.174 OA
ATOM     18  O   UNL     1      -4.987  -6.463   0.982  0.00  0.00    -0.174 OA
ATOM     19  C   UNL     1      -3.536  -4.933  -0.646  0.00  0.00    +0.188 C 
ENDBRANCH  11  13
TORSDOF 1
