REMARK  Name = ZINC03876115
REMARK  3 active torsions:
REMARK  status: ('A' for Active; 'I' for Inactive)
REMARK    1  A    between atoms: C_1  and  C_2
REMARK    2  A    between atoms: C_9  and  O_24
REMARK    3  A    between atoms: C_10  and  O_23
REMARK                            x       y       z     vdW  Elec       q    Type
REMARK                         _______ _______ _______ _____ _____    ______ ____
ROOT
ATOM      1  C   UNL     1       8.084   3.272  -0.745  0.00  0.00    +0.019 C 
ATOM      2  C   UNL     1       7.472   4.590  -0.267  0.00  0.00    +0.029 C 
ATOM      3  C   UNL     1       6.960   4.449   1.144  0.00  0.00    +0.015 C 
ATOM      4  C   UNL     1       5.451   4.132   1.148  0.00  0.00    +0.009 C 
ATOM      5  C   UNL     1       5.103   3.307  -0.075  0.00  0.00    +0.023 C 
ATOM      6  C   UNL     1       3.731   2.699  -0.072  0.00  0.00    -0.037 A 
ATOM      7  C   UNL     1       3.104   2.409   1.125  0.00  0.00    +0.053 A 
ATOM      8  C   UNL     1       1.845   1.833   1.135  0.00  0.00    +0.158 A 
ATOM      9  C   UNL     1       1.211   1.553  -0.072  0.00  0.00    +0.158 A 
ATOM     10  C   UNL     1       1.841   1.853  -1.265  0.00  0.00    +0.053 A 
ATOM     11  C   UNL     1       3.109   2.425  -1.279  0.00  0.00    -0.040 A 
ATOM     12  C   UNL     1       3.722   2.706  -2.624  0.00  0.00    +0.036 C 
ATOM     13  C   UNL     1       5.151   3.249  -2.536  0.00  0.00    +0.009 C 
ATOM     14  C   UNL     1       5.217   4.179  -1.333  0.00  0.00    +0.001 C 
ATOM     15  C   UNL     1       6.383   5.098  -1.233  0.00  0.00    +0.006 C 
ATOM     16  C   UNL     1       7.199   5.362  -2.508  0.00  0.00    +0.012 C 
ATOM     17  C   UNL     1       8.523   5.953  -1.949  0.00  0.00    +0.075 C 
ATOM     18  C   UNL     1       8.541   5.652  -0.454  0.00  0.00    +0.139 C 
ATOM     19  O   UNL     1       9.236   6.135   0.396  0.00  0.00    -0.297 OA
ENDROOT
BRANCH   9  20
ATOM     20  O   UNL     1      -0.025   0.987  -0.077  0.00  0.00    -0.503 OA
ATOM     21  H   UNL     1      -0.015   0.020  -0.087  0.00  0.00    +0.292 HD
ENDBRANCH   9  20
BRANCH   8  22
ATOM     22  O   UNL     1       1.234   1.544   2.315  0.00  0.00    -0.503 OA
ATOM     23  H   UNL     1       1.425   0.657   2.649  0.00  0.00    +0.292 HD
ENDBRANCH   8  22
TORSDOF 2
