REMARK  Name = ZINC20491717
REMARK  5 active torsions:
REMARK  status: ('A' for Active; 'I' for Inactive)
REMARK    1  A    between atoms: C_1  and  C_2
REMARK    2  A    between atoms: C_7  and  N_8
REMARK    3  A    between atoms: N_8  and  S_9
REMARK    4  A    between atoms: S_9  and  C_12
REMARK    5  A    between atoms: C_17  and  C_18
REMARK                            x       y       z     vdW  Elec       q    Type
REMARK                         _______ _______ _______ _____ _____    ______ ____
ROOT
ATOM      1  S   UNL     1      -0.316   1.583   0.135  0.00  0.00    +0.073 S 
ATOM      2  O   UNL     1       0.736   2.525   0.296  0.00  0.00    -0.150 OA
ATOM      3  O   UNL     1      -1.361   1.438   1.087  0.00  0.00    -0.150 OA
ENDROOT
BRANCH   1   4
ATOM      4  C   UNL     1      -1.086   1.949  -1.407  0.00  0.00    +0.115 A 
ATOM      5  C   UNL     1      -0.626   3.004  -2.174  0.00  0.00    +0.076 A 
ATOM      6  C   UNL     1      -1.228   3.288  -3.387  0.00  0.00    +0.144 A 
ATOM      7  C   UNL     1      -2.303   2.516  -3.827  0.00  0.00    +0.076 A 
ATOM      8  C   UNL     1      -2.761   1.464  -3.052  0.00  0.00    +0.032 A 
ATOM      9  C   UNL     1      -2.151   1.183  -1.843  0.00  0.00    -0.022 A 
ATOM     10  C   UNL     1      -2.649   0.038  -0.999  0.00  0.00    +0.046 C 
ATOM     11  N   UNL     1      -2.908   2.819  -5.055  0.00  0.00    -0.280 N 
ATOM     12  C   UNL     1      -2.259   3.626  -5.922  0.00  0.00    +0.255 C 
ATOM     13  O   UNL     1      -2.776   3.926  -6.978  0.00  0.00    -0.272 OA
ATOM     14  C   UNL     1      -0.890   4.152  -5.574  0.00  0.00    +0.325 C 
ATOM     15  O   UNL     1      -0.785   4.318  -4.157  0.00  0.00    -0.481 OA
ATOM     16  H   UNL     1      -3.895   2.401  -5.300  0.00  0.00    +0.155 HD
ENDBRANCH   1   4
BRANCH   1  17
ATOM     17  N   UNL     1       0.398   0.097  -0.014  0.00  0.00    -0.216 N 
ATOM     18  H   UNL     1       0.102  -0.725   0.654  0.00  0.00    +0.174 HD
BRANCH  17  25
ATOM     19  C   UNL     1       0.523  -2.456  -1.262  0.00  0.00    +0.046 C 
ATOM     20  C   UNL     1       1.474  -1.345  -1.624  0.00  0.00    -0.025 A 
ATOM     21  C   UNL     1       2.440  -1.549  -2.591  0.00  0.00    +0.043 A 
ATOM     22  C   UNL     1       3.317  -0.530  -2.920  0.00  0.00    +0.124 A 
ATOM     23  C   UNL     1       3.226   0.697  -2.285  0.00  0.00    +0.040 A 
ATOM     24  C   UNL     1       2.260   0.907  -1.321  0.00  0.00    +0.027 A 
ATOM     25  C   UNL     1       1.378  -0.114  -0.990  0.00  0.00    +0.051 A 
ATOM     26  F   UNL     1       4.264  -0.733  -3.862  0.00  0.00    -0.205 F 
ENDBRANCH  17  25
ENDBRANCH   1  17
TORSDOF 3
