REMARK  Name = ZINC17245853
REMARK  11 active torsions:
REMARK  status: ('A' for Active; 'I' for Inactive)
REMARK    1  A    between atoms: C_1  and  C_2
REMARK    2  A    between atoms: C_2  and  C_3
REMARK    3  A    between atoms: C_2  and  C_4
REMARK    4  A    between atoms: C_4  and  O_5
REMARK    5  A    between atoms: O_5  and  C_6
REMARK    6  A    between atoms: C_10  and  C_12
REMARK    7  A    between atoms: N_14  and  C_15
REMARK    8  A    between atoms: C_15  and  N_17
REMARK    9  A    between atoms: C_21  and  C_24
REMARK   10  A    between atoms: C_27  and  O_31
REMARK   11  A    between atoms: O_31  and  C_32
REMARK                            x       y       z     vdW  Elec       q    Type
REMARK                         _______ _______ _______ _____ _____    ______ ____
ROOT
ATOM      1  C   UNL     1      -5.238  -8.051  -0.478  0.00  0.00    +0.163 C 
ATOM      2  S   UNL     1      -3.800  -8.969  -0.620  0.00  0.00    -0.016 S 
ENDROOT
BRANCH   1   3
ATOM      3  N   UNL     1      -6.424  -8.664  -0.482  0.00  0.00    -0.169 NA
ATOM      4  C   UNL     1      -6.676  -9.632   0.394  0.00  0.00    +0.162 A 
ATOM      5  N   UNL     1      -5.895 -10.061   1.425  0.00  0.00    -0.335 N 
ATOM      6  H   UNL     1      -5.034  -9.649   1.596  0.00  0.00    +0.168 HD
ATOM      7  C   UNL     1      -6.349 -11.082   2.213  0.00  0.00    +0.055 A 
ATOM      8  C   UNL     1      -7.559 -11.598   1.906  0.00  0.00    +0.074 A 
ATOM      9  S   UNL     1      -8.036 -10.614   0.498  0.00  0.00    -0.060 S 
BRANCH   7  10
ATOM     10  C   UNL     1      -5.552 -11.596   3.349  0.00  0.00    +0.000 A 
ATOM     11  C   UNL     1      -4.308 -11.036   3.642  0.00  0.00    +0.013 A 
ATOM     12  C   UNL     1      -3.568 -11.518   4.701  0.00  0.00    +0.047 A 
ATOM     13  C   UNL     1      -4.059 -12.560   5.475  0.00  0.00    +0.134 A 
ATOM     14  C   UNL     1      -5.297 -13.121   5.188  0.00  0.00    +0.060 A 
ATOM     15  C   UNL     1      -6.045 -12.639   4.133  0.00  0.00    +0.029 A 
ATOM     16 BR   UNL     1      -5.959 -14.540   6.246  0.00  0.00    -0.046 Br
BRANCH  13  17
ATOM     17  O   UNL     1      -3.326 -13.033   6.518  0.00  0.00    -0.494 OA
ATOM     18  C   UNL     1      -2.062 -12.411   6.758  0.00  0.00    +0.277 C 
ENDBRANCH  13  17
ENDBRANCH   7  10
ENDBRANCH   1   3
BRANCH   1  21
ATOM     19  C   UNL     1      -3.975  -6.091  -0.357  0.00  0.00    +0.250 C 
ATOM     20  O   UNL     1      -2.954  -6.743  -0.458  0.00  0.00    -0.270 OA
ATOM     21  N   UNL     1      -5.173  -6.710  -0.362  0.00  0.00    -0.262 N 
ATOM     22  H   UNL     1      -5.987  -6.189  -0.281  0.00  0.00    +0.157 HD
BRANCH  19  27
ATOM     23  C   UNL     1      -2.606  -2.599  -0.105  0.00  0.00    +0.121 A 
ATOM     24  C   UNL     1      -3.776  -1.861   0.010  0.00  0.00    +0.046 A 
ATOM     25  C   UNL     1      -5.004  -2.496   0.006  0.00  0.00    +0.004 A 
ATOM     26  C   UNL     1      -5.075  -3.869  -0.113  0.00  0.00    +0.013 A 
ATOM     27  C   UNL     1      -3.904  -4.620  -0.230  0.00  0.00    +0.041 A 
ATOM     28  C   UNL     1      -2.665  -3.977  -0.230  0.00  0.00    +0.058 A 
BRANCH  23  29
ATOM     29  O   UNL     1      -1.402  -1.969  -0.100  0.00  0.00    -0.492 OA
BRANCH  29  30
ATOM     30  C   UNL     1      -1.415  -0.546   0.034  0.00  0.00    +0.232 C 
BRANCH  30  32
ATOM     31  C   UNL     1       0.004   1.510   0.036  0.00  0.00    +0.010 C 
ATOM     32  C   UNL     1       0.021  -0.019   0.019  0.00  0.00    +0.020 C 
ATOM     33  C   UNL     1       0.766  -0.534   1.252  0.00  0.00    +0.010 C 
ENDBRANCH  30  32
ENDBRANCH  29  30
ENDBRANCH  23  29
ENDBRANCH  19  27
ENDBRANCH   1  21
TORSDOF 8
