REMARK  Name = ZINC43526680
REMARK  14 active torsions:
REMARK  status: ('A' for Active; 'I' for Inactive)
REMARK    1  A    between atoms: C_1  and  C_2
REMARK    2  A    between atoms: C_4  and  C_40
REMARK    3  A    between atoms: C_6  and  N_8
REMARK    4  A    between atoms: N_8  and  C_9
REMARK    5  A    between atoms: C_9  and  N_11
REMARK    6  A    between atoms: N_11  and  C_12
REMARK    7  A    between atoms: C_12  and  C_13
REMARK    8  A    between atoms: C_22  and  C_24
REMARK    9  A    between atoms: C_26  and  C_30
REMARK   10  A    between atoms: N_28  and  C_29
REMARK   11  A    between atoms: C_33  and  O_38
REMARK   12  A    between atoms: C_34  and  O_36
REMARK   13  A    between atoms: O_36  and  C_37
REMARK   14  A    between atoms: O_38  and  C_39
REMARK                            x       y       z     vdW  Elec       q    Type
REMARK                         _______ _______ _______ _____ _____    ______ ____
ROOT
ATOM      1  C   UNL     1       0.516  -3.241   7.077  0.00  0.00    -0.051 C 
ATOM      2  C   UNL     1       0.418  -2.389   8.344  0.00  0.00    -0.010 C 
ATOM      3  C   UNL     1      -0.777  -2.875   9.176  0.00  0.00    -0.007 C 
ATOM      4  C   UNL     1      -2.047  -2.729   8.328  0.00  0.00    -0.015 C 
ATOM      5  C   UNL     1      -1.885  -3.554   7.050  0.00  0.00    -0.078 C 
ATOM      6  N   UNL     1      -0.555  -4.240   7.063  0.00  0.00    +0.383 N 
ATOM      7  C   UNL     1      -0.433  -5.144   8.209  0.00  0.00    -0.068 C 
ATOM      8  C   UNL     1      -0.561  -4.356   9.513  0.00  0.00    +0.024 C 
ATOM      9  H   UNL     1      -0.467  -4.790   6.221  0.00  0.00    -0.081 HD
ENDROOT
BRANCH   8  10
ATOM     10  C   UNL     1      -1.739  -4.871  10.299  0.00  0.00    +0.041 A 
ATOM     11  C   UNL     1      -2.903  -5.323   9.783  0.00  0.00    +0.053 A 
ATOM     12  C   UNL     1      -3.731  -5.708  10.855  0.00  0.00    +0.093 A 
ATOM     13  N   UNL     1      -3.072  -5.489  11.974  0.00  0.00    -0.171 NA
ATOM     14  N   UNL     1      -1.815  -4.968  11.644  0.00  0.00    -0.271 N 
ATOM     15  C   UNL     1      -0.765  -4.591  12.593  0.00  0.00    +0.172 C 
BRANCH  12  16
ATOM     16  C   UNL     1      -5.103  -6.262  10.744  0.00  0.00    +0.006 A 
ATOM     17  C   UNL     1      -5.681  -6.447   9.490  0.00  0.00    +0.014 A 
ATOM     18  C   UNL     1      -6.957  -6.962   9.387  0.00  0.00    +0.050 A 
ATOM     19  C   UNL     1      -7.667  -7.297  10.530  0.00  0.00    +0.162 A 
ATOM     20  C   UNL     1      -7.094  -7.114  11.786  0.00  0.00    +0.162 A 
ATOM     21  C   UNL     1      -5.813  -6.603  11.893  0.00  0.00    +0.059 A 
BRANCH  20  22
ATOM     22  O   UNL     1      -7.792  -7.443  12.906  0.00  0.00    -0.491 OA
ATOM     23  C   UNL     1      -7.142  -7.229  14.161  0.00  0.00    +0.277 C 
ENDBRANCH  20  22
BRANCH  19  24
ATOM     24  O   UNL     1      -8.924  -7.804  10.424  0.00  0.00    -0.491 OA
ATOM     25  C   UNL     1      -9.450  -7.964   9.105  0.00  0.00    +0.277 C 
ENDBRANCH  19  24
ENDBRANCH  12  16
ENDBRANCH   8  10
BRANCH   1  26
ATOM     26  C   UNL     1       0.386  -2.340   5.848  0.00  0.00    +0.088 C 
BRANCH  26  27
ATOM     27  N   UNL     1       0.365  -3.164   4.637  0.00  0.00    -0.328 N 
ATOM     28  H   UNL     1       0.430  -4.130   4.707  0.00  0.00    +0.148 HD
BRANCH  27  29
ATOM     29  C   UNL     1       0.256  -2.582   3.427  0.00  0.00    +0.134 C 
ATOM     30  S   UNL     1       0.142  -0.878   3.304  0.00  0.00    -0.019 S 
BRANCH  29  31
ATOM     31  N   UNL     1       0.237  -3.341   2.313  0.00  0.00    -0.297 N 
ATOM     32  H   UNL     1       0.222  -4.308   2.385  0.00  0.00    +0.154 HD
BRANCH  31  38
ATOM     33  C   UNL     1       1.938   0.155  -0.696  0.00  0.00    +0.044 C 
ATOM     34  C   UNL     1       1.054  -1.037  -0.434  0.00  0.00    -0.048 A 
ATOM     35  C   UNL     1       0.246  -1.533  -1.440  0.00  0.00    +0.006 A 
ATOM     36  C   UNL     1      -0.566  -2.627  -1.203  0.00  0.00    -0.048 A 
ATOM     37  C   UNL     1      -0.571  -3.229   0.040  0.00  0.00    +0.026 A 
ATOM     38  C   UNL     1       0.240  -2.734   1.053  0.00  0.00    +0.033 A 
ATOM     39  C   UNL     1       1.058  -1.638   0.810  0.00  0.00    +0.026 A 
ATOM     40  C   UNL     1      -1.446  -3.164  -2.303  0.00  0.00    +0.044 C 
ENDBRANCH  31  38
ENDBRANCH  29  31
ENDBRANCH  27  29
ENDBRANCH  26  27
ENDBRANCH   1  26
TORSDOF 9
