REMARK  Name = ZINC55963361
REMARK  8 active torsions:
REMARK  status: ('A' for Active; 'I' for Inactive)
REMARK    1  A    between atoms: C_1  and  C_2
REMARK    2  A    between atoms: C_6  and  N_9
REMARK    3  A    between atoms: C_7  and  C_8
REMARK    4  A    between atoms: N_9  and  C_10
REMARK    5  A    between atoms: C_10  and  C_12
REMARK    6  A    between atoms: C_10  and  C_13
REMARK    7  A    between atoms: N_18  and  C_19
REMARK    8  A    between atoms: C_19  and  C_20
REMARK                            x       y       z     vdW  Elec       q    Type
REMARK                         _______ _______ _______ _____ _____    ______ ____
ROOT
ATOM      1  C   UNL     1      -0.517  -4.781   3.666  0.00  0.00    +0.240 C 
ATOM      2  O   UNL     1      -0.912  -4.005   4.509  0.00  0.00    -0.273 OA
ATOM      3  N   UNL     1      -0.602  -6.109   3.880  0.00  0.00    -0.239 N 
ATOM      4  C   UNL     1      -1.127  -6.574   5.031  0.00  0.00    +0.306 C 
ATOM      5  O   UNL     1      -1.524  -5.796   5.876  0.00  0.00    -0.252 OA
ATOM      6  N   UNL     1      -1.213  -7.902   5.245  0.00  0.00    -0.297 N 
ATOM      7  H   UNL     1      -0.286  -6.730   3.206  0.00  0.00    +0.159 HD
ATOM      8  H   UNL     1      -0.896  -8.523   4.570  0.00  0.00    +0.150 HD
ENDROOT
BRANCH   1   9
ATOM      9  C   UNL     1       0.071  -4.261   2.379  0.00  0.00    +0.154 C 
ATOM     10  C   UNL     1       1.514  -4.751   2.243  0.00  0.00    +0.038 C 
BRANCH   9  11
ATOM     11  N   UNL     1       0.051  -2.796   2.390  0.00  0.00    -0.333 N 
ATOM     12  H   UNL     1       0.049  -2.318   3.234  0.00  0.00    +0.147 HD
BRANCH  11  18
ATOM     13  C   UNL     1      -0.018   1.503   0.010  0.00  0.00    +0.044 C 
ATOM     14  C   UNL     1       0.002  -0.004   0.002  0.00  0.00    -0.046 A 
ATOM     15  C   UNL     1       0.006  -0.688  -1.200  0.00  0.00    +0.004 A 
ATOM     16  C   UNL     1       0.024  -2.071  -1.212  0.00  0.00    +0.002 A 
ATOM     17  C   UNL     1       0.039  -2.773  -0.023  0.00  0.00    +0.023 A 
ATOM     18  C   UNL     1       0.036  -2.089   1.186  0.00  0.00    +0.031 A 
ATOM     19  C   UNL     1       0.023  -0.700   1.194  0.00  0.00    -0.027 A 
ATOM     20  C   UNL     1       0.025   0.046   2.504  0.00  0.00    +0.046 C 
ENDBRANCH  11  18
ENDBRANCH   9  11
ENDBRANCH   1   9
BRANCH   6  21
ATOM     21  C   UNL     1      -1.784  -8.407   6.496  0.00  0.00    +0.137 C 
BRANCH  21  22
ATOM     22  C   UNL     1      -1.764  -9.937   6.484  0.00  0.00    +0.135 C 
ATOM     23  C   UNL     1      -2.396 -10.493   7.785  0.00  0.00    +0.035 C 
ATOM     24  C   UNL     1      -2.858 -11.898   7.311  0.00  0.00    +0.031 C 
ATOM     25  C   UNL     1      -3.258 -11.633   5.843  0.00  0.00    +0.160 C 
ATOM     26  O   UNL     1      -2.588 -10.439   5.420  0.00  0.00    -0.375 OA
ENDBRANCH  21  22
ENDBRANCH   6  21
TORSDOF 5
