REMARK  Name = ZINC39555898
REMARK  6 active torsions:
REMARK  status: ('A' for Active; 'I' for Inactive)
REMARK    1  A    between atoms: C_1  and  C_2
REMARK    2  A    between atoms: C_4  and  C_16
REMARK    3  A    between atoms: N_18  and  C_19
REMARK    4  A    between atoms: C_24  and  C_25
REMARK    5  A    between atoms: N_27  and  C_28
REMARK    6  A    between atoms: C_28  and  C_29
REMARK                            x       y       z     vdW  Elec       q    Type
REMARK                         _______ _______ _______ _____ _____    ______ ____
ROOT
ATOM      1  C   UNL     1       0.015  -2.812  -2.494  0.00  0.00    +0.250 C 
ATOM      2  O   UNL     1       0.045  -4.027  -2.478  0.00  0.00    -0.270 OA
ATOM      3  N   UNL     1       0.002  -2.154  -3.671  0.00  0.00    -0.281 N 
ATOM      4  H   UNL     1      -0.088  -1.188  -3.686  0.00  0.00    +0.155 HD
ENDROOT
BRANCH   1   8
ATOM      5  C   UNL     1      -0.099   1.519  -0.005  0.00  0.00    +0.065 C 
ATOM      6  C   UNL     1      -0.062   0.012  -0.009  0.00  0.00    +0.041 A 
ATOM      7  C   UNL     1      -0.043  -0.660  -1.219  0.00  0.00    +0.038 A 
ATOM      8  C   UNL     1      -0.008  -2.056  -1.225  0.00  0.00    +0.068 A 
ATOM      9  C   UNL     1       0.005  -2.721   0.018  0.00  0.00    +0.120 A 
ATOM     10  C   UNL     1      -0.018  -1.954   1.198  0.00  0.00    +0.161 A 
ATOM     11  N   UNL     1      -0.045  -0.634   1.139  0.00  0.00    -0.233 NA
ATOM     12  N   UNL     1      -0.003  -2.863   2.234  0.00  0.00    -0.312 N 
ATOM     13  C   UNL     1       0.038  -4.108   1.686  0.00  0.00    +0.112 A 
ATOM     14  N   UNL     1       0.037  -4.016   0.384  0.00  0.00    -0.230 NA
ATOM     15  C   UNL     1       0.087  -5.398   2.469  0.00  0.00    +0.074 C 
ATOM     16  C   UNL     1      -0.963  -5.356   3.581  0.00  0.00    +0.008 C 
ATOM     17  C   UNL     1      -0.357  -4.729   4.833  0.00  0.00    +0.002 C 
ATOM     18  C   UNL     1       0.662  -3.657   4.453  0.00  0.00    +0.022 C 
ATOM     19  C   UNL     1      -0.033  -2.545   3.664  0.00  0.00    +0.125 C 
ENDBRANCH   1   8
BRANCH   3  20
ATOM     20  C   UNL     1       0.117  -2.861  -4.864  0.00  0.00    +0.046 A 
ATOM     21  C   UNL     1      -0.456  -4.120  -4.988  0.00  0.00    +0.024 A 
ATOM     22  C   UNL     1      -0.340  -4.819  -6.173  0.00  0.00    +0.002 A 
ATOM     23  C   UNL     1       0.347  -4.272  -7.245  0.00  0.00    +0.001 A 
ATOM     24  C   UNL     1       0.922  -3.025  -7.140  0.00  0.00    +0.015 A 
ATOM     25  C   UNL     1       0.808  -2.303  -5.950  0.00  0.00    +0.058 A 
BRANCH  25  26
ATOM     26  C   UNL     1       1.416  -0.964  -5.833  0.00  0.00    +0.246 C 
ATOM     27  O   UNL     1       1.404  -0.381  -4.766  0.00  0.00    -0.270 OA
ATOM     28  N   UNL     1       1.985  -0.386  -6.910  0.00  0.00    -0.308 N 
ATOM     29  H   UNL     1       1.995  -0.850  -7.761  0.00  0.00    +0.149 HD
BRANCH  28  30
ATOM     30  C   UNL     1       2.589   0.944  -6.794  0.00  0.00    +0.131 C 
BRANCH  30  31
ATOM     31  C   UNL     1       3.151   1.359  -8.129  0.00  0.00    -0.016 C 
ATOM     32  C   UNL     1       2.779   2.491  -8.673  0.00  0.00    +0.005 C 
ENDBRANCH  30  31
ENDBRANCH  28  30
ENDBRANCH  25  26
ENDBRANCH   3  20
TORSDOF 5
