REMARK  Name = ZINC22059353
REMARK  9 active torsions:
REMARK  status: ('A' for Active; 'I' for Inactive)
REMARK    1  A    between atoms: C_1  and  C_2
REMARK    2  A    between atoms: C_2  and  C_3
REMARK    3  A    between atoms: C_2  and  C_4
REMARK    4  A    between atoms: C_8  and  N_10
REMARK    5  A    between atoms: C_11  and  C_13
REMARK    6  A    between atoms: C_13  and  N_14
REMARK    7  A    between atoms: C_17  and  C_21
REMARK    8  A    between atoms: C_17  and  C_22
REMARK    9  A    between atoms: C_25  and  C_28
REMARK                            x       y       z     vdW  Elec       q    Type
REMARK                         _______ _______ _______ _____ _____    ______ ____
ROOT
ATOM      1  N   UNL     1       1.644  -0.238  -0.042  0.00  0.00    -0.215 N 
ATOM      2  C   UNL     1       0.401   0.281  -0.092  0.00  0.00    +0.251 C 
ATOM      3  O   UNL     1      -0.646  -0.329  -0.142  0.00  0.00    -0.272 OA
ATOM      4  C   UNL     1       0.584   1.786  -0.071  0.00  0.00    +0.135 C 
ATOM      5  N   UNL     1       2.046   1.956  -0.005  0.00  0.00    -0.281 N 
ATOM      6  C   UNL     1       2.577   0.720   0.007  0.00  0.00    +0.310 C 
ATOM      7  O   UNL     1       3.771   0.497   0.057  0.00  0.00    -0.252 OA
ATOM      8  C   UNL     1      -0.084   2.392   1.165  0.00  0.00    +0.047 C 
ATOM      9  H   UNL     1       2.482   2.965   0.022  0.00  0.00    +0.152 HD
ENDROOT
BRANCH   4  10
ATOM     10  C   UNL     1       0.034   2.404  -1.330  0.00  0.00    -0.015 A 
ATOM     11  C   UNL     1      -1.025   1.804  -1.986  0.00  0.00    +0.007 A 
ATOM     12  C   UNL     1      -1.537   2.367  -3.137  0.00  0.00    +0.019 A 
ATOM     13  C   UNL     1      -0.975   3.541  -3.645  0.00  0.00    +0.052 A 
ATOM     14  C   UNL     1       0.097   4.138  -2.980  0.00  0.00    +0.019 A 
ATOM     15  C   UNL     1       0.595   3.567  -1.828  0.00  0.00    +0.007 A 
BRANCH  13  16
ATOM     16  C   UNL     1      -1.497   4.128  -4.842  0.00  0.00    +0.099 C 
ATOM     17  N   UNL     1      -1.911   4.593  -5.792  0.00  0.00    -0.191 NA
ENDBRANCH  13  16
ENDBRANCH   4  10
BRANCH   1  18
ATOM     18  C   UNL     1       1.937  -1.673  -0.042  0.00  0.00    +0.214 C 
BRANCH  18  20
ATOM     19  N   UNL     1       2.375  -3.449  -1.708  0.00  0.00    -0.284 N 
ATOM     20  C   UNL     1       2.099  -2.152  -1.462  0.00  0.00    +0.235 C 
ATOM     21  O   UNL     1       1.982  -1.372  -2.382  0.00  0.00    -0.274 OA
ATOM     22  H   UNL     1       2.567  -4.138  -0.873  0.00  0.00    +0.155 HD
BRANCH  19  27
ATOM     23  C   UNL     1       1.620  -3.833  -5.286  0.00  0.00    -0.043 A 
ATOM     24  C   UNL     1       2.500  -4.843  -5.632  0.00  0.00    +0.004 A 
ATOM     25  C   UNL     1       3.339  -5.390  -4.679  0.00  0.00    +0.002 A 
ATOM     26  C   UNL     1       3.300  -4.930  -3.377  0.00  0.00    +0.023 A 
ATOM     27  C   UNL     1       2.417  -3.917  -3.026  0.00  0.00    +0.034 A 
ATOM     28  C   UNL     1       1.573  -3.373  -3.985  0.00  0.00    +0.027 A 
BRANCH  23  30
ATOM     29  C   UNL     1       1.546  -2.630  -7.453  0.00  0.00    +0.012 C 
ATOM     30  C   UNL     1       0.707  -3.240  -6.328  0.00  0.00    +0.013 C 
ATOM     31  C   UNL     1      -0.193  -4.337  -6.901  0.00  0.00    +0.012 C 
ENDBRANCH  23  30
ENDBRANCH  19  27
ENDBRANCH  18  20
ENDBRANCH   1  18
TORSDOF 6
