REMARK  Name = ZINC39992486
REMARK  9 active torsions:
REMARK  status: ('A' for Active; 'I' for Inactive)
REMARK    1  A    between atoms: C_1  and  C_2
REMARK    2  A    between atoms: C_3  and  C_26
REMARK    3  A    between atoms: C_4  and  C_25
REMARK    4  A    between atoms: C_7  and  C_8
REMARK    5  A    between atoms: C_8  and  C_10
REMARK    6  A    between atoms: C_10  and  C_12
REMARK    7  A    between atoms: C_10  and  N_13
REMARK    8  A    between atoms: N_13  and  C_14
REMARK    9  A    between atoms: C_26  and  C_28
REMARK                            x       y       z     vdW  Elec       q    Type
REMARK                         _______ _______ _______ _____ _____    ______ ____
ROOT
ATOM      1  C   UNL     1      -0.401  -1.972   3.462  0.00  0.00    +0.140 C 
ATOM      2  C   UNL     1       1.032  -2.406   3.779  0.00  0.00    +0.036 C 
ENDROOT
BRANCH   1   3
ATOM      3  C   UNL     1      -0.372  -0.797   2.519  0.00  0.00    +0.199 C 
ATOM      4  O   UNL     1      -0.526   0.329   2.947  0.00  0.00    -0.289 OA
BRANCH   3  11
ATOM      5  C   UNL     1      -0.275   1.458   0.383  0.00  0.00    +0.047 C 
ATOM      6  C   UNL     1      -0.118  -0.026   0.167  0.00  0.00    -0.012 A 
ATOM      7  C   UNL     1       0.112  -0.678  -1.065  0.00  0.00    +0.041 A 
ATOM      8  C   UNL     1       0.189  -2.038  -0.799  0.00  0.00    +0.024 A 
ATOM      9  N   UNL     1       0.018  -2.227   0.517  0.00  0.00    -0.355 N 
ATOM     10  H   UNL     1       0.027  -3.086   0.966  0.00  0.00    +0.166 HD
ATOM     11  C   UNL     1      -0.167  -1.006   1.134  0.00  0.00    +0.088 A 
ATOM     12  C   UNL     1       0.425  -3.121  -1.819  0.00  0.00    +0.064 C 
BRANCH   7  13
ATOM     13  C   UNL     1       0.243  -0.039  -2.379  0.00  0.00    +0.162 C 
ATOM     14  O   UNL     1      -0.745   0.181  -3.048  0.00  0.00    -0.292 OA
ATOM     15  C   UNL     1       1.605   0.344  -2.897  0.00  0.00    +0.091 C 
ENDBRANCH   7  13
ENDBRANCH   3  11
ENDBRANCH   1   3
BRANCH   1  16
ATOM     16  N   UNL     1      -1.080  -1.588   4.702  0.00  0.00    -0.334 N 
ATOM     17  H   UNL     1      -1.105  -0.657   4.973  0.00  0.00    +0.147 HD
BRANCH  16  18
ATOM     18  C   UNL     1      -1.694  -2.563   5.495  0.00  0.00    +0.031 A 
ATOM     19  C   UNL     1      -1.654  -3.897   5.110  0.00  0.00    +0.027 A 
ATOM     20  C   UNL     1      -2.260  -4.862   5.892  0.00  0.00    +0.051 A 
ATOM     21  C   UNL     1      -2.908  -4.502   7.062  0.00  0.00    +0.173 A 
ATOM     22  C   UNL     1      -2.949  -3.165   7.451  0.00  0.00    +0.174 A 
ATOM     23  C   UNL     1      -2.338  -2.199   6.669  0.00  0.00    +0.072 A 
ATOM     24  O   UNL     1      -3.639  -3.074   8.626  0.00  0.00    -0.395 OA
ATOM     25  C   UNL     1      -4.369  -4.309   8.741  0.00  0.00    +0.589 C 
ATOM     26  O   UNL     1      -3.572  -5.248   7.994  0.00  0.00    -0.395 OA
ATOM     27  F   UNL     1      -5.641  -4.183   8.173  0.00  0.00    -0.125 F 
ATOM     28  F   UNL     1      -4.464  -4.701  10.081  0.00  0.00    -0.125 F 
ENDBRANCH  16  18
ENDBRANCH   1  16
TORSDOF 5
