REMARK  Name = ZINC24210353
REMARK  14 active torsions:
REMARK  status: ('A' for Active; 'I' for Inactive)
REMARK    1  A    between atoms: C_1  and  C_2
REMARK    2  A    between atoms: C_3  and  C_4
REMARK    3  A    between atoms: C_7  and  O_12
REMARK    4  A    between atoms: C_8  and  O_10
REMARK    5  A    between atoms: O_10  and  C_11
REMARK    6  A    between atoms: O_12  and  C_13
REMARK    7  A    between atoms: C_13  and  C_14
REMARK    8  A    between atoms: C_14  and  C_16
REMARK    9  A    between atoms: C_14  and  O_35
REMARK   10  A    between atoms: C_16  and  S_17
REMARK   11  A    between atoms: S_17  and  C_18
REMARK   12  A    between atoms: C_21  and  C_29
REMARK   13  A    between atoms: N_22  and  C_23
REMARK   14  A    between atoms: C_33  and  C_34
REMARK                            x       y       z     vdW  Elec       q    Type
REMARK                         _______ _______ _______ _____ _____    ______ ____
ROOT
ATOM      1  S   UNL     1      -2.095  -8.814  -0.161  0.00  0.00    -0.083 S 
ENDROOT
BRANCH   1   2
ATOM      2  C   UNL     1      -3.764  -9.361  -0.300  0.00  0.00    +0.196 A 
ATOM      3  N   UNL     1      -4.831  -8.599  -0.368  0.00  0.00    -0.122 NA
ATOM      4  N   UNL     1      -5.888  -9.323  -0.463  0.00  0.00    -0.128 NA
ATOM      5  C   UNL     1      -5.563 -10.595  -0.462  0.00  0.00    +0.173 A 
ATOM      6  N   UNL     1      -4.191 -10.661  -0.363  0.00  0.00    -0.270 N 
BRANCH   6   7
ATOM      7  C   UNL     1      -3.397 -11.816  -0.331  0.00  0.00    +0.051 A 
ATOM      8  C   UNL     1      -3.343 -12.654  -1.437  0.00  0.00    +0.026 A 
ATOM      9  C   UNL     1      -2.557 -13.789  -1.404  0.00  0.00    +0.002 A 
ATOM     10  C   UNL     1      -1.832 -14.097  -0.267  0.00  0.00    +0.000 A 
ATOM     11  C   UNL     1      -1.889 -13.268   0.838  0.00  0.00    +0.002 A 
ATOM     12  C   UNL     1      -2.669 -12.129   0.809  0.00  0.00    +0.026 A 
ENDBRANCH   6   7
BRANCH   5  13
ATOM     13  C   UNL     1      -6.494 -11.741  -0.555  0.00  0.00    +0.060 A 
ATOM     14  C   UNL     1      -6.147 -13.168  -0.554  0.00  0.00    +0.053 A 
ATOM     15  C   UNL     1      -7.310 -13.832  -0.655  0.00  0.00    +0.196 A 
ATOM     16  O   UNL     1      -8.316 -12.947  -0.717  0.00  0.00    -0.467 OA
ATOM     17  C   UNL     1      -7.850 -11.691  -0.653  0.00  0.00    +0.112 A 
ATOM     18  C   UNL     1      -8.686 -10.438  -0.688  0.00  0.00    +0.087 C 
ENDBRANCH   5  13
ENDBRANCH   1   2
BRANCH   1  19
ATOM     19  C   UNL     1      -2.352  -7.022  -0.146  0.00  0.00    +0.112 C 
BRANCH  19  20
ATOM     20  C   UNL     1      -1.000  -6.314  -0.029  0.00  0.00    +0.162 C 
BRANCH  20  21
ATOM     21  O   UNL     1      -0.358  -6.713   1.183  0.00  0.00    -0.388 OA
ATOM     22  H   UNL     1      -0.118  -7.773   1.356  0.00  0.00    +0.210 HD
ENDBRANCH  20  21
BRANCH  20  23
ATOM     23  C   UNL     1      -1.218  -4.800  -0.017  0.00  0.00    +0.261 C 
BRANCH  23  24
ATOM     24  O   UNL     1       0.048  -4.137  -0.024  0.00  0.00    -0.486 OA
BRANCH  24  28
ATOM     25  C   UNL     1       0.002  -0.004   0.002  0.00  0.00    -0.022 A 
ATOM     26  C   UNL     1      -1.196  -0.720   0.010  0.00  0.00    +0.012 A 
ATOM     27  C   UNL     1      -1.176  -2.099   0.001  0.00  0.00    +0.050 A 
ATOM     28  C   UNL     1       0.034  -2.778  -0.015  0.00  0.00    +0.162 A 
ATOM     29  C   UNL     1       1.233  -2.070  -0.022  0.00  0.00    +0.162 A 
ATOM     30  C   UNL     1       1.219  -0.687  -0.019  0.00  0.00    +0.057 A 
BRANCH  25  33
ATOM     31  C   UNL     1      -1.196   3.628   0.027  0.00  0.00    +0.035 C 
ATOM     32  C   UNL     1      -1.175   2.121   0.019  0.00  0.00    -0.030 C 
ATOM     33  C   UNL     1      -0.018   1.474   0.010  0.00  0.00    +0.003 C 
ENDBRANCH  25  33
BRANCH  29  34
ATOM     34  O   UNL     1       2.417  -2.738  -0.038  0.00  0.00    -0.491 OA
ATOM     35  C   UNL     1       3.608  -1.948  -0.045  0.00  0.00    +0.277 C 
ENDBRANCH  29  34
ENDBRANCH  24  28
ENDBRANCH  23  24
ENDBRANCH  20  23
ENDBRANCH  19  20
ENDBRANCH   1  19
TORSDOF 11
