REMARK  Name = ZINC40796883
REMARK  5 active torsions:
REMARK  status: ('A' for Active; 'I' for Inactive)
REMARK    1  A    between atoms: C_7  and  O_11
REMARK    2  A    between atoms: O_11  and  C_12
REMARK    3  A    between atoms: C_13  and  N_27
REMARK    4  A    between atoms: C_14  and  N_18
REMARK    5  A    between atoms: C_21  and  C_24
REMARK                            x       y       z     vdW  Elec       q    Type
REMARK                         _______ _______ _______ _____ _____    ______ ____
ROOT
ATOM      1  C   UNL     1       4.672  -2.811  -0.129  0.00  0.00    +0.246 A 
ATOM      2  C   UNL     1       4.703  -4.198  -0.262  0.00  0.00    +0.128 A 
ATOM      3  C   UNL     1       5.945  -4.818  -0.417  0.00  0.00    +0.149 A 
ATOM      4  N   UNL     1       7.043  -4.067  -0.431  0.00  0.00    -0.219 NA
ATOM      5  C   UNL     1       6.968  -2.758  -0.301  0.00  0.00    +0.227 A 
ATOM      6  N   UNL     1       5.816  -2.134  -0.159  0.00  0.00    -0.199 NA
ENDROOT
BRANCH   3   7
ATOM      7  N   UNL     1       6.033  -6.198  -0.554  0.00  0.00    -0.314 N 
ATOM      8  C   UNL     1       5.905  -6.829  -1.875  0.00  0.00    +0.107 C 
ATOM      9  C   UNL     1       7.123  -7.727  -2.112  0.00  0.00    +0.034 C 
ATOM     10  C   UNL     1       7.256  -8.717  -0.953  0.00  0.00    +0.105 C 
ATOM     11  C   UNL     1       7.469  -7.949   0.354  0.00  0.00    +0.034 C 
ATOM     12  C   UNL     1       6.261  -7.054   0.619  0.00  0.00    +0.107 C 
BRANCH  10  13
ATOM     13  C   UNL     1       8.434  -9.624  -1.200  0.00  0.00    +0.359 C 
ATOM     14  O   UNL     1       9.057 -10.085  -0.259  0.00  0.00    -0.246 OA
ATOM     15  O   UNL     1       8.764  -9.898  -2.341  0.00  0.00    -0.246 OA
ENDBRANCH  10  13
ENDBRANCH   3   7
BRANCH   2  16
ATOM     16  N   UNL     1       3.518  -4.951  -0.241  0.00  0.00    -0.351 N 
ATOM     17  H   UNL     1       2.659  -4.502  -0.213  0.00  0.00    +0.143 HD
ATOM     18  H   UNL     1       3.560  -5.920  -0.255  0.00  0.00    +0.143 HD
ENDBRANCH   2  16
BRANCH   1  19
ATOM     19  O   UNL     1       3.491  -2.160   0.025  0.00  0.00    -0.434 OA
BRANCH  19  26
ATOM     20  C   UNL     1       3.476   1.493  -3.360  0.00  0.00    +0.020 A 
ATOM     21  C   UNL     1       3.514   2.150  -2.162  0.00  0.00    +0.013 A 
ATOM     22  C   UNL     1       3.528   1.381  -0.984  0.00  0.00    +0.018 A 
ATOM     23  C   UNL     1       3.566   1.986   0.284  0.00  0.00    +0.027 A 
ATOM     24  C   UNL     1       3.578   1.209   1.403  0.00  0.00    +0.019 A 
ATOM     25  C   UNL     1       3.553  -0.180   1.310  0.00  0.00    +0.049 A 
ATOM     26  C   UNL     1       3.515  -0.804   0.095  0.00  0.00    +0.156 A 
ATOM     27  C   UNL     1       3.502  -0.032  -1.085  0.00  0.00    +0.114 A 
ATOM     28  N   UNL     1       3.465  -0.612  -2.288  0.00  0.00    -0.251 NA
ATOM     29  C   UNL     1       3.452   0.101  -3.389  0.00  0.00    +0.111 A 
ATOM     30 BR   UNL     1       3.602   3.871   0.436  0.00  0.00    -0.050 Br
ENDBRANCH  19  26
ENDBRANCH   1  19
TORSDOF 5
