REMARK  Name = ZINC05100570
REMARK  9 active torsions:
REMARK  status: ('A' for Active; 'I' for Inactive)
REMARK    1  A    between atoms: C_1  and  C_2
REMARK    2  A    between atoms: C_2  and  C_3
REMARK    3  A    between atoms: C_2  and  C_4
REMARK    4  A    between atoms: C_2  and  C_5
REMARK    5  A    between atoms: C_8  and  C_11
REMARK    6  A    between atoms: C_14  and  S_17
REMARK    7  A    between atoms: N_15  and  N_16
REMARK    8  A    between atoms: S_17  and  C_18
REMARK    9  A    between atoms: C_18  and  C_19
REMARK                            x       y       z     vdW  Elec       q    Type
REMARK                         _______ _______ _______ _____ _____    ______ ____
ROOT
ATOM      1  C   UNL     1       0.002  -0.004   0.002  0.00  0.00    +0.182 A 
ATOM      2  N   UNL     1       1.035  -0.772   0.262  0.00  0.00    -0.127 NA
ATOM      3  N   UNL     1       0.698  -2.008   0.164  0.00  0.00    -0.121 NA
ATOM      4  C   UNL     1      -0.571  -2.105  -0.164  0.00  0.00    +0.209 A 
ATOM      5  N   UNL     1      -1.060  -0.835  -0.273  0.00  0.00    -0.224 N 
ENDROOT
BRANCH   1   9
ATOM      6  C   UNL     1      -0.056   4.243   0.026  0.00  0.00    -0.042 A 
ATOM      7  C   UNL     1       1.154   3.571   0.010  0.00  0.00    +0.005 A 
ATOM      8  C   UNL     1       1.179   2.191   0.003  0.00  0.00    +0.012 A 
ATOM      9  C   UNL     1      -0.018   1.474   0.010  0.00  0.00    +0.021 A 
ATOM     10  C   UNL     1      -1.234   2.159   0.020  0.00  0.00    +0.012 A 
ATOM     11  C   UNL     1      -1.246   3.538   0.033  0.00  0.00    +0.005 A 
BRANCH   6  13
ATOM     12  C   UNL     1       0.626   6.277  -1.218  0.00  0.00    +0.015 C 
ATOM     13  C   UNL     1      -0.076   5.750   0.035  0.00  0.00    -0.013 C 
ATOM     14  C   UNL     1      -1.525   6.240   0.052  0.00  0.00    +0.015 C 
ATOM     15  C   UNL     1       0.650   6.263   1.280  0.00  0.00    +0.015 C 
ENDBRANCH   6  13
ENDBRANCH   1   9
BRANCH   5  16
ATOM     16  N   UNL     1      -2.336  -0.466  -0.592  0.00  0.00    -0.295 N 
ATOM     17  H   UNL     1      -2.443  -0.360  -1.590  0.00  0.00    +0.163 HD
ATOM     18  H   UNL     1      -3.005  -1.125  -0.224  0.00  0.00    +0.163 HD
ENDBRANCH   5  16
BRANCH   4  19
ATOM     19  S   UNL     1      -1.476  -3.598  -0.409  0.00  0.00    -0.080 S 
BRANCH  19  20
ATOM     20  C   UNL     1      -0.173  -4.812  -0.085  0.00  0.00    +0.114 C 
BRANCH  20  21
ATOM     21  C   UNL     1      -0.733  -6.202  -0.241  0.00  0.00    -0.019 A 
ATOM     22  C   UNL     1      -0.691  -6.830  -1.472  0.00  0.00    +0.007 A 
ATOM     23  C   UNL     1      -1.203  -8.105  -1.615  0.00  0.00    +0.020 A 
ATOM     24  C   UNL     1      -1.759  -8.755  -0.527  0.00  0.00    +0.042 A 
ATOM     25  C   UNL     1      -1.801  -8.127   0.705  0.00  0.00    +0.040 A 
ATOM     26  C   UNL     1      -1.283  -6.853   0.849  0.00  0.00    +0.046 A 
ATOM     27 CL   UNL     1      -1.329  -6.067   2.397  0.00  0.00    -0.083 Cl
ATOM     28 CL   UNL     1      -2.403 -10.357  -0.708  0.00  0.00    -0.083 Cl
ENDBRANCH  20  21
ENDBRANCH  19  20
ENDBRANCH   4  19
TORSDOF 6
