REMARK  Name = ZINC56912332
REMARK  4 active torsions:
REMARK  status: ('A' for Active; 'I' for Inactive)
REMARK    1  A    between atoms: C_1  and  C_2
REMARK    2  A    between atoms: C_7  and  N_8
REMARK    3  A    between atoms: C_9  and  N_27
REMARK    4  A    between atoms: C_16  and  C_18
REMARK                            x       y       z     vdW  Elec       q    Type
REMARK                         _______ _______ _______ _____ _____    ______ ____
ROOT
ATOM      1  N   UNL     1       0.543   0.095   2.610  0.00  0.00    -0.215 N 
ATOM      2  C   UNL     1       0.603  -0.322   3.904  0.00  0.00    +0.146 A 
ATOM      3  C   UNL     1       0.462   0.778   4.694  0.00  0.00    +0.037 A 
ATOM      4  C   UNL     1       0.313   1.890   3.861  0.00  0.00    +0.087 A 
ATOM      5  N   UNL     1       0.366   1.484   2.616  0.00  0.00    -0.168 NA
ATOM      6  C   UNL     1       0.156   3.118   4.723  0.00  0.00    +0.166 C 
ATOM      7  N   UNL     1       0.217   2.692   6.124  0.00  0.00    -0.287 N 
ATOM      8  C   UNL     1       0.408   1.238   6.128  0.00  0.00    +0.149 C 
ATOM      9  C   UNL     1       0.118   3.488   7.207  0.00  0.00    +0.247 C 
ATOM     10  O   UNL     1       0.089   3.000   8.320  0.00  0.00    -0.270 OA
ENDROOT
BRANCH   9  11
ATOM     11  C   UNL     1       0.044   4.953   7.042  0.00  0.00    +0.041 A 
ATOM     12  C   UNL     1      -0.067   5.509   5.765  0.00  0.00    +0.017 A 
ATOM     13  C   UNL     1      -0.137   6.876   5.612  0.00  0.00    +0.050 A 
ATOM     14  C   UNL     1      -0.097   7.707   6.725  0.00  0.00    +0.166 A 
ATOM     15  C   UNL     1       0.015   7.158   8.003  0.00  0.00    +0.167 A 
ATOM     16  C   UNL     1       0.079   5.787   8.162  0.00  0.00    +0.062 A 
ATOM     17  O   UNL     1       0.032   8.175   8.913  0.00  0.00    -0.453 OA
ATOM     18  C   UNL     1       0.343   9.361   8.158  0.00  0.00    +0.466 C 
ATOM     19  O   UNL     1      -0.149   9.065   6.838  0.00  0.00    -0.453 OA
ENDBRANCH   9  11
BRANCH   1  26
ATOM     20  C   UNL     1      -1.301   0.513   0.482  0.00  0.00    +0.046 C 
ATOM     21  C   UNL     1      -0.235  -0.549   0.414  0.00  0.00    -0.025 A 
ATOM     22  C   UNL     1      -0.128  -1.350  -0.707  0.00  0.00    +0.005 A 
ATOM     23  C   UNL     1       0.850  -2.325  -0.770  0.00  0.00    +0.000 A 
ATOM     24  C   UNL     1       1.724  -2.501   0.287  0.00  0.00    +0.002 A 
ATOM     25  C   UNL     1       1.623  -1.704   1.410  0.00  0.00    +0.028 A 
ATOM     26  C   UNL     1       0.645  -0.720   1.474  0.00  0.00    +0.071 A 
ENDBRANCH   1  26
BRANCH   2  27
ATOM     27  N   UNL     1       0.777  -1.637   4.341  0.00  0.00    -0.308 N 
ATOM     28  C   UNL     1       1.639  -2.043   5.320  0.00  0.00    +0.092 A 
ATOM     29  C   UNL     1       1.520  -3.380   5.458  0.00  0.00    +0.019 A 
ATOM     30  C   UNL     1       0.551  -3.816   4.532  0.00  0.00    +0.019 A 
ATOM     31  C   UNL     1       0.110  -2.730   3.866  0.00  0.00    +0.092 A 
ENDBRANCH   2  27
TORSDOF 3
