REMARK  Name = ZINC30874830
REMARK  4 active torsions:
REMARK  status: ('A' for Active; 'I' for Inactive)
REMARK    1  A    between atoms: C_1  and  C_2
REMARK    2  A    between atoms: C_8  and  N_10
REMARK    3  A    between atoms: N_16  and  S_17
REMARK    4  A    between atoms: S_17  and  C_20
REMARK                            x       y       z     vdW  Elec       q    Type
REMARK                         _______ _______ _______ _____ _____    ______ ____
ROOT
ATOM      1  N   UNL     1      -0.018   1.093   2.457  0.00  0.00    -0.268 NA
ATOM      2  C   UNL     1       1.294   1.751   2.595  0.00  0.00    +0.193 C 
ATOM      3  N   UNL     1       1.891   1.284   3.856  0.00  0.00    -0.303 N 
ATOM      4  C   UNL     1       1.776  -0.051   4.176  0.00  0.00    +0.202 C 
ATOM      5  N   UNL     1       0.969  -0.828   3.525  0.00  0.00    -0.303 N 
ATOM      6  C   UNL     1       0.147  -0.366   2.411  0.00  0.00    +0.193 C 
ATOM      7  N   UNL     1       2.530  -0.567   5.203  0.00  0.00    -0.097 NA
ATOM      8  H   UNL     1       2.412   1.995   4.515  0.00  0.00    +0.150 HD
ATOM      9  H   UNL     1       0.921  -1.879   3.845  0.00  0.00    +0.150 HD
ENDROOT
BRANCH   1  16
ATOM     10  C   UNL     1      -2.880   1.543   2.537  0.00  0.00    +0.009 C 
ATOM     11  C   UNL     1      -2.164   1.050   1.278  0.00  0.00    +0.003 C 
ATOM     12  C   UNL     1      -2.904   1.556   0.038  0.00  0.00    +0.005 C 
ATOM     13  C   UNL     1      -2.188   1.063  -1.221  0.00  0.00    +0.000 C 
ATOM     14  C   UNL     1      -0.753   1.593  -1.232  0.00  0.00    +0.002 C 
ATOM     15  C   UNL     1      -0.013   1.086   0.008  0.00  0.00    +0.019 C 
ATOM     16  C   UNL     1      -0.729   1.579   1.267  0.00  0.00    +0.062 C 
ENDBRANCH   1  16
BRANCH   7  17
ATOM     17  S   UNL     1       2.404  -2.170   5.599  0.00  0.00    +0.102 S 
ATOM     18  O   UNL     1       3.315  -2.399   6.665  0.00  0.00    -0.146 OA
ATOM     19  O   UNL     1       1.015  -2.452   5.710  0.00  0.00    -0.146 OA
BRANCH  17  20
ATOM     20  C   UNL     1       2.997  -3.095   4.222  0.00  0.00    +0.113 A 
ATOM     21  C   UNL     1       2.124  -3.489   3.225  0.00  0.00    +0.030 A 
ATOM     22  C   UNL     1       2.590  -4.209   2.142  0.00  0.00    +0.022 A 
ATOM     23  C   UNL     1       3.929  -4.547   2.060  0.00  0.00    +0.041 A 
ATOM     24  C   UNL     1       4.802  -4.158   3.061  0.00  0.00    +0.022 A 
ATOM     25  C   UNL     1       4.336  -3.432   4.141  0.00  0.00    +0.030 A 
ATOM     26 CL   UNL     1       4.514  -5.458   0.703  0.00  0.00    -0.084 Cl
ENDBRANCH  17  20
ENDBRANCH   7  17
TORSDOF 3
