REMARK  Name = ZINC29283877
REMARK  9 active torsions:
REMARK  status: ('A' for Active; 'I' for Inactive)
REMARK    1  A    between atoms: C_1  and  C_2
REMARK    2  A    between atoms: C_3  and  S_12
REMARK    3  A    between atoms: S_12  and  C_13
REMARK    4  A    between atoms: C_13  and  C_15
REMARK    5  A    between atoms: C_13  and  C_16
REMARK    6  A    between atoms: N_21  and  C_22
REMARK    7  A    between atoms: C_22  and  C_23
REMARK    8  A    between atoms: C_22  and  C_24
REMARK    9  A    between atoms: C_22  and  C_25
REMARK                            x       y       z     vdW  Elec       q    Type
REMARK                         _______ _______ _______ _____ _____    ______ ____
ROOT
ATOM      1  C   UNL     1       2.141   1.987   4.142  0.00  0.00    +0.136 C 
ATOM      2  C   UNL     1       1.461   1.001   5.095  0.00  0.00    +0.029 C 
ENDROOT
BRANCH   1   3
ATOM      3  C   UNL     1       3.632   1.943   4.354  0.00  0.00    +0.233 C 
ATOM      4  O   UNL     1       4.333   1.308   3.596  0.00  0.00    -0.274 OA
ATOM      5  N   UNL     1       4.186   2.611   5.385  0.00  0.00    -0.239 N 
ATOM      6  C   UNL     1       5.520   2.571   5.574  0.00  0.00    +0.306 C 
ATOM      7  O   UNL     1       6.223   1.935   4.814  0.00  0.00    -0.252 OA
ATOM      8  N   UNL     1       6.074   3.239   6.606  0.00  0.00    -0.294 N 
ATOM      9  H   UNL     1       3.550   3.187   6.073  0.00  0.00    +0.159 HD
ATOM     10  H   UNL     1       5.438   3.815   7.294  0.00  0.00    +0.151 HD
BRANCH   8  11
ATOM     11  C   UNL     1       7.524   3.196   6.811  0.00  0.00    +0.028 C 
ATOM     12  C   UNL     1       8.231   3.767   5.580  0.00  0.00    +0.031 C 
ATOM     13  C   UNL     1       7.890   4.030   8.041  0.00  0.00    +0.031 C 
ATOM     14  C   UNL     1       7.966   1.748   7.028  0.00  0.00    +0.031 C 
ENDBRANCH   8  11
ENDBRANCH   1   3
BRANCH   1  15
ATOM     15  S   UNL     1       1.760   1.533   2.432  0.00  0.00    -0.092 S 
BRANCH  15  18
ATOM     16  C   UNL     1      -0.013   1.086   0.008  0.00  0.00    +0.068 C 
ATOM     17  C   UNL     1      -0.718   1.572   1.248  0.00  0.00    +0.071 A 
ATOM     18  C   UNL     1       0.020   1.808   2.422  0.00  0.00    +0.119 A 
ATOM     19  N   UNL     1      -0.583   2.233   3.517  0.00  0.00    -0.237 NA
ATOM     20  C   UNL     1      -1.905   2.442   3.507  0.00  0.00    +0.090 A 
ATOM     21  C   UNL     1      -2.575   2.895   4.657  0.00  0.00    +0.030 A 
ATOM     22  C   UNL     1      -3.920   3.098   4.618  0.00  0.00    +0.002 A 
ATOM     23  C   UNL     1      -4.647   2.864   3.452  0.00  0.00    +0.002 A 
ATOM     24  C   UNL     1      -4.031   2.425   2.320  0.00  0.00    +0.030 A 
ATOM     25  C   UNL     1      -2.644   2.203   2.322  0.00  0.00    +0.090 A 
ATOM     26  N   UNL     1      -2.012   1.776   1.221  0.00  0.00    -0.248 NA
ENDBRANCH  15  18
ENDBRANCH   1  15
TORSDOF 4
