REMARK  Name = ZINC38624105
REMARK  8 active torsions:
REMARK  status: ('A' for Active; 'I' for Inactive)
REMARK    1  A    between atoms: C_1  and  N_2
REMARK    2  A    between atoms: N_5  and  C_8
REMARK    3  A    between atoms: C_8  and  C_10
REMARK    4  A    between atoms: C_8  and  C_22
REMARK    5  A    between atoms: C_10  and  N_11
REMARK    6  A    between atoms: N_11  and  S_12
REMARK    7  A    between atoms: S_12  and  C_15
REMARK    8  A    between atoms: C_15  and  C_16
REMARK                            x       y       z     vdW  Elec       q    Type
REMARK                         _______ _______ _______ _____ _____    ______ ____
ROOT
ATOM      1  C   UNL     1       1.598  -3.966  -0.119  0.00  0.00    +0.102 C 
ENDROOT
BRANCH   1   2
ATOM      2  C   UNL     1       2.441  -4.345  -1.310  0.00  0.00    -0.025 A 
ATOM      3  C   UNL     1       3.545  -3.583  -1.643  0.00  0.00    +0.009 A 
ATOM      4  C   UNL     1       4.321  -3.926  -2.734  0.00  0.00    +0.050 A 
ATOM      5  C   UNL     1       3.994  -5.036  -3.497  0.00  0.00    +0.166 A 
ATOM      6  C   UNL     1       2.881  -5.803  -3.160  0.00  0.00    +0.167 A 
ATOM      7  C   UNL     1       2.111  -5.457  -2.062  0.00  0.00    +0.054 A 
ATOM      8  O   UNL     1       2.773  -6.829  -4.054  0.00  0.00    -0.453 OA
ATOM      9  C   UNL     1       3.588  -6.447  -5.178  0.00  0.00    +0.466 C 
ATOM     10  O   UNL     1       4.582  -5.581  -4.601  0.00  0.00    -0.453 OA
ENDBRANCH   1   2
BRANCH   1  15
ATOM     11  C   UNL     1      -0.158   1.387  -0.005  0.00  0.00    -0.096 C 
ATOM     12  N   UNL     1      -0.060  -0.078  -0.055  0.00  0.00    +0.379 N 
ATOM     13  C   UNL     1       0.721  -0.476  -1.233  0.00  0.00    -0.064 C 
ATOM     14  C   UNL     1       0.807  -2.003  -1.296  0.00  0.00    +0.066 C 
ATOM     15  N   UNL     1       1.445  -2.506  -0.071  0.00  0.00    -0.298 NA
ATOM     16  C   UNL     1       0.687  -2.094   1.119  0.00  0.00    +0.066 C 
ATOM     17  C   UNL     1       0.602  -0.567   1.162  0.00  0.00    -0.064 C 
ATOM     18  H   UNL     1      -0.986  -0.475  -0.116  0.00  0.00    -0.082 HD
ENDBRANCH   1  15
BRANCH   1  19
ATOM     19  C   UNL     1       2.279  -4.449   1.163  0.00  0.00    +0.129 C 
BRANCH  19  20
ATOM     20  N   UNL     1       2.354  -5.913   1.154  0.00  0.00    -0.192 NA
ATOM     21  H   UNL     1       1.799  -6.423   0.544  0.00  0.00    +0.148 HD
BRANCH  20  22
ATOM     22  S   UNL     1       3.387  -6.695   2.186  0.00  0.00    +0.034 S 
ATOM     23  O   UNL     1       3.217  -8.075   1.891  0.00  0.00    -0.158 OA
ATOM     24  O   UNL     1       4.644  -6.062   1.990  0.00  0.00    -0.158 OA
BRANCH  22  25
ATOM     25  C   UNL     1       2.754  -6.328   3.846  0.00  0.00    +0.220 C 
BRANCH  25  26
ATOM     26  C   UNL     1       3.627  -6.997   4.876  0.00  0.00    -0.025 A 
ATOM     27  C   UNL     1       3.339  -8.282   5.296  0.00  0.00    +0.005 A 
ATOM     28  C   UNL     1       4.140  -8.896   6.240  0.00  0.00    +0.000 A 
ATOM     29  C   UNL     1       5.229  -8.226   6.764  0.00  0.00    +0.000 A 
ATOM     30  C   UNL     1       5.518  -6.941   6.344  0.00  0.00    +0.000 A 
ATOM     31  C   UNL     1       4.719  -6.328   5.396  0.00  0.00    +0.005 A 
ENDBRANCH  25  26
ENDBRANCH  22  25
ENDBRANCH  20  22
ENDBRANCH  19  20
ENDBRANCH   1  19
TORSDOF 7
