REMARK  Name = ZINC02087365
REMARK  8 active torsions:
REMARK  status: ('A' for Active; 'I' for Inactive)
REMARK    1  A    between atoms: C_1  and  C_2
REMARK    2  A    between atoms: C_2  and  C_4
REMARK    3  A    between atoms: C_2  and  N_10
REMARK    4  A    between atoms: N_13  and  C_14
REMARK    5  A    between atoms: C_19  and  O_27
REMARK    6  A    between atoms: C_20  and  O_25
REMARK    7  A    between atoms: O_25  and  C_26
REMARK    8  A    between atoms: O_27  and  C_28
REMARK                            x       y       z     vdW  Elec       q    Type
REMARK                         _______ _______ _______ _____ _____    ______ ____
ROOT
ATOM      1  N   UNL     1       1.143   1.901   0.001  0.00  0.00    -0.293 N 
ATOM      2  C   UNL     1      -0.014   1.212   0.009  0.00  0.00    +0.303 C 
ATOM      3  O   UNL     1       0.002  -0.004   0.002  0.00  0.00    -0.253 OA
ATOM      4  N   UNL     1      -1.191   1.870   0.018  0.00  0.00    -0.260 N 
ATOM      5  H   UNL     1       1.130   2.871   0.007  0.00  0.00    +0.151 HD
ATOM      6  H   UNL     1      -1.204   2.840   0.023  0.00  0.00    +0.154 HD
ENDROOT
BRANCH   4   7
ATOM      7  C   UNL     1      -2.449   1.120   0.020  0.00  0.00    +0.299 C 
ATOM      8  C   UNL     1      -3.490   1.857   0.825  0.00  0.00    +0.029 A 
ATOM      9  C   UNL     1      -3.562   2.246   2.140  0.00  0.00    +0.013 A 
ATOM     10  C   UNL     1      -4.676   2.929   2.605  0.00  0.00    +0.050 A 
ATOM     11  C   UNL     1      -5.722   3.224   1.746  0.00  0.00    +0.162 A 
ATOM     12  C   UNL     1      -5.661   2.836   0.411  0.00  0.00    +0.176 A 
ATOM     13  C   UNL     1      -4.537   2.146  -0.058  0.00  0.00    +0.112 A 
ATOM     14  C   UNL     1      -4.178   1.612  -1.381  0.00  0.00    +0.345 C 
ATOM     15  O   UNL     1      -4.873   1.694  -2.375  0.00  0.00    -0.245 OA
ATOM     16  O   UNL     1      -2.972   1.019  -1.333  0.00  0.00    -0.435 OA
BRANCH  12  17
ATOM     17  O   UNL     1      -6.686   3.125  -0.431  0.00  0.00    -0.491 OA
ATOM     18  C   UNL     1      -6.620   4.369  -1.129  0.00  0.00    +0.277 C 
ENDBRANCH  12  17
BRANCH  11  19
ATOM     19  O   UNL     1      -6.811   3.894   2.209  0.00  0.00    -0.491 OA
ATOM     20  C   UNL     1      -6.808   4.262   3.590  0.00  0.00    +0.277 C 
ENDBRANCH  11  19
ENDBRANCH   4   7
BRANCH   1  22
ATOM     21  C   UNL     1       2.819   0.820   1.417  0.00  0.00    +0.033 C 
ATOM     22  C   UNL     1       2.422   1.186  -0.015  0.00  0.00    +0.102 C 
BRANCH  22  23
ATOM     23  C   UNL     1       3.483   2.068  -0.621  0.00  0.00    -0.027 A 
ATOM     24  C   UNL     1       3.511   3.418  -0.325  0.00  0.00    +0.005 A 
ATOM     25  C   UNL     1       4.488   4.226  -0.878  0.00  0.00    +0.000 A 
ATOM     26  C   UNL     1       5.430   3.686  -1.733  0.00  0.00    +0.000 A 
ATOM     27  C   UNL     1       5.399   2.337  -2.032  0.00  0.00    +0.000 A 
ATOM     28  C   UNL     1       4.425   1.528  -1.476  0.00  0.00    +0.005 A 
ENDBRANCH  22  23
ENDBRANCH   1  22
TORSDOF 5
