REMARK  Name = ZINC21987141
REMARK  0 active torsions:
REMARK  status: ('A' for Active; 'I' for Inactive)
REMARK                            x       y       z     vdW  Elec       q    Type
REMARK                         _______ _______ _______ _____ _____    ______ ____
ROOT
ATOM      1  C   UNL     1       2.474   0.097  -0.021  0.00  0.00    +0.017 A 
ATOM      2  C   UNL     1       2.388   1.451  -0.012  0.00  0.00    +0.071 A 
ATOM      3  C   UNL     1       1.127   2.082   0.003  0.00  0.00    +0.249 A 
ATOM      4  O   UNL     1       1.072   3.300   0.009  0.00  0.00    -0.268 OA
ATOM      5  N   UNL     1      -0.017   1.375   0.010  0.00  0.00    -0.322 N 
ATOM      6  H   UNL     1      -0.985   1.896   0.022  0.00  0.00    +0.169 HD
ATOM      7  C   UNL     1       0.002  -0.004   0.002  0.00  0.00    +0.052 A 
ATOM      8  C   UNL     1       1.236  -0.683  -0.013  0.00  0.00    +0.017 A 
ATOM      9  C   UNL     1       1.262  -2.083  -0.022  0.00  0.00    +0.051 A 
ATOM     10  C   UNL     1       0.077  -2.785  -0.015  0.00  0.00    +0.040 A 
ATOM     11  C   UNL     1      -1.138  -2.113   0.001  0.00  0.00    +0.044 A 
ATOM     12  C   UNL     1      -1.181  -0.734   0.009  0.00  0.00    +0.046 A 
ATOM     13 CL   UNL     1      -2.620  -3.018   0.009  0.00  0.00    -0.083 Cl
ATOM     14 CL   UNL     1       2.778  -2.928  -0.043  0.00  0.00    -0.083 Cl
ENDROOT
TORSDOF 0
