REMARK  Name = ZINC49660794
REMARK  4 active torsions:
REMARK  status: ('A' for Active; 'I' for Inactive)
REMARK    1  A    between atoms: C_1  and  C_2
REMARK    2  A    between atoms: C_7  and  N_8
REMARK    3  A    between atoms: C_9  and  C_11
REMARK    4  A    between atoms: C_14  and  C_19
REMARK                            x       y       z     vdW  Elec       q    Type
REMARK                         _______ _______ _______ _____ _____    ______ ____
ROOT
ATOM      1  N   UNL     1       0.026  -0.015   2.416  0.00  0.00    -0.279 N 
ATOM      2  C   UNL     1      -0.056  -0.694   3.578  0.00  0.00    +0.275 C 
ATOM      3  O   UNL     1      -0.040  -1.910   3.573  0.00  0.00    -0.268 OA
ATOM      4  H   UNL     1       0.079   0.954   2.424  0.00  0.00    +0.155 HD
ENDROOT
BRANCH   1  11
ATOM      5  C   UNL     1      -1.267   1.182   0.183  0.00  0.00    +0.045 C 
ATOM      6  C   UNL     1      -0.586  -0.158   0.085  0.00  0.00    -0.029 A 
ATOM      7  C   UNL     1      -0.571  -0.840  -1.116  0.00  0.00    +0.006 A 
ATOM      8  C   UNL     1       0.053  -2.070  -1.207  0.00  0.00    +0.020 A 
ATOM      9  C   UNL     1       0.666  -2.623  -0.095  0.00  0.00    +0.043 A 
ATOM     10  C   UNL     1       0.655  -1.945   1.109  0.00  0.00    +0.043 A 
ATOM     11  C   UNL     1       0.033  -0.706   1.201  0.00  0.00    +0.038 A 
ATOM     12 CL   UNL     1       1.448  -4.168  -0.214  0.00  0.00    -0.083 Cl
ENDBRANCH   1  11
BRANCH   2  13
ATOM     13  C   UNL     1      -0.165   0.038   4.855  0.00  0.00    +0.187 A 
ATOM     14  N   UNL     1      -0.202   1.330   5.061  0.00  0.00    -0.151 NA
ATOM     15  N   UNL     1      -0.308   1.850   6.344  0.00  0.00    -0.182 N 
ATOM     16  C   UNL     1      -0.377   3.071   6.987  0.00  0.00    +0.259 A 
ATOM     17  N   UNL     1      -0.470   2.848   8.267  0.00  0.00    -0.122 NA
ATOM     18  N   UNL     1      -0.465   1.581   8.497  0.00  0.00    -0.120 NA
ATOM     19  C   UNL     1      -0.370   0.938   7.374  0.00  0.00    +0.219 A 
ATOM     20  S   UNL     1      -0.286  -0.613   6.514  0.00  0.00    -0.022 S 
BRANCH  16  21
ATOM     21  C   UNL     1      -0.350   4.425   6.324  0.00  0.00    +0.454 C 
ATOM     22  F   UNL     1      -0.097   5.410   7.285  0.00  0.00    -0.163 F 
ATOM     23  F   UNL     1       0.659   4.448   5.355  0.00  0.00    -0.163 F 
ATOM     24  F   UNL     1      -1.586   4.672   5.717  0.00  0.00    -0.163 F 
ENDBRANCH  16  21
ENDBRANCH   2  13
TORSDOF 3
