REMARK  Name = ZINC38574709
REMARK  9 active torsions:
REMARK  status: ('A' for Active; 'I' for Inactive)
REMARK    1  A    between atoms: C_1  and  C_2
REMARK    2  A    between atoms: C_7  and  C_8
REMARK    3  A    between atoms: N_10  and  C_11
REMARK    4  A    between atoms: C_11  and  C_13
REMARK    5  A    between atoms: C_11  and  C_14
REMARK    6  A    between atoms: C_14  and  C_16
REMARK    7  A    between atoms: C_14  and  N_21
REMARK    8  A    between atoms: N_24  and  C_27
REMARK    9  A    between atoms: C_27  and  C_28
REMARK                            x       y       z     vdW  Elec       q    Type
REMARK                         _______ _______ _______ _____ _____    ______ ____
ROOT
ATOM      1  C   UNL     1      -0.742  -1.030   5.366  0.00  0.00    +0.113 C 
ENDROOT
BRANCH   1   2
ATOM      2  N   UNL     1      -0.701  -0.505   6.737  0.00  0.00    -0.297 NA
ATOM      3  C   UNL     1       0.661  -0.090   7.103  0.00  0.00    +0.066 C 
ATOM      4  C   UNL     1       0.649   0.505   8.512  0.00  0.00    -0.063 C 
ATOM      5  N   UNL     1       0.153  -0.499   9.463  0.00  0.00    +0.384 N 
ATOM      6  C   UNL     1      -1.217  -0.885   9.100  0.00  0.00    -0.063 C 
ATOM      7  C   UNL     1      -1.220  -1.491   7.695  0.00  0.00    +0.066 C 
ATOM      8  H   UNL     1       0.750  -1.312   9.436  0.00  0.00    -0.081 HD
BRANCH   5   9
ATOM      9  C   UNL     1       0.159   0.066  10.819  0.00  0.00    -0.043 C 
BRANCH   9  10
ATOM     10  C   UNL     1      -0.232  -1.000  11.810  0.00  0.00    -0.064 A 
ATOM     11  C   UNL     1      -1.563  -1.185  12.136  0.00  0.00    +0.002 A 
ATOM     12  C   UNL     1      -1.921  -2.163  13.045  0.00  0.00    +0.000 A 
ATOM     13  C   UNL     1      -0.950  -2.956  13.626  0.00  0.00    +0.000 A 
ATOM     14  C   UNL     1       0.380  -2.772  13.299  0.00  0.00    +0.000 A 
ATOM     15  C   UNL     1       0.739  -1.796  12.387  0.00  0.00    +0.002 A 
ENDBRANCH   9  10
ENDBRANCH   5   9
ENDBRANCH   1   2
BRANCH   1  16
ATOM     16  C   UNL     1      -2.150  -1.446   5.029  0.00  0.00    +0.009 A 
ATOM     17  C   UNL     1      -2.578  -2.533   4.342  0.00  0.00    +0.013 A 
ATOM     18  C   UNL     1      -3.935  -2.715   4.152  0.00  0.00    +0.008 A 
ATOM     19  C   UNL     1      -4.798  -1.800   4.657  0.00  0.00    +0.045 A 
ATOM     20  S   UNL     1      -3.689  -0.638   5.437  0.00  0.00    -0.100 S 
ENDBRANCH   1  16
BRANCH   1  21
ATOM     21  C   UNL     1      -0.283   0.056   4.391  0.00  0.00    +0.092 C 
ATOM     22  C   UNL     1      -0.400  -0.465   2.957  0.00  0.00    +0.030 C 
BRANCH  21  25
ATOM     23  C   UNL     1      -0.652   2.457   4.207  0.00  0.00    +0.245 C 
ATOM     24  O   UNL     1       0.476   2.567   3.767  0.00  0.00    -0.270 OA
ATOM     25  N   UNL     1      -1.126   1.243   4.549  0.00  0.00    -0.307 N 
ATOM     26  H   UNL     1      -2.026   1.155   4.901  0.00  0.00    +0.149 HD
BRANCH  23  33
ATOM     27  C   UNL     1       0.466   5.082   3.724  0.00  0.00    +0.044 C 
ATOM     28  C   UNL     1      -0.975   4.926   4.137  0.00  0.00    -0.038 A 
ATOM     29  C   UNL     1      -1.776   6.040   4.283  0.00  0.00    +0.004 A 
ATOM     30  C   UNL     1      -3.099   5.899   4.662  0.00  0.00    +0.000 A 
ATOM     31  C   UNL     1      -3.627   4.643   4.898  0.00  0.00    +0.001 A 
ATOM     32  C   UNL     1      -2.837   3.521   4.755  0.00  0.00    +0.013 A 
ATOM     33  C   UNL     1      -1.503   3.655   4.368  0.00  0.00    +0.040 A 
ENDBRANCH  23  33
ENDBRANCH  21  25
ENDBRANCH   1  21
TORSDOF 7
