REMARK  Name = ZINC59678531
REMARK  8 active torsions:
REMARK  status: ('A' for Active; 'I' for Inactive)
REMARK    1  A    between atoms: C_1  and  C_2
REMARK    2  A    between atoms: C_5  and  C_8
REMARK    3  A    between atoms: N_10  and  N_11
REMARK    4  A    between atoms: C_12  and  C_13
REMARK    5  A    between atoms: C_15  and  C_29
REMARK    6  A    between atoms: N_16  and  C_19
REMARK    7  A    between atoms: C_17  and  C_18
REMARK    8  A    between atoms: C_22  and  C_26
REMARK                            x       y       z     vdW  Elec       q    Type
REMARK                         _______ _______ _______ _____ _____    ______ ____
ROOT
ATOM      1  C   UNL     1       0.127  -8.461   2.247  0.00  0.00    +0.016 A 
ATOM      2  C   UNL     1       0.139  -9.347   3.416  0.00  0.00    +0.032 A 
ATOM      3  C   UNL     1       0.156 -10.606   2.943  0.00  0.00    +0.022 A 
ATOM      4  N   UNL     1       0.155 -10.566   1.577  0.00  0.00    -0.317 N 
ATOM      5  C   UNL     1       0.132  -9.274   1.150  0.00  0.00    +0.030 A 
ATOM      6  C   UNL     1       0.119  -8.819  -0.286  0.00  0.00    +0.064 C 
ATOM      7  C   UNL     1       0.173 -11.857   3.784  0.00  0.00    +0.064 C 
ENDROOT
BRANCH   4   8
ATOM      8  C   UNL     1       0.171 -11.686   0.743  0.00  0.00    +0.048 A 
ATOM      9  C   UNL     1       1.271 -11.926  -0.075  0.00  0.00    +0.027 A 
ATOM     10  C   UNL     1       1.292 -13.027  -0.899  0.00  0.00    +0.018 A 
ATOM     11  C   UNL     1       0.205 -13.909  -0.914  0.00  0.00    +0.082 A 
ATOM     12  C   UNL     1      -0.900 -13.665  -0.089  0.00  0.00    +0.057 A 
ATOM     13  C   UNL     1      -0.909 -12.561   0.737  0.00  0.00    +0.047 A 
ATOM     14 CL   UNL     1      -2.252 -14.753  -0.102  0.00  0.00    -0.083 Cl
BRANCH  11  15
ATOM     15  C   UNL     1       0.222 -15.088  -1.794  0.00  0.00    +0.388 C 
ATOM     16  O   UNL     1       1.188 -15.300  -2.515  0.00  0.00    -0.241 OA
ATOM     17  O   UNL     1      -0.729 -15.857  -1.805  0.00  0.00    -0.241 OA
ENDBRANCH  11  15
ENDBRANCH   4   8
BRANCH   1  19
ATOM     18  N   UNL     1       0.093  -6.332   1.134  0.00  0.00    -0.187 NA
ATOM     19  C   UNL     1       0.108  -6.987   2.255  0.00  0.00    +0.140 C 
BRANCH  18  22
ATOM     20  C   UNL     1       0.060  -4.251  -0.021  0.00  0.00    +0.263 C 
ATOM     21  O   UNL     1       0.062  -4.853  -1.078  0.00  0.00    -0.268 OA
ATOM     22  N   UNL     1       0.075  -4.931   1.142  0.00  0.00    -0.203 N 
ATOM     23  H   UNL     1       0.073  -4.451   1.985  0.00  0.00    +0.178 HD
BRANCH  20  28
ATOM     24  C   UNL     1      -0.018   1.503   0.010  0.00  0.00    +0.044 C 
ATOM     25  C   UNL     1       0.002  -0.004   0.002  0.00  0.00    -0.050 A 
ATOM     26  C   UNL     1       0.006  -0.686  -1.202  0.00  0.00    +0.004 A 
ATOM     27  C   UNL     1       0.024  -2.066  -1.216  0.00  0.00    +0.013 A 
ATOM     28  C   UNL     1       0.040  -2.773  -0.013  0.00  0.00    +0.038 A 
ATOM     29  C   UNL     1       0.037  -2.079   1.198  0.00  0.00    +0.013 A 
ATOM     30  C   UNL     1       0.023  -0.699   1.198  0.00  0.00    +0.004 A 
ENDBRANCH  20  28
ENDBRANCH  18  22
ENDBRANCH   1  19
TORSDOF 5
