REMARK  Name = ZINC39949147
REMARK  4 active torsions:
REMARK  status: ('A' for Active; 'I' for Inactive)
REMARK    1  A    between atoms: C_4  and  C_7
REMARK    2  A    between atoms: C_7  and  C_20
REMARK    3  A    between atoms: N_8  and  N_9
REMARK    4  A    between atoms: C_10  and  C_11
REMARK                            x       y       z     vdW  Elec       q    Type
REMARK                         _______ _______ _______ _____ _____    ______ ____
ROOT
ATOM      1  C   UNL     1       3.694  -0.680  -0.038  0.00  0.00    +0.100 C 
ATOM      2  N   UNL     1       4.703   0.071   0.381  0.00  0.00    -0.149 NA
ENDROOT
BRANCH   1   6
ATOM      3  C   UNL     1       0.270   1.136  -1.770  0.00  0.00    +0.000 A 
ATOM      4  C   UNL     1       1.425   1.878  -1.585  0.00  0.00    +0.001 A 
ATOM      5  C   UNL     1       2.541   1.295  -1.024  0.00  0.00    +0.010 A 
ATOM      6  C   UNL     1       2.504  -0.050  -0.639  0.00  0.00    +0.003 A 
ATOM      7  C   UNL     1       1.334  -0.792  -0.828  0.00  0.00    +0.010 A 
ATOM      8  C   UNL     1       0.227  -0.195  -1.392  0.00  0.00    +0.001 A 
ENDBRANCH   1   6
BRANCH   1   9
ATOM      9  C   UNL     1       3.761  -2.147   0.097  0.00  0.00    +0.003 A 
ATOM     10  C   UNL     1       4.343  -2.722   1.232  0.00  0.00    +0.010 A 
ATOM     11  C   UNL     1       4.401  -4.094   1.351  0.00  0.00    +0.001 A 
ATOM     12  C   UNL     1       3.886  -4.902   0.352  0.00  0.00    +0.000 A 
ATOM     13  C   UNL     1       3.309  -4.341  -0.774  0.00  0.00    +0.001 A 
ATOM     14  C   UNL     1       3.238  -2.970  -0.905  0.00  0.00    +0.010 A 
ENDBRANCH   1   9
BRANCH   2  15
ATOM     15  N   UNL     1       5.790  -0.483   0.800  0.00  0.00    -0.157 NA
ATOM     16  C   UNL     1       6.795   0.265   1.217  0.00  0.00    +0.141 C 
BRANCH  16  17
ATOM     17  C   UNL     1       7.969  -0.334   1.670  0.00  0.00    +0.000 C 
ATOM     18  C   UNL     1       9.115   0.307   2.147  0.00  0.00    +0.004 A 
ATOM     19  C   UNL     1       9.447   1.667   2.317  0.00  0.00    +0.010 A 
ATOM     20  C   UNL     1      10.664   2.007   2.813  0.00  0.00    +0.001 A 
ATOM     21  C   UNL     1      11.608   1.038   3.164  0.00  0.00    +0.002 A 
ATOM     22  C   UNL     1      11.359  -0.286   3.027  0.00  0.00    +0.026 A 
ATOM     23  C   UNL     1      10.107  -0.719   2.514  0.00  0.00    +0.043 A 
ATOM     24  N   UNL     1       9.628  -1.924   2.289  0.00  0.00    -0.380 N 
ATOM     25  C   UNL     1       8.267  -1.815   1.754  0.00  0.00    +0.150 C 
ATOM     26  H   UNL     1      10.100  -2.755   2.454  0.00  0.00    +0.160 HD
ENDBRANCH  16  17
ENDBRANCH   2  15
TORSDOF 4
