REMARK  Name = ZINC28054861
REMARK  2 active torsions:
REMARK  status: ('A' for Active; 'I' for Inactive)
REMARK    1  A    between atoms: C_5  and  C_7
REMARK    2  A    between atoms: C_24  and  C_26
REMARK                            x       y       z     vdW  Elec       q    Type
REMARK                         _______ _______ _______ _____ _____    ______ ____
ROOT
ATOM      1  C   UNL     1      -0.102   6.018  -2.534  0.00  0.00    +0.237 C 
ATOM      2  C   UNL     1      -0.908   6.166  -1.263  0.00  0.00    +0.026 C 
ATOM      3  C   UNL     1      -2.140   6.675  -1.330  0.00  0.00    +0.050 C 
ATOM      4  C   UNL     1      -2.679   7.045  -2.661  0.00  0.00    +0.038 A 
ATOM      5  C   UNL     1      -3.790   7.869  -2.790  0.00  0.00    +0.013 A 
ATOM      6  C   UNL     1      -4.260   8.186  -4.050  0.00  0.00    +0.001 A 
ATOM      7  C   UNL     1      -3.629   7.687  -5.176  0.00  0.00    +0.004 A 
ATOM      8  C   UNL     1      -2.522   6.866  -5.056  0.00  0.00    +0.046 A 
ATOM      9  C   UNL     1      -2.041   6.541  -3.802  0.00  0.00    +0.131 A 
ATOM     10  O   UNL     1      -0.957   5.740  -3.642  0.00  0.00    -0.479 OA
ATOM     11  N   UNL     1      -2.929   6.875  -0.192  0.00  0.00    -0.282 N 
ATOM     12  C   UNL     1      -2.304   6.779   1.040  0.00  0.00    +0.240 A 
ATOM     13  N   UNL     1      -2.698   7.123   2.232  0.00  0.00    -0.092 NA
ATOM     14  N   UNL     1      -1.782   6.856   3.099  0.00  0.00    -0.021 NA
ATOM     15  N   UNL     1      -0.754   6.326   2.520  0.00  0.00    -0.042 NA
ATOM     16  N   UNL     1      -1.060   6.253   1.160  0.00  0.00    -0.201 N 
ATOM     17  C   UNL     1      -0.280   5.742   0.042  0.00  0.00    +0.174 C 
ATOM     18  H   UNL     1      -4.001   7.098  -0.298  0.00  0.00    +0.155 HD
ENDROOT
BRANCH   1  23
ATOM     19  C   UNL     1       0.797   9.435  -3.864  0.00  0.00    +0.001 A 
ATOM     20  C   UNL     1       2.032   9.645  -3.278  0.00  0.00    +0.003 A 
ATOM     21  C   UNL     1       2.578   8.682  -2.452  0.00  0.00    +0.039 A 
ATOM     22  C   UNL     1       1.887   7.506  -2.209  0.00  0.00    +0.130 A 
ATOM     23  C   UNL     1       0.651   7.297  -2.796  0.00  0.00    +0.032 A 
ATOM     24  C   UNL     1       0.110   8.260  -3.627  0.00  0.00    +0.010 A 
ATOM     25  F   UNL     1       2.420   6.564  -1.401  0.00  0.00    -0.205 F 
ENDBRANCH   1  23
BRANCH  17  26
ATOM     26  C   UNL     1      -0.236   4.237   0.109  0.00  0.00    -0.019 A 
ATOM     27  C   UNL     1       0.978   3.586   0.226  0.00  0.00    +0.009 A 
ATOM     28  C   UNL     1       1.019   2.205   0.288  0.00  0.00    +0.039 A 
ATOM     29  C   UNL     1      -0.157   1.475   0.233  0.00  0.00    +0.123 A 
ATOM     30  C   UNL     1      -1.371   2.129   0.111  0.00  0.00    +0.039 A 
ATOM     31  C   UNL     1      -1.410   3.509   0.054  0.00  0.00    +0.009 A 
ATOM     32  F   UNL     1      -0.118   0.126   0.293  0.00  0.00    -0.205 F 
ENDBRANCH  17  26
TORSDOF 2
