REMARK  Name = ZINC08800434
REMARK  11 active torsions:
REMARK  status: ('A' for Active; 'I' for Inactive)
REMARK    1  A    between atoms: C_1  and  N_2
REMARK    2  A    between atoms: C_10  and  C_12
REMARK    3  A    between atoms: C_12  and  C_14
REMARK    4  A    between atoms: C_12  and  N_70
REMARK    5  A    between atoms: C_14  and  N_15
REMARK    6  A    between atoms: N_15  and  S_16
REMARK    7  A    between atoms: S_16  and  C_19
REMARK    8  A    between atoms: C_19  and  C_20
REMARK    9  A    between atoms: C_20  and  C_21
REMARK   10  A    between atoms: C_24  and  O_27
REMARK   11  A    between atoms: O_27  and  C_28
REMARK                            x       y       z     vdW  Elec       q    Type
REMARK                         _______ _______ _______ _____ _____    ______ ____
ROOT
ATOM      1  C   UNL     1       2.644  -5.076  -5.063  0.00  0.00    -0.022 C 
ENDROOT
BRANCH   1  11
ATOM      2  C   UNL     1       7.202  -2.306  -8.450  0.00  0.00    +0.129 C 
ATOM      3  N   UNL     1       6.928  -3.747  -8.541  0.00  0.00    -0.333 N 
ATOM      4  C   UNL     1       8.153  -4.527  -8.348  0.00  0.00    +0.105 C 
ATOM      5  C   UNL     1       7.802  -6.018  -8.426  0.00  0.00    +0.024 C 
ATOM      6  C   UNL     1       6.956  -6.367  -7.199  0.00  0.00    +0.038 C 
ATOM      7  C   UNL     1       5.867  -5.339  -7.024  0.00  0.00    -0.026 A 
ATOM      8  C   UNL     1       5.902  -4.116  -7.672  0.00  0.00    +0.033 A 
ATOM      9  C   UNL     1       4.870  -3.200  -7.463  0.00  0.00    +0.023 A 
ATOM     10  C   UNL     1       3.819  -3.512  -6.627  0.00  0.00    +0.004 A 
ATOM     11  C   UNL     1       3.790  -4.734  -5.981  0.00  0.00    -0.059 A 
ATOM     12  C   UNL     1       4.810  -5.643  -6.182  0.00  0.00    +0.007 A 
ENDBRANCH   1  11
BRANCH   1  18
ATOM     13  C   UNL     1       0.267  -4.777  -4.717  0.00  0.00    -0.078 C 
ATOM     14  C   UNL     1      -0.993  -4.130  -5.296  0.00  0.00    -0.019 C 
ATOM     15  C   UNL     1      -1.315  -4.772  -6.648  0.00  0.00    -0.004 C 
ATOM     16  C   UNL     1      -0.114  -4.606  -7.583  0.00  0.00    -0.019 C 
ATOM     17  C   UNL     1       1.120  -5.239  -6.937  0.00  0.00    -0.078 C 
ATOM     18  N   UNL     1       1.391  -4.560  -5.652  0.00  0.00    +0.385 N 
ATOM     19  H   UNL     1       1.493  -3.553  -5.823  0.00  0.00    -0.081 HD
ENDBRANCH   1  18
BRANCH   1  20
ATOM     20  C   UNL     1       2.865  -4.412  -3.703  0.00  0.00    +0.095 C 
BRANCH  20  21
ATOM     21  N   UNL     1       4.092  -4.936  -3.097  0.00  0.00    -0.196 NA
ATOM     22  H   UNL     1       4.496  -5.746  -3.444  0.00  0.00    +0.148 HD
BRANCH  21  23
ATOM     23  S   UNL     1       4.788  -4.144  -1.820  0.00  0.00    +0.030 S 
ATOM     24  O   UNL     1       4.898  -2.793  -2.247  0.00  0.00    -0.158 OA
ATOM     25  O   UNL     1       5.948  -4.904  -1.511  0.00  0.00    -0.158 OA
BRANCH  23  26
ATOM     26  C   UNL     1       3.579  -4.277  -0.474  0.00  0.00    +0.189 C 
BRANCH  26  27
ATOM     27  C   UNL     1       4.122  -3.573   0.771  0.00  0.00    +0.059 C 
BRANCH  27  28
ATOM     28  C   UNL     1       3.117  -3.683   1.889  0.00  0.00    -0.046 A 
ATOM     29  C   UNL     1       3.167  -4.757   2.758  0.00  0.00    +0.007 A 
ATOM     30  C   UNL     1       2.247  -4.861   3.784  0.00  0.00    +0.046 A 
ATOM     31  C   UNL     1       1.274  -3.885   3.942  0.00  0.00    +0.120 A 
ATOM     32  C   UNL     1       1.226  -2.808   3.069  0.00  0.00    +0.046 A 
ATOM     33  C   UNL     1       2.148  -2.709   2.044  0.00  0.00    +0.007 A 
BRANCH  31  34
ATOM     34  O   UNL     1       0.368  -3.984   4.950  0.00  0.00    -0.495 OA
ATOM     35  C   UNL     1      -0.606  -2.943   5.052  0.00  0.00    +0.277 C 
ENDBRANCH  31  34
ENDBRANCH  27  28
ENDBRANCH  26  27
ENDBRANCH  23  26
ENDBRANCH  21  23
ENDBRANCH  20  21
ENDBRANCH   1  20
TORSDOF 9
