REMARK  Name = ZINC63074233
REMARK  7 active torsions:
REMARK  status: ('A' for Active; 'I' for Inactive)
REMARK    1  A    between atoms: C_1  and  C_2
REMARK    2  A    between atoms: C_2  and  C_18
REMARK    3  A    between atoms: C_9  and  C_14
REMARK    4  A    between atoms: C_10  and  C_12
REMARK    5  A    between atoms: C_14  and  C_15
REMARK    6  A    between atoms: C_14  and  C_16
REMARK    7  A    between atoms: C_14  and  C_17
REMARK                            x       y       z     vdW  Elec       q    Type
REMARK                         _______ _______ _______ _____ _____    ______ ____
ROOT
ATOM      1  C   UNL     1      -0.019   1.526   0.010  0.00  0.00    +0.031 C 
ATOM      2  C   UNL     1       0.002  -0.004   0.002  0.00  0.00    +0.031 C 
ATOM      3  C   UNL     1      -1.440  -0.549   0.068  0.00  0.00    +0.027 C 
ATOM      4  C   UNL     1      -1.302  -1.785   0.996  0.00  0.00    +0.021 C 
ATOM      5  C   UNL     1      -0.225  -1.303   1.999  0.00  0.00    +0.107 C 
ATOM      6  N   UNL     1       0.712  -0.501   1.190  0.00  0.00    -0.304 N 
ATOM      7  C   UNL     1       2.031  -0.258   1.496  0.00  0.00    +0.162 A 
ATOM      8  N   UNL     1       2.720  -0.683   2.544  0.00  0.00    -0.228 NA
ATOM      9  C   UNL     1       3.978  -0.371   2.706  0.00  0.00    +0.066 A 
ATOM     10  C   UNL     1       4.548   0.429   1.718  0.00  0.00    +0.076 A 
ATOM     11  S   UNL     1       3.153   0.642   0.623  0.00  0.00    -0.049 S 
ATOM     12  C   UNL     1       0.694  -0.508  -1.266  0.00  0.00    +0.031 C 
ENDROOT
BRANCH   9  13
ATOM     13  C   UNL     1       4.769  -0.850   3.897  0.00  0.00    +0.006 C 
ATOM     14  C   UNL     1       3.871  -1.702   4.796  0.00  0.00    +0.017 C 
ATOM     15  C   UNL     1       5.954  -1.689   3.417  0.00  0.00    +0.017 C 
ATOM     16  C   UNL     1       5.283   0.356   4.686  0.00  0.00    +0.017 C 
ENDBRANCH   9  13
BRANCH  10  17
ATOM     17  C   UNL     1       5.860   0.926   1.609  0.00  0.00    +0.267 C 
ATOM     18  O   UNL     1       6.172   1.618   0.660  0.00  0.00    -0.295 OA
ENDBRANCH  10  17
TORSDOF 2
