REMARK  Name = ZINC58914328
REMARK  7 active torsions:
REMARK  status: ('A' for Active; 'I' for Inactive)
REMARK    1  A    between atoms: C_1  and  C_2
REMARK    2  A    between atoms: C_2  and  C_3
REMARK    3  A    between atoms: C_2  and  N_4
REMARK    4  A    between atoms: C_5  and  C_7
REMARK    5  A    between atoms: N_9  and  N_10
REMARK    6  A    between atoms: C_11  and  C_12
REMARK    7  A    between atoms: C_15  and  C_17
REMARK                            x       y       z     vdW  Elec       q    Type
REMARK                         _______ _______ _______ _____ _____    ______ ____
ROOT
ATOM      1  N   UNL     1      -4.629  -3.948  -0.981  0.00  0.00    -0.184 NA
ATOM      2  C   UNL     1      -4.905  -5.098  -1.530  0.00  0.00    +0.176 C 
ENDROOT
BRANCH   2   3
ATOM      3  C   UNL     1      -3.830  -5.922  -2.081  0.00  0.00    +0.148 A 
ATOM      4  C   UNL     1      -3.991  -7.095  -2.789  0.00  0.00    +0.051 A 
ATOM      5  C   UNL     1      -2.708  -7.545  -3.121  0.00  0.00    +0.050 A 
ATOM      6  C   UNL     1      -1.821  -6.642  -2.610  0.00  0.00    +0.136 A 
ATOM      7  O   UNL     1      -2.509  -5.665  -1.990  0.00  0.00    -0.454 OA
BRANCH   6   8
ATOM      8  C   UNL     1      -0.352  -6.721  -2.724  0.00  0.00    +0.019 A 
ATOM      9  C   UNL     1       0.243  -7.785  -3.406  0.00  0.00    +0.013 A 
ATOM     10  C   UNL     1       1.617  -7.852  -3.510  0.00  0.00    +0.022 A 
ATOM     11  C   UNL     1       2.407  -6.869  -2.938  0.00  0.00    +0.059 A 
ATOM     12  C   UNL     1       1.823  -5.811  -2.259  0.00  0.00    +0.060 A 
ATOM     13  C   UNL     1       0.450  -5.729  -2.154  0.00  0.00    +0.033 A 
ATOM     14 CL   UNL     1       2.822  -4.583  -1.546  0.00  0.00    -0.082 Cl
ATOM     15 CL   UNL     1       4.135  -6.962  -3.071  0.00  0.00    -0.082 Cl
ENDBRANCH   6   8
ENDBRANCH   2   3
BRANCH   1  18
ATOM     16  C   UNL     1      -3.063  -2.205  -0.562  0.00  0.00    +0.318 C 
ATOM     17  O   UNL     1      -3.949  -1.550  -0.051  0.00  0.00    -0.263 OA
ATOM     18  N   UNL     1      -3.330  -3.430  -1.056  0.00  0.00    -0.199 N 
ATOM     19  H   UNL     1      -2.622  -3.953  -1.464  0.00  0.00    +0.178 HD
BRANCH  16  21
ATOM     20  N   UNL     1      -1.413  -0.428  -0.149  0.00  0.00    -0.305 N 
ATOM     21  C   UNL     1      -1.680  -1.654  -0.643  0.00  0.00    +0.301 C 
ATOM     22  O   UNL     1      -0.794  -2.308  -1.153  0.00  0.00    -0.265 OA
ATOM     23  H   UNL     1      -2.121   0.095   0.259  0.00  0.00    +0.149 HD
BRANCH  20  25
ATOM     24  C   UNL     1      -0.113   1.642  -0.203  0.00  0.00    +0.027 C 
ATOM     25  C   UNL     1      -0.055   0.113  -0.228  0.00  0.00    +0.067 C 
ATOM     26  C   UNL     1       0.763  -0.385   0.965  0.00  0.00    +0.027 C 
ENDBRANCH  20  25
ENDBRANCH  16  21
ENDBRANCH   1  18
TORSDOF 5
