REMARK  Name = ZINC39007488
REMARK  9 active torsions:
REMARK  status: ('A' for Active; 'I' for Inactive)
REMARK    1  A    between atoms: C_1  and  C_2
REMARK    2  A    between atoms: C_6  and  C_28
REMARK    3  A    between atoms: C_7  and  N_8
REMARK    4  A    between atoms: C_9  and  C_11
REMARK    5  A    between atoms: C_11  and  S_12
REMARK    6  A    between atoms: S_12  and  C_13
REMARK    7  A    between atoms: C_17  and  C_21
REMARK    8  A    between atoms: N_19  and  N_20
REMARK    9  A    between atoms: C_24  and  C_27
REMARK                            x       y       z     vdW  Elec       q    Type
REMARK                         _______ _______ _______ _____ _____    ______ ____
ROOT
ATOM      1  C   UNL     1      -0.333   0.115   7.700  0.00  0.00    +0.214 C 
ATOM      2  N   UNL     1       0.887   0.951   7.767  0.00  0.00    -0.228 NA
ATOM      3  N   UNL     1       0.499   2.219   7.128  0.00  0.00    -0.234 NA
ATOM      4  C   UNL     1      -0.901   2.411   7.588  0.00  0.00    +0.185 C 
ATOM      5  N   UNL     1      -1.476   1.045   7.587  0.00  0.00    -0.197 NA
ATOM      6  H   UNL     1       1.651   0.516   7.272  0.00  0.00    +0.143 HD
ATOM      7  H   UNL     1       1.089   2.976   7.440  0.00  0.00    +0.143 HD
ENDROOT
BRANCH   4   8
ATOM      8  C   UNL     1      -1.663   3.316   6.617  0.00  0.00    +0.186 C 
ATOM      9  C   UNL     1      -0.986   4.670   6.500  0.00  0.00    +0.029 C 
ATOM     10  C   UNL     1      -1.907   5.530   6.938  0.00  0.00    +0.058 C 
ATOM     11  N   UNL     1      -3.036   4.880   7.299  0.00  0.00    -0.159 NA
ATOM     12  N   UNL     1      -2.993   3.652   7.154  0.00  0.00    -0.177 NA
ATOM     13  C   UNL     1      -1.715   7.022   7.019  0.00  0.00    +0.067 C 
ENDBRANCH   4   8
BRANCH   5  14
ATOM     14  N   UNL     1      -2.402   0.868   8.694  0.00  0.00    -0.264 NA
ATOM     15  H   UNL     1      -2.767  -0.073   8.714  0.00  0.00    +0.137 HD
ATOM     16  H   UNL     1      -1.966   1.106   9.572  0.00  0.00    +0.137 HD
ENDBRANCH   5  14
BRANCH   1  17
ATOM     17  S   UNL     1      -0.266  -0.967   6.246  0.00  0.00    -0.115 S 
BRANCH  17  18
ATOM     18  C   UNL     1      -0.092   0.181   4.852  0.00  0.00    +0.168 C 
BRANCH  18  20
ATOM     19  N   UNL     1       0.107   0.050   2.390  0.00  0.00    -0.284 N 
ATOM     20  C   UNL     1      -0.024  -0.598   3.564  0.00  0.00    +0.227 C 
ATOM     21  O   UNL     1      -0.086  -1.810   3.585  0.00  0.00    -0.275 OA
ATOM     22  H   UNL     1       0.223   1.013   2.378  0.00  0.00    +0.155 HD
BRANCH  19  29
ATOM     23  C   UNL     1       2.558  -0.356   1.002  0.00  0.00    +0.045 C 
ATOM     24  C   UNL     1       1.248  -0.887   0.479  0.00  0.00    -0.029 A 
ATOM     25  C   UNL     1       1.214  -1.599  -0.704  0.00  0.00    +0.005 A 
ATOM     26  C   UNL     1       0.013  -2.087  -1.185  0.00  0.00    +0.001 A 
ATOM     27  C   UNL     1      -1.158  -1.863  -0.484  0.00  0.00    +0.005 A 
ATOM     28  C   UNL     1      -1.131  -1.152   0.700  0.00  0.00    -0.029 A 
ATOM     29  C   UNL     1       0.075  -0.666   1.188  0.00  0.00    +0.039 A 
ATOM     30  C   UNL     1      -2.407  -0.908   1.463  0.00  0.00    +0.045 C 
ENDBRANCH  19  29
ENDBRANCH  18  20
ENDBRANCH  17  18
ENDBRANCH   1  17
TORSDOF 6
