REMARK  Name = ZINC20466944
REMARK  11 active torsions:
REMARK  status: ('A' for Active; 'I' for Inactive)
REMARK    1  A    between atoms: C_1  and  C_2
REMARK    2  A    between atoms: C_4  and  N_28
REMARK    3  A    between atoms: C_8  and  C_27
REMARK    4  A    between atoms: C_11  and  O_26
REMARK    5  A    between atoms: C_13  and  C_17
REMARK    6  A    between atoms: C_17  and  C_19
REMARK    7  A    between atoms: C_17  and  C_20
REMARK    8  A    between atoms: N_22  and  C_23
REMARK    9  A    between atoms: C_23  and  C_24
REMARK   10  A    between atoms: C_23  and  C_25
REMARK   11  A    between atoms: C_29  and  C_31
REMARK                            x       y       z     vdW  Elec       q    Type
REMARK                         _______ _______ _______ _____ _____    ______ ____
ROOT
ATOM      1  C   UNL     1      -0.659  -2.993   0.874  0.00  0.00    +0.010 C 
ATOM      2  C   UNL     1      -1.450  -2.601   2.124  0.00  0.00    +0.012 C 
ATOM      3  C   UNL     1      -2.945  -2.584   1.797  0.00  0.00    +0.076 C 
ATOM      4  C   UNL     1      -3.736  -2.192   3.046  0.00  0.00    +0.023 C 
ATOM      5  C   UNL     1      -3.299  -0.800   3.510  0.00  0.00    +0.009 C 
ATOM      6  C   UNL     1      -1.805  -0.817   3.837  0.00  0.00    -0.027 C 
ATOM      7  C   UNL     1      -1.014  -1.209   2.587  0.00  0.00    +0.028 C 
ATOM      8  C   UNL     1       0.481  -1.226   2.914  0.00  0.00    +0.122 C 
ATOM      9  C   UNL     1       0.917   0.165   3.377  0.00  0.00    +0.029 C 
ATOM     10  C   UNL     1       0.126   0.558   4.627  0.00  0.00    +0.007 C 
ATOM     11  C   UNL     1      -1.369   0.575   4.300  0.00  0.00    +0.007 C 
ATOM     12  C   UNL     1      -1.537  -1.832   4.950  0.00  0.00    +0.011 C 
ENDROOT
BRANCH   3  13
ATOM     13  N   UNL     1      -3.362  -3.917   1.353  0.00  0.00    -0.307 N 
ATOM     14  C   UNL     1      -4.441  -4.054   0.556  0.00  0.00    +0.264 C 
ATOM     15  O   UNL     1      -5.066  -3.073   0.206  0.00  0.00    -0.268 OA
ATOM     16  H   UNL     1      -2.796  -4.804   1.671  0.00  0.00    +0.149 HD
BRANCH  14  17
ATOM     17  C   UNL     1      -4.863  -5.401   0.108  0.00  0.00    +0.143 A 
ATOM     18  C   UNL     1      -5.981  -5.547  -0.712  0.00  0.00    +0.143 A 
ATOM     19  N   UNL     1      -6.351  -6.749  -1.113  0.00  0.00    -0.259 NA
ATOM     20  C   UNL     1      -5.669  -7.814  -0.730  0.00  0.00    +0.130 A 
ATOM     21  C   UNL     1      -4.558  -7.673   0.089  0.00  0.00    +0.131 A 
ATOM     22  N   UNL     1      -4.179  -6.476   0.490  0.00  0.00    -0.247 NA
ENDBRANCH  14  17
ENDBRANCH   3  13
BRANCH   9  23
ATOM     23  C   UNL     1       0.649   1.181   2.264  0.00  0.00    +0.077 C 
ATOM     24  C   UNL     1       1.379   0.747   0.992  0.00  0.00    +0.017 C 
BRANCH  23  25
ATOM     25  C   UNL     1       1.148   2.537   2.692  0.00  0.00    +0.216 C 
ATOM     26  O   UNL     1       1.666   2.678   3.779  0.00  0.00    -0.276 OA
ATOM     27  N   UNL     1       1.018   3.594   1.865  0.00  0.00    -0.313 N 
ATOM     28  H   UNL     1       0.548   3.466   0.879  0.00  0.00    +0.149 HD
BRANCH  27  29
ATOM     29  C   UNL     1       1.502   4.913   2.280  0.00  0.00    +0.067 C 
ATOM     30  C   UNL     1       2.994   5.032   1.960  0.00  0.00    +0.027 C 
ATOM     31  C   UNL     1       0.731   5.999   1.529  0.00  0.00    +0.027 C 
ENDBRANCH  27  29
ENDBRANCH  23  25
ENDBRANCH   9  23
BRANCH   8  32
ATOM     32  O   UNL     1       1.220  -1.593   1.747  0.00  0.00    -0.391 OA
ATOM     33  H   UNL     1       2.317  -1.658   1.789  0.00  0.00    +0.210 HD
ENDBRANCH   8  32
TORSDOF 6
