REMARK  Name = ZINC36586453
REMARK  18 active torsions:
REMARK  status: ('A' for Active; 'I' for Inactive)
REMARK    1  A    between atoms: C_1  and  C_2
REMARK    2  A    between atoms: C_2  and  C_3
REMARK    3  A    between atoms: C_2  and  C_4
REMARK    4  A    between atoms: C_2  and  C_5
REMARK    5  A    between atoms: C_5  and  C_6
REMARK    6  A    between atoms: C_6  and  C_7
REMARK    7  A    between atoms: C_6  and  C_8
REMARK    8  A    between atoms: C_6  and  N_9
REMARK    9  A    between atoms: C_10  and  C_12
REMARK   10  A    between atoms: C_12  and  C_14
REMARK   11  A    between atoms: C_12  and  N_24
REMARK   12  A    between atoms: C_16  and  N_21
REMARK   13  A    between atoms: N_24  and  C_34
REMARK   14  A    between atoms: C_25  and  C_27
REMARK   15  A    between atoms: C_30  and  O_33
REMARK   16  A    between atoms: C_34  and  C_35
REMARK   17  A    between atoms: C_34  and  C_36
REMARK   18  A    between atoms: C_34  and  C_37
REMARK                            x       y       z     vdW  Elec       q    Type
REMARK                         _______ _______ _______ _____ _____    ______ ____
ROOT
ATOM      1  C   UNL     1       4.982   0.318  -3.781  0.00  0.00    +0.194 C 
ENDROOT
BRANCH   1   2
ATOM      2  C   UNL     1       4.348   1.312  -4.720  0.00  0.00    +0.002 A 
ATOM      3  C   UNL     1       4.868   2.588  -4.829  0.00  0.00    +0.040 A 
ATOM      4  C   UNL     1       4.287   3.500  -5.689  0.00  0.00    +0.127 A 
ATOM      5  C   UNL     1       3.185   3.136  -6.442  0.00  0.00    +0.034 A 
ATOM      6  C   UNL     1       2.665   1.861  -6.334  0.00  0.00    +0.022 A 
ATOM      7  C   UNL     1       3.250   0.945  -5.477  0.00  0.00    +0.047 A 
ATOM      8 CL   UNL     1       2.602  -0.660  -5.346  0.00  0.00    -0.083 Cl
BRANCH   4   9
ATOM      9  N   UNL     1       4.843   4.867  -5.805  0.00  0.00    +0.056 N 
ATOM     10  O   UNL     1       5.806   5.185  -5.147  0.00  0.00    -0.126 OA
ATOM     11  O   UNL     1       4.335   5.664  -6.558  0.00  0.00    -0.126 OA
ENDBRANCH   4   9
ENDBRANCH   1   2
BRANCH   1  13
ATOM     12  N   UNL     1       3.042  -0.110  -2.307  0.00  0.00    -0.308 N 
ATOM     13  C   UNL     1       4.290   0.379  -2.443  0.00  0.00    +0.239 C 
ATOM     14  O   UNL     1       4.857   0.869  -1.489  0.00  0.00    -0.273 OA
ATOM     15  H   UNL     1       2.544  -0.392  -3.090  0.00  0.00    +0.149 HD
BRANCH  12  16
ATOM     16  C   UNL     1       2.438  -0.215  -0.977  0.00  0.00    +0.030 C 
ATOM     17  C   UNL     1       2.322   1.179  -0.357  0.00  0.00    +0.031 C 
ATOM     18  C   UNL     1       3.315  -1.098  -0.086  0.00  0.00    +0.031 C 
BRANCH  16  19
ATOM     19  C   UNL     1       1.045  -0.837  -1.097  0.00  0.00    +0.031 C 
BRANCH  19  21
ATOM     20  C   UNL     1       0.657  -0.683  -3.560  0.00  0.00    +0.010 C 
ATOM     21  C   UNL     1       0.259  -0.118  -2.195  0.00  0.00    -0.036 C 
ATOM     22  C   UNL     1       0.573   1.379  -2.151  0.00  0.00    +0.010 C 
ATOM     23  C   UNL     1      -1.240  -0.332  -1.973  0.00  0.00    +0.010 C 
ENDBRANCH  19  21
ENDBRANCH  16  19
ENDBRANCH  12  16
ENDBRANCH   1  13
BRANCH   1  24
ATOM     24  N   UNL     1       6.401   0.641  -3.612  0.00  0.00    -0.277 N 
ATOM     25  C   UNL     1       6.765   1.724  -2.898  0.00  0.00    +0.248 C 
ATOM     26  O   UNL     1       7.938   1.921  -2.647  0.00  0.00    -0.270 OA
BRANCH  25  27
ATOM     27  C   UNL     1       5.739   2.672  -2.420  0.00  0.00    +0.037 A 
ATOM     28  C   UNL     1       4.397   2.480  -2.756  0.00  0.00    +0.016 A 
ATOM     29  C   UNL     1       3.443   3.366  -2.308  0.00  0.00    +0.046 A 
ATOM     30  C   UNL     1       3.814   4.451  -1.523  0.00  0.00    +0.117 A 
ATOM     31  C   UNL     1       5.149   4.646  -1.187  0.00  0.00    +0.046 A 
ATOM     32  C   UNL     1       6.108   3.761  -1.626  0.00  0.00    +0.016 A 
BRANCH  30  33
ATOM     33  O   UNL     1       2.871   5.323  -1.084  0.00  0.00    -0.507 OA
ATOM     34  H   UNL     1       2.486   5.088  -0.229  0.00  0.00    +0.292 HD
ENDBRANCH  30  33
ENDBRANCH  25  27
BRANCH  24  35
ATOM     35  C   UNL     1       7.424  -0.213  -4.220  0.00  0.00    +0.030 C 
ATOM     36  C   UNL     1       6.749  -1.294  -5.067  0.00  0.00    +0.031 C 
ATOM     37  C   UNL     1       8.335   0.636  -5.109  0.00  0.00    +0.031 C 
ATOM     38  C   UNL     1       8.257  -0.874  -3.120  0.00  0.00    +0.031 C 
ENDBRANCH  24  35
ENDBRANCH   1  24
TORSDOF 10
