REMARK  Name = ZINC16719443
REMARK  11 active torsions:
REMARK  status: ('A' for Active; 'I' for Inactive)
REMARK    1  A    between atoms: C_1  and  C_2
REMARK    2  A    between atoms: C_2  and  C_4
REMARK    3  A    between atoms: C_2  and  S_16
REMARK    4  A    between atoms: N_6  and  C_7
REMARK    5  A    between atoms: C_10  and  C_14
REMARK    6  A    between atoms: S_16  and  C_17
REMARK    7  A    between atoms: C_20  and  C_26
REMARK    8  A    between atoms: N_21  and  C_22
REMARK    9  A    between atoms: C_22  and  C_23
REMARK   10  A    between atoms: C_23  and  C_24
REMARK   11  A    between atoms: C_23  and  C_25
REMARK                            x       y       z     vdW  Elec       q    Type
REMARK                         _______ _______ _______ _____ _____    ______ ____
ROOT
ATOM      1  S   UNL     1       1.325  -0.560   2.112  0.00  0.00    -0.074 S 
ENDROOT
BRANCH   1   2
ATOM      2  C   UNL     1       2.971  -0.008   1.812  0.00  0.00    +0.193 A 
ATOM      3  N   UNL     1       3.348   0.860   0.901  0.00  0.00    -0.122 NA
ATOM      4  N   UNL     1       4.620   1.034   0.957  0.00  0.00    -0.128 NA
ATOM      5  C   UNL     1       5.133   0.289   1.908  0.00  0.00    +0.168 A 
ATOM      6  N   UNL     1       4.092  -0.397   2.489  0.00  0.00    -0.302 N 
BRANCH   5   7
ATOM      7  C   UNL     1       6.560   0.207   2.287  0.00  0.00    +0.054 A 
ATOM      8  C   UNL     1       6.936   0.302   3.627  0.00  0.00    +0.014 A 
ATOM      9  C   UNL     1       8.269   0.224   3.974  0.00  0.00    +0.001 A 
ATOM     10  C   UNL     1       9.233   0.052   2.997  0.00  0.00    +0.003 A 
ATOM     11  C   UNL     1       8.870  -0.043   1.666  0.00  0.00    +0.039 A 
ATOM     12  C   UNL     1       7.538   0.027   1.304  0.00  0.00    +0.134 A 
ATOM     13  F   UNL     1       7.182  -0.072   0.005  0.00  0.00    -0.205 F 
ENDBRANCH   5   7
BRANCH   6  14
ATOM     14  C   UNL     1       4.170  -1.350   3.599  0.00  0.00    +0.129 C 
BRANCH  14  15
ATOM     15  C   UNL     1       4.527  -2.736   3.059  0.00  0.00    +0.003 C 
ATOM     16  C   UNL     1       4.730  -3.702   4.227  0.00  0.00    +0.009 C 
ATOM     17  C   UNL     1       3.391  -3.244   2.168  0.00  0.00    +0.009 C 
ENDBRANCH  14  15
ENDBRANCH   6  14
ENDBRANCH   1   2
BRANCH   1  19
ATOM     18  C   UNL     1       0.384   1.833   1.179  0.00  0.00    +0.029 C 
ATOM     19  C   UNL     1       0.332   0.332   0.883  0.00  0.00    +0.137 C 
BRANCH  19  20
ATOM     20  C   UNL     1      -1.096  -0.144   0.950  0.00  0.00    +0.230 C 
ATOM     21  O   UNL     1      -1.528  -0.625   1.976  0.00  0.00    -0.274 OA
ATOM     22  N   UNL     1      -1.893  -0.035  -0.131  0.00  0.00    -0.285 N 
ATOM     23  H   UNL     1      -1.571   0.412  -0.929  0.00  0.00    +0.155 HD
BRANCH  22  24
ATOM     24  C   UNL     1      -3.183  -0.567  -0.103  0.00  0.00    +0.035 A 
ATOM     25  C   UNL     1      -3.926  -0.523   1.073  0.00  0.00    +0.024 A 
ATOM     26  C   UNL     1      -5.199  -1.047   1.106  0.00  0.00    +0.022 A 
ATOM     27  C   UNL     1      -5.746  -1.622  -0.045  0.00  0.00    +0.070 A 
ATOM     28  C   UNL     1      -4.997  -1.663  -1.226  0.00  0.00    +0.060 A 
ATOM     29  C   UNL     1      -3.725  -1.133  -1.252  0.00  0.00    +0.044 A 
ATOM     30 CL   UNL     1      -5.671  -2.377  -2.658  0.00  0.00    -0.082 Cl
BRANCH  27  31
ATOM     31  C   UNL     1      -7.070  -2.168  -0.015  0.00  0.00    +0.101 C 
ATOM     32  N   UNL     1      -8.120  -2.601   0.009  0.00  0.00    -0.191 NA
ENDBRANCH  27  31
ENDBRANCH  22  24
ENDBRANCH  19  20
ENDBRANCH   1  19
TORSDOF 8
