REMARK  Name = ZINC19638292
REMARK  8 active torsions:
REMARK  status: ('A' for Active; 'I' for Inactive)
REMARK    1  A    between atoms: C_1  and  C_2
REMARK    2  A    between atoms: C_3  and  C_24
REMARK    3  A    between atoms: C_4  and  C_14
REMARK    4  A    between atoms: C_17  and  O_20
REMARK    5  A    between atoms: O_20  and  C_21
REMARK    6  A    between atoms: C_21  and  C_23
REMARK    7  A    between atoms: C_24  and  O_26
REMARK    8  A    between atoms: O_26  and  C_27
REMARK                            x       y       z     vdW  Elec       q    Type
REMARK                         _______ _______ _______ _____ _____    ______ ____
ROOT
ATOM      1  C   UNL     1       3.765  -0.784   0.819  0.00  0.00    +0.061 C 
ATOM      2  C   UNL     1       2.527  -0.041   0.388  0.00  0.00    +0.016 C 
ATOM      3  C   UNL     1       2.511   1.302   0.414  0.00  0.00    +0.065 C 
ATOM      4  C   UNL     1       1.299   2.075  -0.017  0.00  0.00    +0.092 C 
ATOM      5  C   UNL     1       0.074   1.196  -0.037  0.00  0.00    +0.024 C 
ATOM      6  C   UNL     1       0.191  -0.149  -0.041  0.00  0.00    +0.015 C 
ATOM      7  N   UNL     1       1.427  -0.739  -0.027  0.00  0.00    -0.321 N 
ATOM      8  C   UNL     1      -1.029  -1.035  -0.057  0.00  0.00    +0.051 C 
ATOM      9  C   UNL     1      -2.166  -0.331  -0.801  0.00  0.00    +0.014 C 
ATOM     10  C   UNL     1      -2.453   1.001  -0.100  0.00  0.00    +0.080 C 
ATOM     11  C   UNL     1      -1.188   1.814  -0.057  0.00  0.00    +0.162 C 
ATOM     12  O   UNL     1      -1.259   3.027  -0.036  0.00  0.00    -0.292 OA
ATOM     13  H   UNL     1       1.530  -1.784  -0.354  0.00  0.00    +0.152 HD
ENDROOT
BRANCH   4  14
ATOM     14  C   UNL     1       1.532   2.631  -1.398  0.00  0.00    -0.035 A 
ATOM     15  C   UNL     1       1.754   1.772  -2.459  0.00  0.00    +0.008 A 
ATOM     16  C   UNL     1       1.962   2.279  -3.727  0.00  0.00    +0.046 A 
ATOM     17  C   UNL     1       1.960   3.650  -3.934  0.00  0.00    +0.132 A 
ATOM     18  C   UNL     1       1.742   4.510  -2.867  0.00  0.00    +0.046 A 
ATOM     19  C   UNL     1       1.528   3.998  -1.602  0.00  0.00    +0.008 A 
BRANCH  17  20
ATOM     20  O   UNL     1       2.171   4.151  -5.180  0.00  0.00    -0.426 OA
BRANCH  20  21
ATOM     21  C   UNL     1       1.206   3.946  -6.091  0.00  0.00    +0.309 C 
ATOM     22  O   UNL     1       0.163   3.432  -5.761  0.00  0.00    -0.251 OA
ATOM     23  C   UNL     1       1.423   4.356  -7.524  0.00  0.00    +0.136 C 
ENDBRANCH  20  21
ENDBRANCH  17  20
ENDBRANCH   4  14
BRANCH   3  24
ATOM     24  C   UNL     1       3.659   2.001   0.856  0.00  0.00    +0.337 C 
ATOM     25  O   UNL     1       4.648   1.386   1.207  0.00  0.00    -0.245 OA
BRANCH  24  26
ATOM     26  O   UNL     1       3.656   3.350   0.887  0.00  0.00    -0.465 OA
ATOM     27  C   UNL     1       4.850   3.991   1.344  0.00  0.00    +0.280 C 
ENDBRANCH  24  26
ENDBRANCH   3  24
TORSDOF 5
