REMARK  Name = ZINC40070948
REMARK  11 active torsions:
REMARK  status: ('A' for Active; 'I' for Inactive)
REMARK    1  A    between atoms: C_1  and  C_2
REMARK    2  A    between atoms: C_3  and  C_12
REMARK    3  A    between atoms: C_4  and  C_11
REMARK    4  A    between atoms: C_12  and  C_13
REMARK    5  A    between atoms: C_13  and  C_14
REMARK    6  A    between atoms: N_16  and  C_17
REMARK    7  A    between atoms: C_17  and  C_18
REMARK    8  A    between atoms: C_18  and  C_20
REMARK    9  A    between atoms: C_18  and  N_23
REMARK   10  A    between atoms: C_20  and  C_21
REMARK   11  A    between atoms: C_20  and  C_22
REMARK                            x       y       z     vdW  Elec       q    Type
REMARK                         _______ _______ _______ _____ _____    ______ ____
ROOT
ATOM      1  C   UNL     1      -4.121   1.033   1.547  0.00  0.00    +0.213 C 
ATOM      2  O   UNL     1      -4.775   0.987   0.527  0.00  0.00    -0.276 OA
ATOM      3  N   UNL     1      -4.653   1.565   2.665  0.00  0.00    -0.317 N 
ATOM      4  H   UNL     1      -4.129   1.603   3.481  0.00  0.00    +0.149 HD
ENDROOT
BRANCH   1   5
ATOM      5  C   UNL     1      -2.713   0.496   1.564  0.00  0.00    +0.100 C 
BRANCH   5   6
ATOM      6  C   UNL     1      -2.357  -0.046   0.178  0.00  0.00    +0.048 C 
BRANCH   6   9
ATOM      7  C   UNL     1      -0.100   1.742  -0.255  0.00  0.00    +0.066 C 
ATOM      8  C   UNL     1       0.138   0.274  -0.012  0.00  0.00    +0.047 A 
ATOM      9  C   UNL     1      -0.949  -0.583   0.195  0.00  0.00    -0.005 A 
ATOM     10  C   UNL     1      -0.721  -1.904   0.413  0.00  0.00    +0.048 A 
ATOM     11  N   UNL     1       0.561  -2.359   0.423  0.00  0.00    -0.201 N 
ATOM     12  C   UNL     1       1.600  -1.495   0.217  0.00  0.00    +0.253 A 
ATOM     13  N   UNL     1       1.365  -0.196  -0.002  0.00  0.00    -0.216 NA
ATOM     14  N   UNL     1       2.720  -2.206   0.280  0.00  0.00    -0.197 NA
ATOM     15  C   UNL     1       2.431  -3.479   0.517  0.00  0.00    +0.247 A 
ATOM     16  N   UNL     1       1.131  -3.624   0.613  0.00  0.00    -0.152 NA
ATOM     17  C   UNL     1      -1.870  -2.852   0.640  0.00  0.00    +0.066 C 
ENDBRANCH   6   9
ENDBRANCH   5   6
ENDBRANCH   1   5
BRANCH   3  18
ATOM     18  C   UNL     1      -6.022   2.088   2.648  0.00  0.00    +0.089 C 
BRANCH  18  19
ATOM     19  C   UNL     1      -6.447   2.450   4.072  0.00  0.00    -0.048 C 
BRANCH  19  20
ATOM     20  N   UNL     1      -6.587   1.223   4.868  0.00  0.00    +0.386 N 
ATOM     21  C   UNL     1      -5.289   0.536   4.947  0.00  0.00    -0.073 C 
ATOM     22  C   UNL     1      -5.378  -0.554   6.016  0.00  0.00    +0.017 C 
ATOM     23  C   UNL     1      -6.593  -1.411   5.771  0.00  0.00    -0.048 A 
ATOM     24  C   UNL     1      -6.675  -2.644   6.399  0.00  0.00    +0.004 A 
ATOM     25  C   UNL     1      -7.774  -3.455   6.201  0.00  0.00    +0.000 A 
ATOM     26  C   UNL     1      -8.798  -3.036   5.371  0.00  0.00    +0.000 A 
ATOM     27  C   UNL     1      -8.716  -1.810   4.744  0.00  0.00    +0.002 A 
ATOM     28  C   UNL     1      -7.612  -0.994   4.941  0.00  0.00    -0.061 A 
ATOM     29  C   UNL     1      -7.561   0.333   4.230  0.00  0.00    -0.042 C 
ATOM     30  H   UNL     1      -6.903   1.458   5.798  0.00  0.00    -0.081 HD
ENDBRANCH  19  20
BRANCH  19  31
ATOM     31  C   UNL     1      -7.786   3.188   4.033  0.00  0.00    -0.029 C 
ATOM     32  C   UNL     1      -8.182   3.603   5.451  0.00  0.00    +0.005 C 
ATOM     33  C   UNL     1      -7.656   4.434   3.155  0.00  0.00    +0.005 C 
ENDBRANCH  19  31
ENDBRANCH  18  19
ENDBRANCH   3  18
TORSDOF 7
