REMARK  Name = ZINC20713793
REMARK  5 active torsions:
REMARK  status: ('A' for Active; 'I' for Inactive)
REMARK    1  A    between atoms: C_1  and  N_2
REMARK    2  A    between atoms: N_2  and  C_3
REMARK    3  A    between atoms: C_9  and  C_11
REMARK    4  A    between atoms: C_24  and  C_27
REMARK    5  A    between atoms: C_32  and  N_33
REMARK                            x       y       z     vdW  Elec       q    Type
REMARK                         _______ _______ _______ _____ _____    ______ ____
ROOT
ATOM      1  C   UNL     1      -4.122  -1.839   2.006  0.00  0.00    +0.038 A 
ATOM      2  C   UNL     1      -3.957  -1.990   0.626  0.00  0.00    +0.015 A 
ATOM      3  C   UNL     1      -3.527  -0.922  -0.127  0.00  0.00    +0.024 A 
ATOM      4  C   UNL     1      -3.258   0.302   0.482  0.00  0.00    +0.031 A 
ATOM      5  C   UNL     1      -3.419   0.462   1.853  0.00  0.00    -0.019 A 
ATOM      6  C   UNL     1      -3.851  -0.611   2.611  0.00  0.00    +0.019 A 
ATOM      7  C   UNL     1      -3.140   1.759   2.545  0.00  0.00    +0.049 C 
ATOM      8  C   UNL     1      -1.842   1.703   3.316  0.00  0.00    -0.023 C 
ATOM      9  C   UNL     1      -1.226   2.857   3.252  0.00  0.00    -0.030 C 
ATOM     10  C   UNL     1      -2.033   3.846   2.434  0.00  0.00    +0.033 C 
ATOM     11  C   UNL     1      -2.948   2.934   1.566  0.00  0.00    +0.029 C 
ATOM     12  C   UNL     1      -2.124   2.477   0.359  0.00  0.00    +0.107 C 
ATOM     13  N   UNL     1      -2.820   1.368  -0.301  0.00  0.00    -0.336 N 
ATOM     14  H   UNL     1      -2.986   1.391  -1.388  0.00  0.00    +0.147 HD
ENDROOT
BRANCH  12  15
ATOM     15  C   UNL     1      -0.765   2.017   0.820  0.00  0.00    +0.003 A 
ATOM     16  C   UNL     1      -0.590   0.722   1.269  0.00  0.00    +0.008 A 
ATOM     17  C   UNL     1       0.658   0.298   1.687  0.00  0.00    +0.000 A 
ATOM     18  C   UNL     1       1.730   1.170   1.655  0.00  0.00    +0.002 A 
ATOM     19  C   UNL     1       1.555   2.465   1.206  0.00  0.00    +0.033 A 
ATOM     20  C   UNL     1       0.307   2.889   0.789  0.00  0.00    +0.131 A 
BRANCH  20  21
ATOM     21  N   UNL     1       0.119   4.276   0.308  0.00  0.00    +0.057 N 
ATOM     22  O   UNL     1       1.051   5.060   0.331  0.00  0.00    -0.126 OA
ATOM     23  O   UNL     1      -0.967   4.634  -0.111  0.00  0.00    -0.126 OA
ENDBRANCH  20  21
ENDBRANCH  12  15
BRANCH   1  26
ATOM     24  C   UNL     1      -5.735  -3.850   0.861  0.00  0.00    +0.138 C 
ATOM     25  N   UNL     1      -5.303  -3.966   2.256  0.00  0.00    -0.271 N 
ATOM     26  C   UNL     1      -4.583  -2.978   2.823  0.00  0.00    +0.251 C 
ATOM     27  O   UNL     1      -4.314  -3.025   4.008  0.00  0.00    -0.270 OA
BRANCH  25  28
ATOM     28  C   UNL     1      -5.638  -5.102   2.999  0.00  0.00    +0.036 A 
ATOM     29  C   UNL     1      -5.351  -5.155   4.357  0.00  0.00    +0.023 A 
ATOM     30  C   UNL     1      -5.689  -6.276   5.089  0.00  0.00    +0.002 A 
ATOM     31  C   UNL     1      -6.300  -7.351   4.469  0.00  0.00    +0.000 A 
ATOM     32  C   UNL     1      -6.582  -7.304   3.116  0.00  0.00    +0.002 A 
ATOM     33  C   UNL     1      -6.253  -6.183   2.380  0.00  0.00    +0.023 A 
ENDBRANCH  25  28
ENDBRANCH   1  26
TORSDOF 4
