REMARK  Name = ZINC51422508
REMARK  7 active torsions:
REMARK  status: ('A' for Active; 'I' for Inactive)
REMARK    1  A    between atoms: C_1  and  C_2
REMARK    2  A    between atoms: C_2  and  C_4
REMARK    3  A    between atoms: C_2  and  N_20
REMARK    4  A    between atoms: C_4  and  N_6
REMARK    5  A    between atoms: C_9  and  C_12
REMARK    6  A    between atoms: C_12  and  N_13
REMARK    7  A    between atoms: C_21  and  C_23
REMARK                            x       y       z     vdW  Elec       q    Type
REMARK                         _______ _______ _______ _____ _____    ______ ____
ROOT
ATOM      1  N   UNL     1      -2.242  -0.211  -0.973  0.00  0.00    -0.155 NA
ATOM      2  C   UNL     1      -3.495  -0.673  -0.963  0.00  0.00    +0.163 A 
ATOM      3  N   UNL     1      -4.479  -0.465  -1.879  0.00  0.00    -0.341 N 
ATOM      4  C   UNL     1      -5.696  -1.036  -1.674  0.00  0.00    +0.008 A 
ATOM      5  C   UNL     1      -5.849  -1.776  -0.570  0.00  0.00    +0.067 A 
ATOM      6  S   UNL     1      -4.236  -1.659   0.179  0.00  0.00    -0.061 S 
ATOM      7  H   UNL     1      -4.316   0.081  -2.663  0.00  0.00    +0.167 HD
ENDROOT
BRANCH   1   8
ATOM      8  C   UNL     1      -1.412  -0.526   0.013  0.00  0.00    +0.258 C 
ATOM      9  O   UNL     1      -1.791  -1.235   0.925  0.00  0.00    -0.272 OA
BRANCH   8  11
ATOM     10  C   UNL     1      -0.019   1.526   0.010  0.00  0.00    +0.038 C 
ATOM     11  C   UNL     1       0.002  -0.004   0.002  0.00  0.00    +0.158 C 
BRANCH  11  12
ATOM     12  N   UNL     1       0.711  -0.489   1.189  0.00  0.00    -0.300 N 
ATOM     13  C   UNL     1       2.054  -0.600   1.174  0.00  0.00    +0.248 C 
ATOM     14  O   UNL     1       2.678  -0.297   0.175  0.00  0.00    -0.270 OA
ATOM     15  H   UNL     1       0.213  -0.731   1.986  0.00  0.00    +0.150 HD
BRANCH  13  16
ATOM     16  C   UNL     1       2.767  -1.088   2.368  0.00  0.00    +0.074 A 
ATOM     17  C   UNL     1       4.218  -1.264   2.527  0.00  0.00    +0.054 A 
ATOM     18  C   UNL     1       4.399  -1.726   3.773  0.00  0.00    +0.195 A 
ATOM     19  O   UNL     1       3.205  -1.846   4.375  0.00  0.00    -0.470 OA
ATOM     20  C   UNL     1       2.218  -1.466   3.558  0.00  0.00    +0.207 A 
ENDBRANCH  13  16
ENDBRANCH  11  12
ENDBRANCH   8  11
ENDBRANCH   1   8
BRANCH   4  21
ATOM     21  C   UNL     1      -6.827  -0.842  -2.651  0.00  0.00    -0.024 C 
BRANCH  21  22
ATOM     22  N   UNL     1      -7.220   0.573  -2.671  0.00  0.00    +0.383 N 
ATOM     23  C   UNL     1      -7.683   0.954  -1.323  0.00  0.00    -0.078 C 
ATOM     24  C   UNL     1      -7.508   2.444  -1.166  0.00  0.00    -0.019 C 
ATOM     25  C   UNL     1      -8.811   3.201  -1.480  0.00  0.00    -0.002 C 
ATOM     26  C   UNL     1      -9.538   2.606  -2.703  0.00  0.00    -0.002 C 
ATOM     27  C   UNL     1      -8.588   2.237  -3.813  0.00  0.00    -0.019 C 
ATOM     28  C   UNL     1      -8.187   0.755  -3.661  0.00  0.00    -0.078 C 
ATOM     29  H   UNL     1      -6.411   1.129  -2.903  0.00  0.00    -0.081 HD
ENDBRANCH  21  22
ENDBRANCH   4  21
TORSDOF 6
