REMARK  Name = ZINC07455214
REMARK  10 active torsions:
REMARK  status: ('A' for Active; 'I' for Inactive)
REMARK    1  A    between atoms: C_1  and  C_2
REMARK    2  A    between atoms: C_6  and  N_9
REMARK    3  A    between atoms: C_7  and  C_8
REMARK    4  A    between atoms: C_10  and  C_12
REMARK    5  A    between atoms: C_12  and  N_56
REMARK    6  A    between atoms: C_13  and  N_56
REMARK    7  A    between atoms: C_14  and  C_15
REMARK    8  A    between atoms: C_14  and  N_56
REMARK    9  A    between atoms: N_17  and  C_18
REMARK   10  A    between atoms: C_18  and  C_19
REMARK                            x       y       z     vdW  Elec       q    Type
REMARK                         _______ _______ _______ _____ _____    ______ ____
ROOT
ATOM      1  C   UNL     1       2.466   0.918  -0.044  0.00  0.00    +0.019 C 
ENDROOT
BRANCH   1   2
ATOM      2  C   UNL     1       1.150   1.652  -0.029  0.00  0.00    +0.197 C 
ATOM      3  O   UNL     1       1.132   2.865  -0.014  0.00  0.00    -0.278 OA
ATOM      4  N   UNL     1      -0.007   0.961  -0.031  0.00  0.00    -0.313 N 
ATOM      5  H   UNL     1       0.008  -0.009  -0.043  0.00  0.00    +0.149 HD
BRANCH   4   6
ATOM      6  C   UNL     1      -1.286   1.674  -0.022  0.00  0.00    +0.152 C 
BRANCH   6   7
ATOM      7  C   UNL     1      -2.434   0.663  -0.034  0.00  0.00    +0.228 C 
ATOM      8  C   UNL     1      -3.778   1.405  -0.055  0.00  0.00    +0.275 C 
ATOM      9  O   UNL     1      -4.827   0.431  -0.079  0.00  0.00    -0.485 OA
ATOM     10  C   UNL     1      -4.687  -0.597  -0.960  0.00  0.00    +0.162 A 
ATOM     11  C   UNL     1      -5.795  -1.361  -1.296  0.00  0.00    +0.049 A 
ATOM     12  C   UNL     1      -5.668  -2.410  -2.186  0.00  0.00    +0.004 A 
ATOM     13  C   UNL     1      -4.437  -2.701  -2.745  0.00  0.00    +0.004 A 
ATOM     14  C   UNL     1      -3.330  -1.943  -2.416  0.00  0.00    +0.049 A 
ATOM     15  C   UNL     1      -3.450  -0.888  -1.523  0.00  0.00    +0.163 A 
ATOM     16  O   UNL     1      -2.351  -0.148  -1.211  0.00  0.00    -0.480 OA
ENDBRANCH   6   7
ENDBRANCH   4   6
ENDBRANCH   1   2
BRANCH   1  18
ATOM     17  C   UNL     1       3.589   2.670  -1.282  0.00  0.00    -0.095 C 
ATOM     18  N   UNL     1       3.564   1.907  -0.016  0.00  0.00    +0.389 N 
ATOM     19  H   UNL     1       3.407   2.558   0.762  0.00  0.00    -0.081 HD
BRANCH  18  20
ATOM     20  C   UNL     1       4.858   1.221   0.186  0.00  0.00    +0.019 C 
BRANCH  20  22
ATOM     21  N   UNL     1       7.196   1.874   0.661  0.00  0.00    -0.287 N 
ATOM     22  C   UNL     1       5.925   2.257   0.430  0.00  0.00    +0.201 C 
ATOM     23  O   UNL     1       5.639   3.436   0.419  0.00  0.00    -0.278 OA
ATOM     24  H   UNL     1       7.410   0.932   0.749  0.00  0.00    +0.155 HD
BRANCH  21  30
ATOM     25  C   UNL     1      11.614   3.188   2.370  0.00  0.00    +0.044 C 
ATOM     26  C   UNL     1      10.359   3.498   1.595  0.00  0.00    -0.046 A 
ATOM     27  C   UNL     1      10.206   4.734   0.994  0.00  0.00    +0.004 A 
ATOM     28  C   UNL     1       9.056   5.023   0.283  0.00  0.00    +0.002 A 
ATOM     29  C   UNL     1       8.059   4.074   0.166  0.00  0.00    +0.023 A 
ATOM     30  C   UNL     1       8.207   2.834   0.773  0.00  0.00    +0.036 A 
ATOM     31  C   UNL     1       9.363   2.548   1.486  0.00  0.00    -0.026 A 
ATOM     32  C   UNL     1       9.531   1.201   2.141  0.00  0.00    +0.046 C 
ENDBRANCH  21  30
ENDBRANCH  20  22
ENDBRANCH  18  20
ENDBRANCH   1  18
TORSDOF 7
