REMARK  Name = ZINC29762468
REMARK  7 active torsions:
REMARK  status: ('A' for Active; 'I' for Inactive)
REMARK    1  A    between atoms: C_1  and  C_2
REMARK    2  A    between atoms: C_5  and  C_13
REMARK    3  A    between atoms: C_6  and  C_12
REMARK    4  A    between atoms: N_9  and  C_11
REMARK    5  A    between atoms: N_15  and  C_16
REMARK    6  A    between atoms: C_16  and  C_18
REMARK    7  A    between atoms: C_16  and  C_19
REMARK                            x       y       z     vdW  Elec       q    Type
REMARK                         _______ _______ _______ _____ _____    ______ ____
ROOT
ATOM      1  C   UNL     1      -2.145   1.110  -1.404  0.00  0.00    +0.246 C 
ATOM      2  O   UNL     1      -2.535   0.095  -0.860  0.00  0.00    -0.270 OA
ATOM      3  N   UNL     1      -1.235   1.895  -0.794  0.00  0.00    -0.302 N 
ATOM      4  H   UNL     1      -0.883   2.813  -1.286  0.00  0.00    +0.150 HD
ENDROOT
BRANCH   1   9
ATOM      5  C   UNL     1      -1.926   5.396  -5.231  0.00  0.00    +0.068 C 
ATOM      6  C   UNL     1      -2.732   4.146  -5.474  0.00  0.00    +0.069 A 
ATOM      7  C   UNL     1      -2.852   3.007  -4.569  0.00  0.00    +0.042 A 
ATOM      8  C   UNL     1      -2.330   2.708  -3.308  0.00  0.00    +0.028 A 
ATOM      9  C   UNL     1      -2.670   1.483  -2.733  0.00  0.00    +0.058 A 
ATOM     10  C   UNL     1      -3.519   0.613  -3.431  0.00  0.00    +0.053 A 
ATOM     11  N   UNL     1      -3.996   0.926  -4.612  0.00  0.00    -0.232 NA
ATOM     12  C   UNL     1      -3.700   2.078  -5.206  0.00  0.00    +0.158 A 
ATOM     13  N   UNL     1      -4.055   2.632  -6.403  0.00  0.00    -0.249 N 
ATOM     14  N   UNL     1      -3.449   3.886  -6.529  0.00  0.00    -0.174 NA
ATOM     15  C   UNL     1      -4.932   2.011  -7.398  0.00  0.00    +0.174 C 
ATOM     16  C   UNL     1      -3.893  -0.708  -2.810  0.00  0.00    +0.066 C 
ENDBRANCH   1   9
BRANCH   3  17
ATOM     17  C   UNL     1      -0.715   1.524   0.524  0.00  0.00    +0.136 C 
ATOM     18  C   UNL     1      -1.665   2.035   1.609  0.00  0.00    +0.036 C 
BRANCH  17  19
ATOM     19  C   UNL     1       0.646   2.141   0.719  0.00  0.00    +0.126 A 
ATOM     20  C   UNL     1       1.686   1.535   1.308  0.00  0.00    +0.055 A 
ATOM     21  C   UNL     1       2.794   2.498   1.274  0.00  0.00    +0.020 A 
ATOM     22  C   UNL     1       4.117   2.477   1.713  0.00  0.00    +0.011 A 
ATOM     23  C   UNL     1       4.909   3.576   1.528  0.00  0.00    +0.001 A 
ATOM     24  C   UNL     1       4.405   4.709   0.907  0.00  0.00    +0.004 A 
ATOM     25  C   UNL     1       3.099   4.748   0.466  0.00  0.00    +0.047 A 
ATOM     26  C   UNL     1       2.277   3.642   0.645  0.00  0.00    +0.135 A 
ATOM     27  O   UNL     1       0.992   3.381   0.331  0.00  0.00    -0.458 OA
ENDBRANCH  17  19
ENDBRANCH   3  17
TORSDOF 3
