REMARK  Name = ZINC27233717
REMARK  8 active torsions:
REMARK  status: ('A' for Active; 'I' for Inactive)
REMARK    1  A    between atoms: C_1  and  C_2
REMARK    2  A    between atoms: C_2  and  C_4
REMARK    3  A    between atoms: C_2  and  N_19
REMARK    4  A    between atoms: N_6  and  C_7
REMARK    5  A    between atoms: C_12  and  C_13
REMARK    6  A    between atoms: N_15  and  C_16
REMARK    7  A    between atoms: C_16  and  C_17
REMARK    8  A    between atoms: C_16  and  C_18
REMARK                            x       y       z     vdW  Elec       q    Type
REMARK                         _______ _______ _______ _____ _____    ______ ____
ROOT
ATOM      1  C   UNL     1       0.706  -0.492  -1.238  0.00  0.00    +0.237 C 
ATOM      2  O   UNL     1       1.694  -1.188  -1.140  0.00  0.00    -0.273 OA
ATOM      3  N   UNL     1       0.231  -0.163  -2.456  0.00  0.00    -0.283 N 
ATOM      4  H   UNL     1      -0.603   0.326  -2.536  0.00  0.00    +0.155 HD
ENDROOT
BRANCH   3   5
ATOM      5  C   UNL     1       0.939  -0.524  -3.600  0.00  0.00    +0.046 A 
ATOM      6  C   UNL     1       2.311  -0.731  -3.535  0.00  0.00    +0.024 A 
ATOM      7  C   UNL     1       3.010  -1.088  -4.670  0.00  0.00    +0.002 A 
ATOM      8  C   UNL     1       2.353  -1.243  -5.880  0.00  0.00    +0.001 A 
ATOM      9  C   UNL     1       0.992  -1.042  -5.963  0.00  0.00    +0.015 A 
ATOM     10  C   UNL     1       0.269  -0.685  -4.822  0.00  0.00    +0.058 A 
BRANCH  10  11
ATOM     11  C   UNL     1      -1.188  -0.474  -4.902  0.00  0.00    +0.246 C 
ATOM     12  O   UNL     1      -1.799  -0.072  -3.931  0.00  0.00    -0.270 OA
ATOM     13  N   UNL     1      -1.843  -0.727  -6.053  0.00  0.00    -0.309 N 
ATOM     14  H   UNL     1      -1.356  -1.047  -6.828  0.00  0.00    +0.149 HD
BRANCH  13  15
ATOM     15  C   UNL     1      -3.291  -0.517  -6.133  0.00  0.00    +0.067 C 
ATOM     16  C   UNL     1      -3.690  -0.260  -7.587  0.00  0.00    +0.027 C 
ATOM     17  C   UNL     1      -4.016  -1.763  -5.618  0.00  0.00    +0.027 C 
ENDBRANCH  13  15
ENDBRANCH  10  11
ENDBRANCH   3   5
BRANCH   1  19
ATOM     18  C   UNL     1       0.005   1.535   0.007  0.00  0.00    +0.038 C 
ATOM     19  C   UNL     1       0.008   0.005   0.002  0.00  0.00    +0.155 C 
BRANCH  19  20
ATOM     20  N   UNL     1       0.712  -0.486   1.188  0.00  0.00    -0.316 N 
ATOM     21  C   UNL     1       0.038  -0.623   2.382  0.00  0.00    +0.150 C 
ATOM     22  N   UNL     1      -1.220  -0.325   2.462  0.00  0.00    -0.113 NA
ATOM     23  S   UNL     1      -1.661  -0.623   4.049  0.00  0.00    +0.101 S 
ATOM     24  O   UNL     1      -1.958   0.626   4.658  0.00  0.00    -0.146 OA
ATOM     25  O   UNL     1      -2.555  -1.727   4.049  0.00  0.00    -0.146 OA
ATOM     26  C   UNL     1      -0.109  -1.183   4.695  0.00  0.00    +0.123 A 
ATOM     27  C   UNL     1       0.737  -1.116   3.579  0.00  0.00    +0.043 A 
ATOM     28  C   UNL     1       2.073  -1.507   3.757  0.00  0.00    +0.013 A 
ATOM     29  C   UNL     1       2.511  -1.941   4.988  0.00  0.00    +0.001 A 
ATOM     30  C   UNL     1       1.652  -2.001   6.070  0.00  0.00    +0.002 A 
ATOM     31  C   UNL     1       0.329  -1.610   5.915  0.00  0.00    +0.030 A 
ATOM     32  H   UNL     1       1.653  -0.715   1.134  0.00  0.00    +0.148 HD
ENDBRANCH  19  20
ENDBRANCH   1  19
TORSDOF 5
