REMARK  Name = ZINC39990482
REMARK  12 active torsions:
REMARK  status: ('A' for Active; 'I' for Inactive)
REMARK    1  A    between atoms: C_1  and  C_2
REMARK    2  A    between atoms: C_2  and  C_3
REMARK    3  A    between atoms: C_3  and  C_4
REMARK    4  A    between atoms: C_4  and  N_5
REMARK    5  A    between atoms: C_6  and  N_30
REMARK    6  A    between atoms: C_7  and  C_15
REMARK    7  A    between atoms: C_8  and  C_14
REMARK    8  A    between atoms: C_9  and  C_12
REMARK    9  A    between atoms: N_19  and  C_23
REMARK   10  A    between atoms: C_23  and  C_24
REMARK   11  A    between atoms: C_32  and  C_39
REMARK   12  A    between atoms: C_35  and  C_38
REMARK                            x       y       z     vdW  Elec       q    Type
REMARK                         _______ _______ _______ _____ _____    ______ ____
ROOT
ATOM      1  N   UNL     1      -3.169  -2.855  -0.536  0.00  0.00    -0.295 N 
ATOM      2  C   UNL     1      -3.757  -2.826   0.688  0.00  0.00    +0.112 A 
ATOM      3  C   UNL     1      -5.059  -3.323   0.866  0.00  0.00    +0.019 A 
ATOM      4  C   UNL     1      -5.753  -3.852  -0.235  0.00  0.00    -0.017 A 
ATOM      5  C   UNL     1      -5.129  -3.870  -1.479  0.00  0.00    +0.120 A 
ATOM      6  C   UNL     1      -3.815  -3.352  -1.607  0.00  0.00    +0.270 A 
ATOM      7  O   UNL     1      -3.264  -3.361  -2.694  0.00  0.00    -0.266 OA
ATOM      8  C   UNL     1      -7.151  -4.392  -0.072  0.00  0.00    +0.046 C 
ENDROOT
BRANCH   3   9
ATOM      9  C   UNL     1      -5.687  -3.289   2.188  0.00  0.00    +0.032 C 
ATOM     10  C   UNL     1      -6.792  -2.523   2.397  0.00  0.00    +0.077 C 
ATOM     11  C   UNL     1      -7.616  -2.414   3.558  0.00  0.00    +0.258 C 
ATOM     12  O   UNL     1      -7.375  -3.063   4.561  0.00  0.00    -0.269 OA
ATOM     13  N   UNL     1      -8.647  -1.588   3.513  0.00  0.00    -0.253 N 
ATOM     14  C   UNL     1      -8.913  -0.869   2.401  0.00  0.00    +0.121 C 
ATOM     15  S   UNL     1     -10.181   0.248   2.123  0.00  0.00    -0.027 S 
ATOM     16  S   UNL     1      -7.604  -1.373   1.295  0.00  0.00    -0.061 S 
BRANCH  13  17
ATOM     17  C   UNL     1      -9.514  -1.451   4.686  0.00  0.00    +0.146 C 
BRANCH  17  18
ATOM     18  C   UNL     1      -8.980  -0.334   5.586  0.00  0.00    +0.136 C 
ATOM     19  C   UNL     1      -9.816  -0.263   6.883  0.00  0.00    +0.035 C 
ATOM     20  C   UNL     1      -9.924   1.268   7.120  0.00  0.00    +0.031 C 
ATOM     21  C   UNL     1      -9.983   1.789   5.662  0.00  0.00    +0.160 C 
ATOM     22  O   UNL     1      -9.103   0.927   4.920  0.00  0.00    -0.375 OA
ENDBRANCH  17  18
ENDBRANCH  13  17
ENDBRANCH   3   9
BRANCH   2  23
ATOM     23  N   UNL     1      -3.078  -2.311   1.753  0.00  0.00    -0.315 N 
ATOM     24  C   UNL     1      -3.174  -0.882   2.081  0.00  0.00    +0.109 C 
ATOM     25  C   UNL     1      -3.590  -0.740   3.548  0.00  0.00    +0.004 C 
ATOM     26  C   UNL     1      -2.615  -1.523   4.429  0.00  0.00    +0.009 C 
ATOM     27  C   UNL     1      -2.664  -3.006   4.055  0.00  0.00    +0.004 C 
ATOM     28  C   UNL     1      -2.242  -3.175   2.597  0.00  0.00    +0.109 C 
ATOM     29  C   UNL     1      -1.714  -3.793   4.959  0.00  0.00    +0.009 C 
ATOM     30  C   UNL     1      -3.565   0.738   3.946  0.00  0.00    +0.009 C 
ENDBRANCH   2  23
BRANCH   5  31
ATOM     31  C   UNL     1      -5.809  -4.404  -2.621  0.00  0.00    +0.105 C 
ATOM     32  N   UNL     1      -6.348  -4.827  -3.527  0.00  0.00    -0.191 NA
ENDBRANCH   5  31
BRANCH   1  33
ATOM     33  C   UNL     1      -1.810  -2.331  -0.694  0.00  0.00    +0.126 C 
BRANCH  33  34
ATOM     34  C   UNL     1      -1.877  -0.875  -1.159  0.00  0.00    +0.021 C 
BRANCH  34  36
ATOM     35  C   UNL     1      -0.532   1.060  -1.989  0.00  0.00    +0.004 C 
ATOM     36  C   UNL     1      -0.461  -0.359  -1.423  0.00  0.00    -0.002 C 
ENDBRANCH  34  36
ENDBRANCH  33  34
ENDBRANCH   1  33
TORSDOF 8
