REMARK  Name = ZINC09375542
REMARK  13 active torsions:
REMARK  status: ('A' for Active; 'I' for Inactive)
REMARK    1  A    between atoms: C_1  and  C_2
REMARK    2  A    between atoms: C_2  and  C_3
REMARK    3  A    between atoms: C_3  and  C_5
REMARK    4  A    between atoms: C_3  and  N_57
REMARK    5  A    between atoms: C_8  and  S_17
REMARK    6  A    between atoms: N_9  and  C_10
REMARK    7  A    between atoms: C_10  and  C_11
REMARK    8  A    between atoms: S_17  and  C_18
REMARK    9  A    between atoms: C_18  and  C_19
REMARK   10  A    between atoms: N_21  and  C_22
REMARK   11  A    between atoms: C_23  and  C_27
REMARK   12  A    between atoms: C_30  and  N_57
REMARK   13  A    between atoms: C_31  and  N_57
REMARK                            x       y       z     vdW  Elec       q    Type
REMARK                         _______ _______ _______ _____ _____    ______ ____
ROOT
ATOM      1  C   UNL     1      -2.783  -0.443   2.048  0.00  0.00    +0.121 A 
ATOM      2  N   UNL     1      -3.267  -0.179   3.228  0.00  0.00    -0.135 NA
ATOM      3  N   UNL     1      -4.112   0.787   3.153  0.00  0.00    -0.123 NA
ATOM      4  C   UNL     1      -4.208   1.200   1.910  0.00  0.00    +0.192 A 
ATOM      5  N   UNL     1      -3.360   0.430   1.167  0.00  0.00    -0.303 N 
ENDROOT
BRANCH   1   6
ATOM      6  C   UNL     1      -1.772  -1.510   1.715  0.00  0.00    +0.000 C 
BRANCH   6   9
ATOM      7  C   UNL     1      -2.631  -2.806   3.571  0.00  0.00    -0.096 C 
ATOM      8  C   UNL     1      -3.430  -3.230   1.325  0.00  0.00    -0.096 C 
ATOM      9  N   UNL     1      -2.261  -2.838   2.140  0.00  0.00    +0.383 N 
ATOM     10  H   UNL     1      -1.513  -3.528   2.004  0.00  0.00    -0.082 HD
ENDBRANCH   6   9
BRANCH   6  12
ATOM     11  C   UNL     1       0.590  -2.254   2.047  0.00  0.00    +0.002 C 
ATOM     12  C   UNL     1      -0.458  -1.212   2.441  0.00  0.00    -0.011 C 
ENDBRANCH   6  12
ENDBRANCH   1   6
BRANCH   5  13
ATOM     13  C   UNL     1      -3.122   0.517  -0.276  0.00  0.00    +0.160 C 
BRANCH  13  14
ATOM     14  C   UNL     1      -1.993   1.479  -0.542  0.00  0.00    -0.028 A 
ATOM     15  C   UNL     1      -0.690   1.019  -0.589  0.00  0.00    +0.005 A 
ATOM     16  C   UNL     1       0.345   1.901  -0.839  0.00  0.00    +0.000 A 
ATOM     17  C   UNL     1       0.078   3.243  -1.036  0.00  0.00    +0.000 A 
ATOM     18  C   UNL     1      -1.224   3.703  -0.985  0.00  0.00    +0.000 A 
ATOM     19  C   UNL     1      -2.260   2.821  -0.735  0.00  0.00    +0.005 A 
ENDBRANCH  13  14
ENDBRANCH   5  13
BRANCH   4  20
ATOM     20  S   UNL     1      -5.237   2.500   1.315  0.00  0.00    -0.077 S 
BRANCH  20  21
ATOM     21  C   UNL     1      -6.027   3.009   2.861  0.00  0.00    +0.173 C 
BRANCH  21  22
ATOM     22  C   UNL     1      -6.980   4.144   2.589  0.00  0.00    +0.228 C 
ATOM     23  O   UNL     1      -7.111   4.568   1.460  0.00  0.00    -0.275 OA
ATOM     24  N   UNL     1      -7.685   4.689   3.599  0.00  0.00    -0.279 N 
ATOM     25  H   UNL     1      -7.580   4.351   4.502  0.00  0.00    +0.155 HD
BRANCH  24  26
ATOM     26  C   UNL     1      -8.562   5.734   3.349  0.00  0.00    +0.084 A 
ATOM     27  C   UNL     1      -9.373   6.416   4.248  0.00  0.00    +0.065 A 
ATOM     28  C   UNL     1     -10.192   7.475   3.710  0.00  0.00    +0.022 A 
ATOM     29  C   UNL     1     -10.109   7.704   2.387  0.00  0.00    +0.048 A 
ATOM     30  S   UNL     1      -8.917   6.501   1.837  0.00  0.00    -0.081 S 
BRANCH  27  31
ATOM     31  C   UNL     1      -9.392   6.078   5.675  0.00  0.00    +0.244 C 
ATOM     32  O   UNL     1      -8.686   5.181   6.097  0.00  0.00    -0.270 OA
ATOM     33  N   UNL     1     -10.192   6.760   6.518  0.00  0.00    -0.325 N 
ATOM     34  H   UNL     1     -10.754   7.475   6.182  0.00  0.00    +0.145 HD
ATOM     35  H   UNL     1     -10.204   6.537   7.462  0.00  0.00    +0.145 HD
ENDBRANCH  27  31
ENDBRANCH  24  26
ENDBRANCH  21  22
ENDBRANCH  20  21
ENDBRANCH   4  20
TORSDOF 10
