REMARK  Name = ZINC10244178
REMARK  7 active torsions:
REMARK  status: ('A' for Active; 'I' for Inactive)
REMARK    1  A    between atoms: C_1  and  C_2
REMARK    2  A    between atoms: C_7  and  N_8
REMARK    3  A    between atoms: C_12  and  S_13
REMARK    4  A    between atoms: S_13  and  C_14
REMARK    5  A    between atoms: C_14  and  C_15
REMARK    6  A    between atoms: N_17  and  C_18
REMARK    7  A    between atoms: C_19  and  C_27
REMARK                            x       y       z     vdW  Elec       q    Type
REMARK                         _______ _______ _______ _____ _____    ______ ____
ROOT
ATOM      1  C   UNL     1      -1.412  -0.526   0.013  0.00  0.00    +0.228 C 
ATOM      2  O   UNL     1      -2.344   0.250   0.026  0.00  0.00    -0.275 OA
ATOM      3  N   UNL     1      -1.640  -1.854   0.008  0.00  0.00    -0.279 N 
ATOM      4  H   UNL     1      -0.894  -2.474  -0.003  0.00  0.00    +0.155 HD
ENDROOT
BRANCH   3   5
ATOM      5  C   UNL     1      -2.941  -2.334   0.018  0.00  0.00    +0.084 A 
ATOM      6  C   UNL     1      -3.374  -3.652   0.009  0.00  0.00    +0.068 A 
ATOM      7  C   UNL     1      -4.807  -3.889   0.026  0.00  0.00    -0.023 A 
ATOM      8  C   UNL     1      -5.573  -2.777   0.039  0.00  0.00    -0.004 A 
ATOM      9  S   UNL     1      -4.421  -1.433   0.036  0.00  0.00    -0.077 S 
ATOM     10  C   UNL     1      -7.069  -2.711   0.052  0.00  0.00    +0.043 C 
ATOM     11  C   UNL     1      -7.618  -4.093  -0.329  0.00  0.00    +0.005 C 
ATOM     12  C   UNL     1      -6.888  -5.158   0.495  0.00  0.00    +0.005 C 
ATOM     13  C   UNL     1      -5.437  -5.276   0.025  0.00  0.00    +0.037 C 
BRANCH   6  14
ATOM     14  C   UNL     1      -2.420  -4.766  -0.013  0.00  0.00    +0.244 C 
ATOM     15  O   UNL     1      -2.013  -5.239   1.032  0.00  0.00    -0.270 OA
ATOM     16  N   UNL     1      -1.993  -5.265  -1.190  0.00  0.00    -0.325 N 
ATOM     17  H   UNL     1      -2.318  -4.888  -2.022  0.00  0.00    +0.145 HD
ATOM     18  H   UNL     1      -1.362  -6.002  -1.204  0.00  0.00    +0.145 HD
ENDBRANCH   6  14
ENDBRANCH   3   5
BRANCH   1  19
ATOM     19  C   UNL     1       0.002  -0.004   0.002  0.00  0.00    +0.173 C 
BRANCH  19  20
ATOM     20  S   UNL     1      -0.022   1.806   0.012  0.00  0.00    -0.076 S 
BRANCH  20  25
ATOM     21  N   UNL     1       2.302   3.368  -0.002  0.00  0.00    -0.277 N 
ATOM     22  C   UNL     1       3.651   3.128  -0.016  0.00  0.00    +0.230 A 
ATOM     23  N   UNL     1       3.814   1.835  -0.025  0.00  0.00    -0.137 NA
ATOM     24  N   UNL     1       2.673   1.245  -0.011  0.00  0.00    -0.122 NA
ATOM     25  C   UNL     1       1.708   2.135  -0.003  0.00  0.00    +0.196 A 
BRANCH  21  32
ATOM     26  C   UNL     1       0.768   4.070   2.290  0.00  0.00    +0.046 C 
ATOM     27  C   UNL     1       0.906   4.998   1.110  0.00  0.00    -0.027 A 
ATOM     28  C   UNL     1       0.278   6.228   1.121  0.00  0.00    +0.005 A 
ATOM     29  C   UNL     1       0.404   7.080   0.039  0.00  0.00    +0.000 A 
ATOM     30  C   UNL     1       1.159   6.702  -1.057  0.00  0.00    +0.002 A 
ATOM     31  C   UNL     1       1.792   5.475  -1.071  0.00  0.00    +0.026 A 
ATOM     32  C   UNL     1       1.663   4.616   0.012  0.00  0.00    +0.053 A 
ENDBRANCH  21  32
ENDBRANCH  20  25
ENDBRANCH  19  20
ENDBRANCH   1  19
TORSDOF 6
