REMARK  Name = ZINC11662017
REMARK  14 active torsions:
REMARK  status: ('A' for Active; 'I' for Inactive)
REMARK    1  A    between atoms: C_1  and  C_2
REMARK    2  A    between atoms: C_3  and  C_11
REMARK    3  A    between atoms: C_4  and  C_10
REMARK    4  A    between atoms: N_5  and  C_7
REMARK    5  A    between atoms: C_7  and  C_8
REMARK    6  A    between atoms: C_7  and  C_9
REMARK    7  A    between atoms: C_11  and  N_73
REMARK    8  A    between atoms: C_12  and  C_13
REMARK    9  A    between atoms: C_12  and  N_73
REMARK   10  A    between atoms: C_13  and  O_14
REMARK   11  A    between atoms: O_14  and  C_15
REMARK   12  A    between atoms: C_16  and  C_17
REMARK   13  A    between atoms: C_16  and  N_73
REMARK   14  A    between atoms: C_23  and  N_75
REMARK                            x       y       z     vdW  Elec       q    Type
REMARK                         _______ _______ _______ _____ _____    ______ ____
ROOT
ATOM      1  C   UNL     1      -0.174   2.045  -2.905  0.00  0.00    -0.077 C 
ENDROOT
BRANCH   1   2
ATOM      2  C   UNL     1      -0.622   3.382  -3.497  0.00  0.00    -0.044 C 
ATOM      3  C   UNL     1      -0.080   4.529  -2.640  0.00  0.00    -0.002 C 
ATOM      4  C   UNL     1      -0.482   5.863  -3.273  0.00  0.00    -0.018 C 
ATOM      5  C   UNL     1       0.055   5.926  -4.705  0.00  0.00    -0.078 C 
ATOM      6  C   UNL     1      -0.082   3.516  -4.923  0.00  0.00    -0.077 C 
ATOM      7  N   UNL     1      -0.525   4.811  -5.484  0.00  0.00    +0.382 N 
ATOM      8  H   UNL     1      -1.549   4.864  -5.430  0.00  0.00    -0.081 HD
BRANCH   7   9
ATOM      9  C   UNL     1      -0.112   4.915  -6.898  0.00  0.00    -0.060 C 
ATOM     10  C   UNL     1      -0.624   6.237  -7.508  0.00  0.00    +0.020 C 
ATOM     11  C   UNL     1      -0.995   5.898  -8.935  0.00  0.00    -0.046 A 
ATOM     12  C   UNL     1      -1.205   6.723 -10.028  0.00  0.00    +0.004 A 
ATOM     13  C   UNL     1      -1.541   6.181 -11.253  0.00  0.00    +0.000 A 
ATOM     14  C   UNL     1      -1.668   4.811 -11.390  0.00  0.00    +0.000 A 
ATOM     15  C   UNL     1      -1.460   3.987 -10.302  0.00  0.00    +0.004 A 
ATOM     16  C   UNL     1      -1.122   4.529  -9.072  0.00  0.00    -0.046 A 
ATOM     17  C   UNL     1      -0.846   3.854  -7.746  0.00  0.00    +0.020 C 
ENDBRANCH   7   9
ENDBRANCH   1   2
BRANCH   1  18
ATOM     18  N   UNL     1      -0.780   1.891  -1.565  0.00  0.00    +0.384 N 
ATOM     19  H   UNL     1      -0.669   2.771  -1.047  0.00  0.00    -0.081 HD
BRANCH  18  20
ATOM     20  C   UNL     1      -0.100   0.808  -0.824  0.00  0.00    -0.039 C 
BRANCH  20  23
ATOM     21  C   UNL     1       1.000   3.005   1.179  0.00  0.00    +0.068 C 
ATOM     22  C   UNL     1       0.036   1.898   1.522  0.00  0.00    +0.062 A 
ATOM     23  C   UNL     1      -0.449   0.929   0.637  0.00  0.00    -0.021 A 
ATOM     24  C   UNL     1      -1.282   0.116   1.326  0.00  0.00    +0.038 A 
ATOM     25  N   UNL     1      -1.328   0.558   2.600  0.00  0.00    -0.266 N 
ATOM     26  N   UNL     1      -0.495   1.680   2.697  0.00  0.00    -0.176 NA
ATOM     27  C   UNL     1      -2.026  -1.071   0.770  0.00  0.00    +0.065 C 
BRANCH  25  28
ATOM     28  C   UNL     1      -2.111  -0.031   3.690  0.00  0.00    +0.101 C 
ATOM     29  C   UNL     1      -1.170  -0.473   4.812  0.00  0.00    +0.032 C 
ATOM     30  C   UNL     1      -3.096   1.008   4.229  0.00  0.00    +0.032 C 
ENDBRANCH  25  28
ENDBRANCH  20  23
ENDBRANCH  18  20
BRANCH  18  31
ATOM     31  C   UNL     1      -2.220   1.587  -1.694  0.00  0.00    -0.050 C 
BRANCH  31  32
ATOM     32  C   UNL     1      -2.934   2.058  -0.425  0.00  0.00    +0.141 C 
BRANCH  32  33
ATOM     33  O   UNL     1      -2.799   3.475  -0.300  0.00  0.00    -0.385 OA
ATOM     34  C   UNL     1      -3.343   4.005   0.910  0.00  0.00    +0.193 C 
ENDBRANCH  32  33
ENDBRANCH  31  32
ENDBRANCH  18  31
ENDBRANCH   1  18
TORSDOF 9
