REMARK  Name = ZINC54691239
REMARK  6 active torsions:
REMARK  status: ('A' for Active; 'I' for Inactive)
REMARK    1  A    between atoms: C_1  and  C_2
REMARK    2  A    between atoms: C_7  and  S_10
REMARK    3  A    between atoms: S_10  and  C_11
REMARK    4  A    between atoms: C_14  and  C_20
REMARK    5  A    between atoms: C_16  and  N_17
REMARK    6  A    between atoms: N_21  and  O_22
REMARK                            x       y       z     vdW  Elec       q    Type
REMARK                         _______ _______ _______ _____ _____    ______ ____
ROOT
ATOM      1  C   UNL     1       4.670   0.104   2.543  0.00  0.00    +0.038 A 
ATOM      2  C   UNL     1       4.950   0.992   1.508  0.00  0.00    +0.017 A 
ATOM      3  C   UNL     1       6.211   1.529   1.383  0.00  0.00    +0.012 A 
ATOM      4  C   UNL     1       7.210   1.184   2.296  0.00  0.00    +0.020 A 
ATOM      5  C   UNL     1       6.926   0.294   3.333  0.00  0.00    +0.045 A 
ATOM      6  C   UNL     1       5.662  -0.237   3.457  0.00  0.00    +0.140 A 
ENDROOT
BRANCH   4   7
ATOM      7  C   UNL     1       8.566   1.760   2.163  0.00  0.00    +0.162 C 
ATOM      8  N   UNL     1       9.496   1.437   3.014  0.00  0.00    -0.072 NA
ATOM      9  N   UNL     1       8.846   2.642   1.133  0.00  0.00    -0.340 N 
ATOM     10  H   UNL     1       8.152   2.882   0.498  0.00  0.00    +0.144 HD
ATOM     11  H   UNL     1       9.735   3.019   1.046  0.00  0.00    +0.144 HD
BRANCH   8  12
ATOM     12  O   UNL     1      10.794   1.988   2.888  0.00  0.00    -0.408 OA
ATOM     13  H   UNL     1      11.416   1.690   3.565  0.00  0.00    +0.328 HD
ENDBRANCH   8  12
ENDBRANCH   4   7
BRANCH   6  14
ATOM     14  N   UNL     1       5.359  -1.176   4.561  0.00  0.00    +0.058 N 
ATOM     15  O   UNL     1       6.221  -1.473   5.356  0.00  0.00    -0.126 OA
ATOM     16  O   UNL     1       4.250  -1.646   4.667  0.00  0.00    -0.126 OA
ENDBRANCH   6  14
BRANCH   1  17
ATOM     17  S   UNL     1       3.055  -0.582   2.700  0.00  0.00    -0.120 S 
BRANCH  17  23
ATOM     18  C   UNL     1       0.153   1.692  -0.044  0.00  0.00    +0.007 C 
ATOM     19  C   UNL     1      -0.043   0.182   0.101  0.00  0.00    -0.013 C 
ATOM     20  C   UNL     1       0.519  -0.526  -1.133  0.00  0.00    +0.003 C 
ATOM     21  C   UNL     1       2.012  -0.215  -1.264  0.00  0.00    +0.001 C 
ATOM     22  C   UNL     1       2.746  -0.707  -0.015  0.00  0.00    +0.014 C 
ATOM     23  C   UNL     1       2.184   0.001   1.220  0.00  0.00    +0.052 C 
ATOM     24  C   UNL     1       0.692  -0.310   1.350  0.00  0.00    +0.017 C 
ENDBRANCH  17  23
ENDBRANCH   1  17
TORSDOF 5
