REMARK  Name = ZINC41613410
REMARK  3 active torsions:
REMARK  status: ('A' for Active; 'I' for Inactive)
REMARK    1  A    between atoms: C_1  and  C_2
REMARK    2  A    between atoms: C_8  and  C_10
REMARK    3  A    between atoms: C_11  and  C_20
REMARK                            x       y       z     vdW  Elec       q    Type
REMARK                         _______ _______ _______ _____ _____    ______ ____
ROOT
ATOM      1  C   UNL     1       0.683  -6.283  -0.036  0.00  0.00    +0.193 A 
ATOM      2  C   UNL     1      -0.076  -7.418  -0.045  0.00  0.00    +0.011 A 
ATOM      3  C   UNL     1       0.827  -8.492  -0.052  0.00  0.00    +0.062 A 
ATOM      4  C   UNL     1       2.108  -7.951  -0.045  0.00  0.00    +0.117 A 
ATOM      5  O   UNL     1       1.990  -6.630  -0.044  0.00  0.00    -0.454 OA
ATOM      6  C   UNL     1       3.353  -8.801  -0.042  0.00  0.00    +0.075 C 
ATOM      7  C   UNL     1       3.005 -10.206   0.456  0.00  0.00    +0.016 C 
ATOM      8  C   UNL     1       1.834 -10.789  -0.342  0.00  0.00    +0.080 C 
ATOM      9  C   UNL     1       0.599  -9.945  -0.066  0.00  0.00    +0.167 C 
ATOM     10  O   UNL     1      -0.494 -10.435   0.128  0.00  0.00    -0.292 OA
ATOM     11  C   UNL     1      -1.581  -7.500  -0.046  0.00  0.00    +0.048 C 
ENDROOT
BRANCH   1  19
ATOM     12  C   UNL     1      -0.018   1.503   0.010  0.00  0.00    +0.053 C 
ATOM     13  C   UNL     1       0.002  -0.004   0.002  0.00  0.00    +0.008 A 
ATOM     14  C   UNL     1      -1.030  -0.883   0.002  0.00  0.00    +0.124 A 
ATOM     15  N   UNL     1      -0.725  -2.167  -0.007  0.00  0.00    -0.233 NA
ATOM     16  C   UNL     1       0.528  -2.568  -0.015  0.00  0.00    +0.165 A 
ATOM     17  S   UNL     1       1.393  -1.124  -0.018  0.00  0.00    -0.057 S 
ATOM     18  N   UNL     1       1.019  -3.867  -0.024  0.00  0.00    -0.258 N 
ATOM     19  C   UNL     1       0.165  -4.910  -0.026  0.00  0.00    +0.285 C 
ATOM     20  O   UNL     1      -1.036  -4.713  -0.020  0.00  0.00    -0.266 OA
ATOM     21  H   UNL     1       1.976  -4.024  -0.029  0.00  0.00    +0.157 HD
ENDBRANCH   1  19
TORSDOF 1
