REMARK  Name = ZINC12495744
REMARK  10 active torsions:
REMARK  status: ('A' for Active; 'I' for Inactive)
REMARK    1  A    between atoms: C_1  and  C_2
REMARK    2  A    between atoms: C_2  and  O_3
REMARK    3  A    between atoms: O_3  and  C_4
REMARK    4  A    between atoms: C_4  and  C_6
REMARK    5  A    between atoms: C_6  and  C_28
REMARK    6  A    between atoms: C_11  and  C_13
REMARK    7  A    between atoms: C_16  and  N_19
REMARK    8  A    between atoms: N_19  and  C_20
REMARK    9  A    between atoms: N_19  and  C_21
REMARK   10  A    between atoms: N_24  and  C_27
REMARK                            x       y       z     vdW  Elec       q    Type
REMARK                         _______ _______ _______ _____ _____    ______ ____
ROOT
ATOM      1  C   UNL     1       0.013  -0.011   0.008  0.00  0.00    +0.070 C 
ATOM      2  C   UNL     1      -1.270  -0.533  -0.614  0.00  0.00    +0.090 C 
ATOM      3  C   UNL     1      -0.833  -0.478  -2.129  0.00  0.00    +0.077 C 
ATOM      4  C   UNL     1       0.484  -1.140  -2.082  0.00  0.00    -0.026 C 
ATOM      5  C   UNL     1      -2.107  -0.609  -2.797  0.00  0.00    +0.224 C 
ATOM      6  O   UNL     1      -2.336  -1.175  -3.845  0.00  0.00    -0.275 OA
ATOM      7  N   UNL     1      -3.002   0.045  -1.987  0.00  0.00    -0.245 N 
ATOM      8  C   UNL     1      -2.488   0.323  -0.750  0.00  0.00    +0.225 C 
ATOM      9  O   UNL     1      -2.930   1.102   0.067  0.00  0.00    -0.275 OA
ATOM     10  C   UNL     1      -4.360   0.405  -2.402  0.00  0.00    +0.141 C 
ATOM     11  N   UNL     1       1.103  -0.515  -0.870  0.00  0.00    +0.398 N 
ATOM     12  H   UNL     1       1.659  -1.215  -0.364  0.00  0.00    -0.083 HD
ATOM     13  H   UNL     1       1.709   0.264  -1.152  0.00  0.00    -0.083 HD
ENDROOT
BRANCH   4  14
ATOM     14  C   UNL     1       1.282  -0.835  -3.324  0.00  0.00    -0.060 A 
ATOM     15  C   UNL     1       1.945   0.373  -3.438  0.00  0.00    +0.004 A 
ATOM     16  C   UNL     1       2.682   0.654  -4.572  0.00  0.00    +0.023 A 
ATOM     17  C   UNL     1       2.747  -0.274  -5.603  0.00  0.00    +0.029 A 
ATOM     18  C   UNL     1       2.076  -1.485  -5.487  0.00  0.00    +0.023 A 
ATOM     19  C   UNL     1       1.345  -1.761  -4.348  0.00  0.00    +0.004 A 
BRANCH  17  20
ATOM     20  N   UNL     1       3.487   0.008  -6.753  0.00  0.00    -0.336 N 
ATOM     21  C   UNL     1       3.660  -1.018  -7.784  0.00  0.00    +0.129 C 
ATOM     22  C   UNL     1       4.091   1.332  -6.929  0.00  0.00    +0.129 C 
ENDBRANCH  17  20
ENDBRANCH   4  14
BRANCH   1  23
ATOM     23  C   UNL     1       0.171  -0.548   1.407  0.00  0.00    -0.047 A 
ATOM     24  C   UNL     1      -0.947  -0.808   2.178  0.00  0.00    +0.003 A 
ATOM     25  C   UNL     1      -0.802  -1.304   3.460  0.00  0.00    +0.000 A 
ATOM     26  C   UNL     1       0.461  -1.532   3.974  0.00  0.00    +0.000 A 
ATOM     27  C   UNL     1       1.579  -1.267   3.205  0.00  0.00    +0.000 A 
ATOM     28  C   UNL     1       1.434  -0.775   1.922  0.00  0.00    +0.003 A 
ENDBRANCH   1  23
BRANCH   1  29
ATOM     29  C   UNL     1       0.008   1.496   0.025  0.00  0.00    +0.301 C 
ATOM     30  O   UNL     1      -1.040   2.097   0.039  0.00  0.00    -0.252 OA
BRANCH  29  31
ATOM     31  O   UNL     1       1.168   2.171   0.020  0.00  0.00    -0.466 OA
BRANCH  31  33
ATOM     32  C   UNL     1       2.499   4.211   0.029  0.00  0.00    +0.048 C 
ATOM     33  C   UNL     1       1.087   3.621   0.038  0.00  0.00    +0.228 C 
ENDBRANCH  31  33
ENDBRANCH  29  31
ENDBRANCH   1  29
TORSDOF 6
