REMARK  Name = ZINC03291550
REMARK  6 active torsions:
REMARK  status: ('A' for Active; 'I' for Inactive)
REMARK    1  A    between atoms: C_1  and  C_2
REMARK    2  A    between atoms: C_5  and  S_9
REMARK    3  A    between atoms: C_7  and  C_8
REMARK    4  A    between atoms: S_9  and  N_12
REMARK    5  A    between atoms: N_12  and  C_13
REMARK    6  A    between atoms: C_16  and  C_19
REMARK                            x       y       z     vdW  Elec       q    Type
REMARK                         _______ _______ _______ _____ _____    ______ ____
ROOT
ATOM      1  C   UNL     1      -1.190  -1.742  -2.425  0.00  0.00    +0.048 A 
ATOM      2  C   UNL     1       0.197  -1.664  -2.381  0.00  0.00    +0.025 A 
ATOM      3  C   UNL     1       0.958  -2.376  -3.283  0.00  0.00    +0.013 A 
ATOM      4  C   UNL     1       0.333  -3.166  -4.249  0.00  0.00    +0.019 A 
ATOM      5  C   UNL     1      -1.060  -3.238  -4.295  0.00  0.00    +0.013 A 
ATOM      6  C   UNL     1      -1.815  -2.529  -3.386  0.00  0.00    +0.025 A 
ENDROOT
BRANCH   4   7
ATOM      7  C   UNL     1       1.146  -3.927  -5.222  0.00  0.00    +0.164 A 
ATOM      8  N   UNL     1       0.751  -4.957  -5.940  0.00  0.00    -0.129 NA
ATOM      9  N   UNL     1       1.717  -5.364  -6.687  0.00  0.00    -0.134 NA
ATOM     10  C   UNL     1       2.774  -4.628  -6.486  0.00  0.00    +0.134 A 
ATOM     11  N   UNL     1       2.452  -3.700  -5.545  0.00  0.00    -0.311 N 
ATOM     12  C   UNL     1       3.340  -2.678  -4.991  0.00  0.00    +0.125 C 
ATOM     13  C   UNL     1       4.405  -2.314  -6.029  0.00  0.00    +0.022 C 
ATOM     14  C   UNL     1       5.615  -3.233  -5.872  0.00  0.00    +0.002 C 
ATOM     15  C   UNL     1       5.219  -4.687  -6.109  0.00  0.00    +0.008 C 
ATOM     16  C   UNL     1       4.113  -4.753  -7.167  0.00  0.00    +0.076 C 
ENDBRANCH   4   7
BRANCH   1  17
ATOM     17  N   UNL     1      -1.957  -1.024  -1.507  0.00  0.00    -0.216 N 
ATOM     18  H   UNL     1      -2.048  -0.063  -1.597  0.00  0.00    +0.174 HD
BRANCH  17  19
ATOM     19  S   UNL     1      -2.713  -1.814  -0.263  0.00  0.00    +0.072 S 
ATOM     20  O   UNL     1      -3.425  -2.898  -0.843  0.00  0.00    -0.150 OA
ATOM     21  O   UNL     1      -3.351  -0.817   0.523  0.00  0.00    -0.150 OA
BRANCH  19  26
ATOM     22  C   UNL     1       1.600  -4.236   3.192  0.00  0.00    +0.044 C 
ATOM     23  C   UNL     1       0.522  -3.631   2.329  0.00  0.00    -0.047 A 
ATOM     24  C   UNL     1      -0.084  -4.391   1.347  0.00  0.00    +0.005 A 
ATOM     25  C   UNL     1      -1.072  -3.836   0.555  0.00  0.00    +0.029 A 
ATOM     26  C   UNL     1      -1.454  -2.522   0.746  0.00  0.00    +0.109 A 
ATOM     27  C   UNL     1      -0.848  -1.762   1.729  0.00  0.00    +0.032 A 
ATOM     28  C   UNL     1       0.140  -2.317   2.521  0.00  0.00    -0.046 A 
ATOM     29  C   UNL     1       0.801  -1.489   3.593  0.00  0.00    +0.044 C 
ENDBRANCH  19  26
ENDBRANCH  17  19
ENDBRANCH   1  17
TORSDOF 4
