REMARK  Name = ZINC60374818
REMARK  5 active torsions:
REMARK  status: ('A' for Active; 'I' for Inactive)
REMARK    1  A    between atoms: C_1  and  C_2
REMARK    2  A    between atoms: C_2  and  C_25
REMARK    3  A    between atoms: N_5  and  C_9
REMARK    4  A    between atoms: C_9  and  C_10
REMARK    5  A    between atoms: C_20  and  N_22
REMARK                            x       y       z     vdW  Elec       q    Type
REMARK                         _______ _______ _______ _____ _____    ______ ____
ROOT
ATOM      1  C   UNL     1      -2.611  -1.978   1.748  0.00  0.00    +0.214 C 
ENDROOT
BRANCH   1   2
ATOM      2  C   UNL     1      -2.601  -3.391   1.225  0.00  0.00    +0.238 C 
ATOM      3  O   UNL     1      -1.751  -3.738   0.433  0.00  0.00    -0.274 OA
ATOM      4  N   UNL     1      -3.537  -4.269   1.638  0.00  0.00    -0.270 N 
ATOM      5  C   UNL     1      -4.622  -3.840   2.530  0.00  0.00    +0.114 C 
ATOM      6  C   UNL     1      -4.775  -4.902   3.627  0.00  0.00    +0.024 C 
ATOM      7  C   UNL     1      -5.194  -6.222   2.980  0.00  0.00    +0.038 C 
ATOM      8  C   UNL     1      -4.269  -6.571   1.845  0.00  0.00    -0.024 A 
ATOM      9  C   UNL     1      -3.493  -5.606   1.219  0.00  0.00    +0.040 A 
ATOM     10  C   UNL     1      -2.656  -5.959   0.167  0.00  0.00    +0.026 A 
ATOM     11  C   UNL     1      -2.597  -7.271  -0.259  0.00  0.00    +0.034 A 
ATOM     12  C   UNL     1      -3.371  -8.233   0.362  0.00  0.00    +0.127 A 
ATOM     13  C   UNL     1      -4.199  -7.886   1.417  0.00  0.00    +0.038 A 
BRANCH  12  14
ATOM     14  N   UNL     1      -3.307  -9.640  -0.093  0.00  0.00    +0.056 N 
ATOM     15  O   UNL     1      -2.579  -9.947  -1.008  0.00  0.00    -0.126 OA
ATOM     16  O   UNL     1      -3.984 -10.483   0.450  0.00  0.00    -0.126 OA
ENDBRANCH  12  14
ENDBRANCH   1   2
BRANCH   1  21
ATOM     17  C   UNL     1      -0.036   1.525  -0.032  0.00  0.00    +0.047 C 
ATOM     18  C   UNL     1      -0.005  -0.005  -0.015  0.00  0.00    +0.141 C 
ATOM     19  C   UNL     1      -1.409  -0.567   0.092  0.00  0.00    +0.252 C 
ATOM     20  O   UNL     1      -2.318  -0.420  -0.696  0.00  0.00    -0.272 OA
ATOM     21  N   UNL     1      -1.435  -1.263   1.246  0.00  0.00    -0.215 N 
ATOM     22  C   UNL     1      -0.256  -1.220   1.876  0.00  0.00    +0.310 C 
ATOM     23  O   UNL     1      -0.036  -1.773   2.936  0.00  0.00    -0.252 OA
ATOM     24  N   UNL     1       0.659  -0.496   1.206  0.00  0.00    -0.281 N 
ATOM     25  H   UNL     1       1.576  -0.330   1.473  0.00  0.00    +0.152 HD
BRANCH  18  26
ATOM     26  C   UNL     1       0.689  -0.533  -1.244  0.00  0.00    +0.023 A 
ATOM     27  C   UNL     1       2.004  -0.800  -1.433  0.00  0.00    +0.015 A 
ATOM     28  C   UNL     1       2.420  -1.284  -2.660  0.00  0.00    +0.028 A 
ATOM     29  C   UNL     1       1.499  -1.477  -3.637  0.00  0.00    +0.078 A 
ATOM     30  S   UNL     1      -0.010  -0.976  -2.826  0.00  0.00    -0.079 S 
ATOM     31 CL   UNL     1       1.728  -2.066  -5.254  0.00  0.00    -0.076 Cl
ENDBRANCH  18  26
ENDBRANCH   1  21
TORSDOF 4
