REMARK  Name = ZINC40783698
REMARK  6 active torsions:
REMARK  status: ('A' for Active; 'I' for Inactive)
REMARK    1  A    between atoms: C_1  and  C_2
REMARK    2  A    between atoms: C_10  and  N_29
REMARK    3  A    between atoms: C_11  and  N_15
REMARK    4  A    between atoms: N_15  and  C_16
REMARK    5  A    between atoms: C_16  and  C_17
REMARK    6  A    between atoms: C_16  and  C_23
REMARK                            x       y       z     vdW  Elec       q    Type
REMARK                         _______ _______ _______ _____ _____    ______ ____
ROOT
ATOM      1  C   UNL     1      -0.005   1.496  -0.186  0.00  0.00    +0.045 C 
ATOM      2  C   UNL     1       0.013  -0.006  -0.066  0.00  0.00    -0.032 A 
ATOM      3  C   UNL     1       0.020  -0.610   1.185  0.00  0.00    +0.008 A 
ATOM      4  C   UNL     1       0.035  -1.991   1.251  0.00  0.00    +0.044 A 
ATOM      5  C   UNL     1       0.043  -2.725   0.069  0.00  0.00    +0.124 A 
ATOM      6  N   UNL     1       0.036  -2.113  -1.105  0.00  0.00    -0.240 NA
ATOM      7  C   UNL     1       0.016  -0.796  -1.198  0.00  0.00    +0.116 A 
ATOM      8  N   UNL     1       0.059  -4.116   0.121  0.00  0.00    -0.283 N 
ATOM      9  C   UNL     1      -0.041  -4.857  -1.052  0.00  0.00    +0.150 A 
ATOM     10  C   UNL     1      -0.134  -6.249  -1.005  0.00  0.00    +0.106 A 
ATOM     11  C   UNL     1      -0.233  -6.944  -2.212  0.00  0.00    +0.145 A 
ATOM     12  N   UNL     1      -0.235  -6.258  -3.353  0.00  0.00    -0.219 NA
ATOM     13  C   UNL     1      -0.146  -4.943  -3.353  0.00  0.00    +0.225 A 
ATOM     14  N   UNL     1      -0.057  -4.249  -2.236  0.00  0.00    -0.219 NA
ATOM     15  H   UNL     1       0.141  -4.568   0.975  0.00  0.00    +0.155 HD
ENDROOT
BRANCH  10  16
ATOM     16  N   UNL     1      -0.127  -6.931   0.222  0.00  0.00    -0.353 N 
ATOM     17  H   UNL     1      -0.057  -6.435   1.052  0.00  0.00    +0.143 HD
ATOM     18  H   UNL     1      -0.191  -7.899   0.239  0.00  0.00    +0.143 HD
ENDBRANCH  10  16
BRANCH  11  19
ATOM     19  N   UNL     1      -0.327  -8.330  -2.222  0.00  0.00    -0.317 N 
ATOM     20  H   UNL     1      -0.324  -8.823  -1.387  0.00  0.00    +0.148 HD
BRANCH  19  21
ATOM     21  C   UNL     1      -0.430  -9.048  -3.495  0.00  0.00    +0.132 C 
BRANCH  21  22
ATOM     22  C   UNL     1       0.950  -9.282  -4.054  0.00  0.00    -0.023 A 
ATOM     23  C   UNL     1       1.985  -9.639  -3.211  0.00  0.00    +0.006 A 
ATOM     24  C   UNL     1       3.251  -9.853  -3.723  0.00  0.00    +0.000 A 
ATOM     25  C   UNL     1       3.482  -9.711  -5.079  0.00  0.00    +0.000 A 
ATOM     26  C   UNL     1       2.446  -9.355  -5.922  0.00  0.00    +0.000 A 
ATOM     27  C   UNL     1       1.179  -9.144  -5.410  0.00  0.00    +0.006 A 
ENDBRANCH  21  22
BRANCH  21  28
ATOM     28  C   UNL     1      -1.112 -10.373  -3.271  0.00  0.00    -0.023 A 
ATOM     29  C   UNL     1      -0.824 -11.116  -2.141  0.00  0.00    +0.006 A 
ATOM     30  C   UNL     1      -1.450 -12.331  -1.935  0.00  0.00    +0.000 A 
ATOM     31  C   UNL     1      -2.364 -12.803  -2.859  0.00  0.00    +0.000 A 
ATOM     32  C   UNL     1      -2.652 -12.060  -3.988  0.00  0.00    +0.000 A 
ATOM     33  C   UNL     1      -2.030 -10.843  -4.192  0.00  0.00    +0.006 A 
ENDBRANCH  21  28
ENDBRANCH  19  21
ENDBRANCH  11  19
TORSDOF 5
