REMARK  Name = ZINC49066138
REMARK  10 active torsions:
REMARK  status: ('A' for Active; 'I' for Inactive)
REMARK    1  A    between atoms: C_1  and  C_2
REMARK    2  A    between atoms: C_2  and  C_4
REMARK    3  A    between atoms: C_2  and  N_7
REMARK    4  A    between atoms: C_4  and  C_5
REMARK    5  A    between atoms: C_4  and  C_6
REMARK    6  A    between atoms: C_8  and  C_10
REMARK    7  A    between atoms: C_10  and  N_11
REMARK    8  A    between atoms: N_11  and  C_12
REMARK    9  A    between atoms: N_11  and  S_13
REMARK   10  A    between atoms: S_13  and  C_16
REMARK                            x       y       z     vdW  Elec       q    Type
REMARK                         _______ _______ _______ _____ _____    ______ ____
ROOT
ATOM      1  N   UNL     1       4.223  -1.127   2.126  0.00  0.00    -0.170 NA
ATOM      2  C   UNL     1       5.027   0.083   2.314  0.00  0.00    +0.132 C 
ENDROOT
BRANCH   1   3
ATOM      3  S   UNL     1       4.941  -2.527   1.611  0.00  0.00    +0.067 S 
ATOM      4  O   UNL     1       6.314  -2.434   1.968  0.00  0.00    -0.152 OA
ATOM      5  O   UNL     1       4.111  -3.595   2.047  0.00  0.00    -0.152 OA
BRANCH   3   6
ATOM      6  C   UNL     1       4.878  -2.528  -0.150  0.00  0.00    +0.144 A 
ATOM      7  C   UNL     1       5.781  -2.042  -1.036  0.00  0.00    +0.037 A 
ATOM      8  C   UNL     1       5.519  -2.153  -2.389  0.00  0.00    +0.025 A 
ATOM      9  C   UNL     1       4.366  -2.745  -2.789  0.00  0.00    +0.057 A 
ATOM     10  S   UNL     1       3.612  -3.175  -1.229  0.00  0.00    -0.062 S 
ATOM     11 BR   UNL     1       3.727  -3.044  -4.544  0.00  0.00    -0.043 Br
ENDBRANCH   3   6
ENDBRANCH   1   3
BRANCH   1  12
ATOM     12  C   UNL     1       2.783  -1.099   2.395  0.00  0.00    +0.204 C 
BRANCH  12  14
ATOM     13  N   UNL     1       0.711  -0.489   1.189  0.00  0.00    -0.311 N 
ATOM     14  C   UNL     1       2.054  -0.600   1.174  0.00  0.00    +0.229 C 
ATOM     15  O   UNL     1       2.676  -0.297   0.177  0.00  0.00    -0.274 OA
ATOM     16  H   UNL     1       0.213  -0.731   1.986  0.00  0.00    +0.149 HD
BRANCH  13  18
ATOM     17  C   UNL     1      -0.019   1.526   0.010  0.00  0.00    +0.028 C 
ATOM     18  C   UNL     1       0.002  -0.004   0.002  0.00  0.00    +0.072 C 
BRANCH  18  19
ATOM     19  C   UNL     1      -1.433  -0.534   0.013  0.00  0.00    +0.003 C 
ATOM     20  C   UNL     1      -2.187   0.060   1.205  0.00  0.00    +0.009 C 
ATOM     21  C   UNL     1      -2.135  -0.131  -1.286  0.00  0.00    +0.009 C 
ENDBRANCH  18  19
ENDBRANCH  13  18
ENDBRANCH  12  14
ENDBRANCH   1  12
TORSDOF 6
