REMARK  Name = ZINC23039047
REMARK  12 active torsions:
REMARK  status: ('A' for Active; 'I' for Inactive)
REMARK    1  A    between atoms: C_1  and  C_2
REMARK    2  A    between atoms: C_2  and  C_3
REMARK    3  A    between atoms: C_3  and  C_28
REMARK    4  A    between atoms: N_6  and  N_10
REMARK    5  A    between atoms: C_11  and  C_13
REMARK    6  A    between atoms: C_13  and  N_14
REMARK    7  A    between atoms: N_14  and  C_15
REMARK    8  A    between atoms: N_14  and  C_16
REMARK    9  A    between atoms: C_16  and  C_17
REMARK   10  A    between atoms: N_19  and  C_20
REMARK   11  A    between atoms: C_24  and  C_27
REMARK   12  A    between atoms: C_25  and  C_26
REMARK                            x       y       z     vdW  Elec       q    Type
REMARK                         _______ _______ _______ _____ _____    ______ ____
ROOT
ATOM      1  N   UNL     1      -3.741   1.709  -2.679  0.00  0.00    -0.225 N 
ATOM      2  C   UNL     1      -3.788   0.599  -3.442  0.00  0.00    +0.213 C 
ATOM      3  O   UNL     1      -3.150  -0.383  -3.125  0.00  0.00    -0.276 OA
ATOM      4  H   UNL     1      -4.319   2.599  -2.967  0.00  0.00    +0.173 HD
ENDROOT
BRANCH   1   8
ATOM      5  C   UNL     1      -1.294   2.120  -0.000  0.00  0.00    +0.139 C 
ATOM      6  C   UNL     1      -1.774   2.371  -1.416  0.00  0.00    +0.268 C 
ATOM      7  O   UNL     1      -1.213   3.015  -2.277  0.00  0.00    -0.271 OA
ATOM      8  N   UNL     1      -2.955   1.729  -1.520  0.00  0.00    -0.137 N 
ATOM      9  C   UNL     1      -3.284   1.114  -0.378  0.00  0.00    +0.327 C 
ATOM     10  O   UNL     1      -4.303   0.470  -0.227  0.00  0.00    -0.251 OA
ATOM     11  N   UNL     1      -2.360   1.288   0.584  0.00  0.00    -0.280 N 
ATOM     12  H   UNL     1      -2.281   0.946   1.627  0.00  0.00    +0.152 HD
BRANCH   5  13
ATOM     13  C   UNL     1       0.016   1.375  -0.009  0.00  0.00    -0.015 A 
ATOM     14  C   UNL     1       1.208   2.074  -0.020  0.00  0.00    +0.006 A 
ATOM     15  C   UNL     1       2.410   1.391  -0.035  0.00  0.00    +0.000 A 
ATOM     16  C   UNL     1       2.419   0.009  -0.037  0.00  0.00    +0.000 A 
ATOM     17  C   UNL     1       1.226  -0.690  -0.025  0.00  0.00    +0.000 A 
ATOM     18  C   UNL     1       0.025  -0.007  -0.011  0.00  0.00    +0.006 A 
ENDBRANCH   5  13
BRANCH   5  20
ATOM     19  C   UNL     1      -2.526   4.115   0.864  0.00  0.00    +0.007 C 
ATOM     20  C   UNL     1      -1.157   3.439   0.763  0.00  0.00    +0.037 C 
ENDBRANCH   5  20
ENDBRANCH   1   8
BRANCH   2  21
ATOM     21  C   UNL     1      -4.633   0.577  -4.690  0.00  0.00    +0.020 C 
BRANCH  21  22
ATOM     22  N   UNL     1      -4.515  -0.735  -5.339  0.00  0.00    +0.389 N 
ATOM     23  C   UNL     1      -5.100  -1.791  -4.501  0.00  0.00    -0.095 C 
ATOM     24  H   UNL     1      -3.444  -0.956  -5.462  0.00  0.00    -0.081 HD
BRANCH  22  25
ATOM     25  C   UNL     1      -5.129  -0.720  -6.673  0.00  0.00    +0.019 C 
BRANCH  25  26
ATOM     26  C   UNL     1      -4.779  -1.992  -7.402  0.00  0.00    +0.201 C 
ATOM     27  O   UNL     1      -4.085  -2.828  -6.863  0.00  0.00    -0.278 OA
ATOM     28  N   UNL     1      -5.236  -2.199  -8.653  0.00  0.00    -0.287 N 
ATOM     29  H   UNL     1      -5.937  -1.485  -9.107  0.00  0.00    +0.155 HD
BRANCH  28  30
ATOM     30  C   UNL     1      -4.817  -3.324  -9.373  0.00  0.00    +0.036 A 
ATOM     31  C   UNL     1      -3.605  -3.932  -9.072  0.00  0.00    +0.023 A 
ATOM     32  C   UNL     1      -3.195  -5.041  -9.784  0.00  0.00    +0.002 A 
ATOM     33  C   UNL     1      -3.990  -5.547 -10.797  0.00  0.00    +0.004 A 
ATOM     34  C   UNL     1      -5.197  -4.945 -11.098  0.00  0.00    -0.046 A 
ATOM     35  C   UNL     1      -5.615  -3.838 -10.386  0.00  0.00    -0.026 A 
ATOM     36  C   UNL     1      -6.934  -3.186 -10.711  0.00  0.00    +0.046 C 
ATOM     37  C   UNL     1      -6.060  -5.500 -12.202  0.00  0.00    +0.044 C 
ENDBRANCH  28  30
ENDBRANCH  25  26
ENDBRANCH  22  25
ENDBRANCH  21  22
ENDBRANCH   2  21
TORSDOF 8
