REMARK  Name = ZINC08917093
REMARK  12 active torsions:
REMARK  status: ('A' for Active; 'I' for Inactive)
REMARK    1  A    between atoms: C_1  and  C_2
REMARK    2  A    between atoms: N_15  and  C_27
REMARK    3  A    between atoms: C_16  and  C_18
REMARK    4  A    between atoms: C_21  and  O_26
REMARK    5  A    between atoms: C_22  and  O_24
REMARK    6  A    between atoms: O_24  and  C_25
REMARK    7  A    between atoms: C_27  and  C_28
REMARK    8  A    between atoms: C_28  and  C_29
REMARK    9  A    between atoms: C_32  and  O_37
REMARK   10  A    between atoms: C_33  and  O_35
REMARK   11  A    between atoms: O_35  and  C_36
REMARK   12  A    between atoms: O_37  and  C_38
REMARK                            x       y       z     vdW  Elec       q    Type
REMARK                         _______ _______ _______ _____ _____    ______ ____
ROOT
ATOM      1  C   UNL     1      -4.966   2.925   5.718  0.00  0.00    +0.044 C 
ATOM      2  C   UNL     1      -3.637   3.028   5.014  0.00  0.00    -0.050 A 
ATOM      3  C   UNL     1      -2.608   3.762   5.587  0.00  0.00    +0.007 A 
ATOM      4  C   UNL     1      -1.385   3.870   4.961  0.00  0.00    +0.047 A 
ATOM      5  C   UNL     1      -1.174   3.238   3.739  0.00  0.00    +0.139 A 
ATOM      6  C   UNL     1      -2.222   2.497   3.167  0.00  0.00    +0.065 A 
ATOM      7  C   UNL     1      -3.453   2.399   3.814  0.00  0.00    +0.018 A 
ATOM      8  C   UNL     1      -1.978   1.834   1.870  0.00  0.00    +0.199 A 
ATOM      9  O   UNL     1      -2.841   1.176   1.316  0.00  0.00    -0.287 OA
ATOM     10  C   UNL     1      -0.646   2.006   1.284  0.00  0.00    +0.072 A 
ATOM     11  C   UNL     1       0.286   2.747   1.932  0.00  0.00    +0.199 A 
ATOM     12  O   UNL     1       0.014   3.333   3.115  0.00  0.00    -0.450 OA
ATOM     13  C   UNL     1       1.528   2.751   1.119  0.00  0.00    +0.283 C 
ATOM     14  O   UNL     1       2.555   3.325   1.422  0.00  0.00    -0.267 OA
ATOM     15  N   UNL     1       1.353   2.027   0.000  0.00  0.00    -0.283 N 
ATOM     16  C   UNL     1      -0.018   1.503   0.010  0.00  0.00    +0.145 C 
ENDROOT
BRANCH  16  17
ATOM     17  C   UNL     1       0.002  -0.004   0.002  0.00  0.00    -0.019 A 
ATOM     18  C   UNL     1       0.936  -0.685   0.760  0.00  0.00    +0.009 A 
ATOM     19  C   UNL     1       0.959  -2.068   0.756  0.00  0.00    +0.049 A 
ATOM     20  C   UNL     1       0.043  -2.773  -0.008  0.00  0.00    +0.158 A 
ATOM     21  C   UNL     1      -0.897  -2.087  -0.771  0.00  0.00    +0.162 A 
ATOM     22  C   UNL     1      -0.917  -0.702  -0.759  0.00  0.00    +0.055 A 
BRANCH  21  23
ATOM     23  O   UNL     1      -1.797  -2.776  -1.523  0.00  0.00    -0.491 OA
ATOM     24  C   UNL     1      -2.733  -2.006  -2.281  0.00  0.00    +0.277 C 
ENDBRANCH  21  23
BRANCH  20  25
ATOM     25  O   UNL     1       0.064  -4.133  -0.013  0.00  0.00    -0.503 OA
ATOM     26  H   UNL     1      -0.492  -4.537   0.668  0.00  0.00    +0.292 HD
ENDBRANCH  20  25
ENDBRANCH  16  17
BRANCH  15  27
ATOM     27  C   UNL     1       2.354   1.802  -1.046  0.00  0.00    +0.114 C 
BRANCH  27  28
ATOM     28  C   UNL     1       2.245   2.905  -2.101  0.00  0.00    +0.054 C 
BRANCH  28  29
ATOM     29  C   UNL     1       3.275   2.673  -3.177  0.00  0.00    -0.042 A 
ATOM     30  C   UNL     1       4.532   3.235  -3.061  0.00  0.00    +0.007 A 
ATOM     31  C   UNL     1       5.482   3.021  -4.042  0.00  0.00    +0.049 A 
ATOM     32  C   UNL     1       5.171   2.251  -5.151  0.00  0.00    +0.161 A 
ATOM     33  C   UNL     1       3.903   1.690  -5.271  0.00  0.00    +0.162 A 
ATOM     34  C   UNL     1       2.957   1.904  -4.281  0.00  0.00    +0.053 A 
BRANCH  33  35
ATOM     35  O   UNL     1       3.592   0.934  -6.358  0.00  0.00    -0.491 OA
ATOM     36  C   UNL     1       2.272   0.390  -6.414  0.00  0.00    +0.277 C 
ENDBRANCH  33  35
BRANCH  32  37
ATOM     37  O   UNL     1       6.102   2.044  -6.121  0.00  0.00    -0.491 OA
ATOM     38  C   UNL     1       7.382   2.651  -5.931  0.00  0.00    +0.277 C 
ENDBRANCH  32  37
ENDBRANCH  28  29
ENDBRANCH  27  28
ENDBRANCH  15  27
TORSDOF 8
