REMARK  Name = ZINC01246122
REMARK  7 active torsions:
REMARK  status: ('A' for Active; 'I' for Inactive)
REMARK    1  A    between atoms: C_1  and  C_2
REMARK    2  A    between atoms: C_2  and  O_3
REMARK    3  A    between atoms: O_3  and  C_4
REMARK    4  A    between atoms: C_8  and  C_10
REMARK    5  A    between atoms: N_16  and  N_17
REMARK    6  A    between atoms: C_18  and  C_19
REMARK    7  A    between atoms: C_24  and  O_25
REMARK                            x       y       z     vdW  Elec       q    Type
REMARK                         _______ _______ _______ _____ _____    ______ ____
ROOT
ATOM      1  C   UNL     1      -0.076   5.327   0.032  0.00  0.00    +0.184 A 
ATOM      2  N   UNL     1       0.931   6.108  -0.247  0.00  0.00    -0.152 NA
ATOM      3  N   UNL     1       0.498   7.435  -0.126  0.00  0.00    -0.253 N 
ATOM      4  H   UNL     1       1.035   8.229  -0.274  0.00  0.00    +0.191 HD
ATOM      5  C   UNL     1      -0.801   7.407   0.235  0.00  0.00    +0.197 A 
ATOM      6  S   UNL     1      -1.801   8.768   0.515  0.00  0.00    -0.010 S 
ATOM      7  N   UNL     1      -1.171   6.115   0.332  0.00  0.00    -0.188 N 
ENDROOT
BRANCH   1  12
ATOM      8  C   UNL     1       1.182   1.784   0.000  0.00  0.00    +0.121 A 
ATOM      9  C   UNL     1      -0.013   1.076   0.008  0.00  0.00    +0.045 A 
ATOM     10  C   UNL     1      -1.220   1.748   0.017  0.00  0.00    +0.004 A 
ATOM     11  C   UNL     1      -1.246   3.128   0.031  0.00  0.00    +0.012 A 
ATOM     12  C   UNL     1      -0.051   3.848   0.023  0.00  0.00    +0.024 A 
ATOM     13  C   UNL     1       1.166   3.168   0.008  0.00  0.00    +0.057 A 
BRANCH   8  14
ATOM     14  O   UNL     1       2.366   1.118  -0.014  0.00  0.00    -0.492 OA
BRANCH  14  16
ATOM     15  C   UNL     1       3.728  -0.878  -0.037  0.00  0.00    +0.048 C 
ATOM     16  C   UNL     1       2.308  -0.310  -0.021  0.00  0.00    +0.225 C 
ENDBRANCH  14  16
ENDBRANCH   8  14
ENDBRANCH   1  12
BRANCH   7  17
ATOM     17  N   UNL     1      -2.446   5.650   0.679  0.00  0.00    -0.170 NA
ATOM     18  C   UNL     1      -2.741   5.433   1.925  0.00  0.00    +0.145 C 
BRANCH  18  19
ATOM     19  C   UNL     1      -4.082   4.944   2.290  0.00  0.00    +0.037 A 
ATOM     20  C   UNL     1      -4.403   4.710   3.630  0.00  0.00    +0.028 A 
ATOM     21  C   UNL     1      -5.661   4.252   3.965  0.00  0.00    +0.019 A 
ATOM     22  C   UNL     1      -6.607   4.024   2.978  0.00  0.00    +0.019 A 
ATOM     23  C   UNL     1      -6.301   4.252   1.650  0.00  0.00    +0.047 A 
ATOM     24  C   UNL     1      -5.044   4.717   1.297  0.00  0.00    +0.126 A 
ATOM     25 BR   UNL     1      -6.095   3.935   5.778  0.00  0.00    -0.050 Br
BRANCH  24  26
ATOM     26  O   UNL     1      -4.744   4.946  -0.008  0.00  0.00    -0.506 OA
ATOM     27  H   UNL     1      -4.376   4.179  -0.468  0.00  0.00    +0.292 HD
ENDBRANCH  24  26
ENDBRANCH  18  19
ENDBRANCH   7  17
TORSDOF 6
