REMARK  Name = ZINC00871385
REMARK  13 active torsions:
REMARK  status: ('A' for Active; 'I' for Inactive)
REMARK    1  A    between atoms: C_1  and  C_2
REMARK    2  A    between atoms: C_5  and  N_9
REMARK    3  A    between atoms: C_6  and  C_8
REMARK    4  A    between atoms: C_10  and  C_12
REMARK    5  A    between atoms: C_13  and  C_34
REMARK    6  A    between atoms: C_14  and  C_30
REMARK    7  A    between atoms: C_15  and  N_17
REMARK    8  A    between atoms: C_18  and  C_20
REMARK    9  A    between atoms: C_20  and  O_21
REMARK   10  A    between atoms: O_21  and  C_22
REMARK   11  A    between atoms: C_27  and  C_28
REMARK   12  A    between atoms: C_30  and  O_32
REMARK   13  A    between atoms: O_32  and  C_33
REMARK                            x       y       z     vdW  Elec       q    Type
REMARK                         _______ _______ _______ _____ _____    ______ ____
ROOT
ATOM      1  C   UNL     1       7.814  -3.228  -0.076  0.00  0.00    +0.080 A 
ATOM      2  C   UNL     1       6.962  -4.300  -0.069  0.00  0.00    -0.015 A 
ATOM      3  C   UNL     1       5.600  -4.040  -0.043  0.00  0.00    +0.091 A 
ATOM      4  C   UNL     1       5.194  -2.701  -0.026  0.00  0.00    +0.087 A 
ATOM      5  S   UNL     1       6.697  -1.839  -0.053  0.00  0.00    -0.068 S 
ATOM      6  C   UNL     1       7.486  -5.713  -0.089  0.00  0.00    +0.046 C 
ENDROOT
BRANCH   1   8
ATOM      7  N   UNL     1       9.948  -2.056  -0.106  0.00  0.00    -0.281 N 
ATOM      8  C   UNL     1       9.277  -3.225  -0.102  0.00  0.00    +0.255 C 
ATOM      9  O   UNL     1       9.889  -4.277  -0.121  0.00  0.00    -0.269 OA
ATOM     10  H   UNL     1       9.463  -1.218  -0.172  0.00  0.00    +0.155 HD
BRANCH   7  15
ATOM     11  C   UNL     1      15.608  -2.033   0.266  0.00  0.00    +0.044 C 
ATOM     12  C   UNL     1      14.105  -2.038   0.168  0.00  0.00    -0.050 A 
ATOM     13  C   UNL     1      13.384  -3.107   0.669  0.00  0.00    +0.005 A 
ATOM     14  C   UNL     1      12.007  -3.116   0.580  0.00  0.00    +0.024 A 
ATOM     15  C   UNL     1      11.344  -2.050  -0.014  0.00  0.00    +0.037 A 
ATOM     16  C   UNL     1      12.070  -0.981  -0.521  0.00  0.00    -0.029 A 
ATOM     17  C   UNL     1      13.448  -0.975  -0.424  0.00  0.00    +0.008 A 
ATOM     18  C   UNL     1      11.355   0.175  -1.173  0.00  0.00    +0.045 C 
ENDBRANCH   7  15
ENDBRANCH   1   8
BRANCH   4  19
ATOM     19  N   UNL     1       3.910  -2.192   0.000  0.00  0.00    -0.277 N 
ATOM     20  C   UNL     1       3.714  -0.858   0.014  0.00  0.00    +0.255 C 
ATOM     21  O   UNL     1       4.665  -0.106   0.003  0.00  0.00    -0.272 OA
ATOM     22  H   UNL     1       3.149  -2.794   0.009  0.00  0.00    +0.155 HD
BRANCH  20  23
ATOM     23  C   UNL     1       2.313  -0.303   0.042  0.00  0.00    +0.324 C 
BRANCH  23  24
ATOM     24  O   UNL     1       2.368   1.125   0.052  0.00  0.00    -0.482 OA
BRANCH  24  25
ATOM     25  C   UNL     1       1.181   1.788   0.077  0.00  0.00    +0.124 A 
ATOM     26  C   UNL     1      -0.011   1.077   0.093  0.00  0.00    +0.047 A 
ATOM     27  C   UNL     1      -1.216   1.752   0.113  0.00  0.00    +0.023 A 
ATOM     28  C   UNL     1      -1.235   3.136   0.128  0.00  0.00    +0.041 A 
ATOM     29  C   UNL     1      -0.047   3.846   0.113  0.00  0.00    +0.027 A 
ATOM     30  C   UNL     1       1.160   3.174   0.087  0.00  0.00    -0.007 A 
ATOM     31  C   UNL     1       2.453   3.948   0.071  0.00  0.00    +0.047 C 
ATOM     32 CL   UNL     1      -2.750   3.982   0.160  0.00  0.00    -0.084 Cl
ENDBRANCH  24  25
ENDBRANCH  23  24
ENDBRANCH  20  23
ENDBRANCH   4  19
BRANCH   3  33
ATOM     33  C   UNL     1       4.619  -5.131  -0.033  0.00  0.00    +0.342 C 
ATOM     34  O   UNL     1       4.194  -5.576  -1.081  0.00  0.00    -0.245 OA
BRANCH  33  35
ATOM     35  O   UNL     1       4.189  -5.640   1.139  0.00  0.00    -0.464 OA
ATOM     36  C   UNL     1       3.219  -6.718   1.073  0.00  0.00    +0.280 C 
ENDBRANCH  33  35
ENDBRANCH   3  33
TORSDOF 8
