REMARK  Name = ZINC49466044
REMARK  8 active torsions:
REMARK  status: ('A' for Active; 'I' for Inactive)
REMARK    1  A    between atoms: C_1  and  C_2
REMARK    2  A    between atoms: C_3  and  C_8
REMARK    3  A    between atoms: C_5  and  C_7
REMARK    4  A    between atoms: N_13  and  C_15
REMARK    5  A    between atoms: C_15  and  C_16
REMARK    6  A    between atoms: C_16  and  N_17
REMARK    7  A    between atoms: C_18  and  C_20
REMARK    8  A    between atoms: C_25  and  N_26
REMARK                            x       y       z     vdW  Elec       q    Type
REMARK                         _______ _______ _______ _____ _____    ______ ____
ROOT
ATOM      1  C   UNL     1      -1.088   2.831  -3.078  0.00  0.00    +0.166 C 
ENDROOT
BRANCH   1   7
ATOM      2  C   UNL     1      -1.929  -0.177  -1.279  0.00  0.00    +0.100 A 
ATOM      3  C   UNL     1      -1.737  -1.210  -2.228  0.00  0.00    +0.036 A 
ATOM      4  C   UNL     1      -1.321  -0.867  -3.480  0.00  0.00    +0.074 A 
ATOM      5  C   UNL     1      -1.106   0.503  -3.753  0.00  0.00    +0.267 A 
ATOM      6  O   UNL     1      -0.733   0.858  -4.860  0.00  0.00    -0.266 OA
ATOM      7  N   UNL     1      -1.315   1.414  -2.784  0.00  0.00    -0.227 N 
ATOM      8  N   UNL     1      -1.712   1.075  -1.611  0.00  0.00    -0.168 NA
BRANCH   2  11
ATOM      9  C   UNL     1      -2.464   1.813   1.052  0.00  0.00    +0.067 C 
ATOM     10  C   UNL     1      -2.633   0.319   1.154  0.00  0.00    +0.055 A 
ATOM     11  C   UNL     1      -2.381  -0.509   0.089  0.00  0.00    +0.062 A 
ATOM     12  S   UNL     1      -2.750  -2.098   0.815  0.00  0.00    -0.070 S 
ATOM     13  C   UNL     1      -3.175  -1.557   2.352  0.00  0.00    +0.076 A 
ATOM     14  N   UNL     1      -3.024  -0.258   2.268  0.00  0.00    -0.249 NA
ATOM     15  C   UNL     1      -3.615  -2.373   3.540  0.00  0.00    +0.073 C 
ENDBRANCH   2  11
ENDBRANCH   1   7
BRANCH   1  16
ATOM     16  C   UNL     1      -2.383   3.457  -3.602  0.00  0.00    +0.128 C 
BRANCH  16  17
ATOM     17  N   UNL     1      -2.156   4.874  -3.895  0.00  0.00    -0.310 N 
ATOM     18  C   UNL     1      -3.163   5.633  -4.372  0.00  0.00    +0.246 C 
ATOM     19  O   UNL     1      -4.259   5.141  -4.557  0.00  0.00    -0.270 OA
ATOM     20  H   UNL     1      -1.281   5.266  -3.747  0.00  0.00    +0.149 HD
BRANCH  18  21
ATOM     21  C   UNL     1      -2.934   7.063  -4.668  0.00  0.00    +0.068 A 
ATOM     22  C   UNL     1      -2.424   7.910  -3.683  0.00  0.00    +0.035 A 
ATOM     23  C   UNL     1      -2.213   9.245  -3.967  0.00  0.00    +0.042 A 
ATOM     24  C   UNL     1      -2.506   9.743  -5.225  0.00  0.00    +0.022 A 
ATOM     25  C   UNL     1      -3.012   8.908  -6.205  0.00  0.00    +0.035 A 
ATOM     26  C   UNL     1      -3.223   7.571  -5.936  0.00  0.00    +0.138 A 
ATOM     27 CL   UNL     1      -1.578  10.301  -2.743  0.00  0.00    -0.084 Cl
BRANCH  26  28
ATOM     28  N   UNL     1      -3.758   6.678  -6.988  0.00  0.00    +0.057 N 
ATOM     29  O   UNL     1      -4.123   7.139  -8.044  0.00  0.00    -0.126 OA
ATOM     30  O   UNL     1      -3.831   5.487  -6.791  0.00  0.00    -0.126 OA
ENDBRANCH  26  28
ENDBRANCH  18  21
ENDBRANCH  16  17
ENDBRANCH   1  16
TORSDOF 6
