REMARK  Name = ZINC21999792
REMARK  9 active torsions:
REMARK  status: ('A' for Active; 'I' for Inactive)
REMARK    1  A    between atoms: C_1  and  O_2
REMARK    2  A    between atoms: O_2  and  C_3
REMARK    3  A    between atoms: C_3  and  C_4
REMARK    4  A    between atoms: C_4  and  N_5
REMARK    5  A    between atoms: C_9  and  S_10
REMARK    6  A    between atoms: S_10  and  C_11
REMARK    7  A    between atoms: C_11  and  C_12
REMARK    8  A    between atoms: N_14  and  C_15
REMARK    9  A    between atoms: C_16  and  C_24
REMARK                            x       y       z     vdW  Elec       q    Type
REMARK                         _______ _______ _______ _____ _____    ______ ____
ROOT
ATOM      1  C   UNL     1       4.011   4.462   3.607  0.00  0.00    +0.228 C 
ATOM      2  O   UNL     1       3.769   5.202   2.677  0.00  0.00    -0.275 OA
ATOM      3  N   UNL     1       5.038   4.735   4.435  0.00  0.00    -0.279 N 
ATOM      4  H   UNL     1       5.258   4.064   5.279  0.00  0.00    +0.155 HD
ENDROOT
BRANCH   3   5
ATOM      5  C   UNL     1       5.818   5.862   4.225  0.00  0.00    +0.084 A 
ATOM      6  C   UNL     1       6.904   6.309   4.964  0.00  0.00    +0.068 A 
ATOM      7  C   UNL     1       7.557   7.531   4.526  0.00  0.00    -0.023 A 
ATOM      8  C   UNL     1       7.018   8.111   3.432  0.00  0.00    -0.004 A 
ATOM      9  S   UNL     1       5.670   7.056   2.979  0.00  0.00    -0.077 S 
ATOM     10  C   UNL     1       7.472   9.370   2.761  0.00  0.00    +0.043 C 
ATOM     11  C   UNL     1       8.414  10.116   3.717  0.00  0.00    +0.005 C 
ATOM     12  C   UNL     1       9.443   9.125   4.268  0.00  0.00    +0.005 C 
ATOM     13  C   UNL     1       8.761   8.147   5.227  0.00  0.00    +0.037 C 
BRANCH   6  14
ATOM     14  C   UNL     1       7.377   5.575   6.142  0.00  0.00    +0.244 C 
ATOM     15  O   UNL     1       8.222   4.708   6.019  0.00  0.00    -0.270 OA
ATOM     16  N   UNL     1       6.875   5.860   7.360  0.00  0.00    -0.325 N 
ATOM     17  H   UNL     1       7.230   5.309   8.243  0.00  0.00    +0.145 HD
ATOM     18  H   UNL     1       6.111   6.644   7.471  0.00  0.00    +0.145 HD
ENDBRANCH   6  14
ENDBRANCH   3   5
BRANCH   1  19
ATOM     19  C   UNL     1       3.163   3.237   3.836  0.00  0.00    +0.173 C 
BRANCH  19  20
ATOM     20  S   UNL     1       1.876   3.149   2.566  0.00  0.00    -0.077 S 
BRANCH  20  25
ATOM     21  N   UNL     1      -0.020   1.094   2.454  0.00  0.00    -0.306 N 
ATOM     22  C   UNL     1      -0.299  -0.031   3.179  0.00  0.00    +0.225 A 
ATOM     23  N   UNL     1       0.569  -0.093   4.149  0.00  0.00    -0.137 NA
ATOM     24  N   UNL     1       1.372   0.909   4.087  0.00  0.00    -0.123 NA
ATOM     25  C   UNL     1       1.059   1.668   3.062  0.00  0.00    +0.192 A 
BRANCH  21  26
ATOM     26  C   UNL     1      -0.729   1.579   1.267  0.00  0.00    +0.153 C 
BRANCH  26  27
ATOM     27  C   UNL     1      -0.013   1.086   0.008  0.00  0.00    +0.181 C 
BRANCH  27  29
ATOM     28  C   UNL     1      -0.114   1.152  -2.386  0.00  0.00    +0.194 C 
ATOM     29  O   UNL     1      -0.704   1.559  -1.150  0.00  0.00    -0.381 OA
ENDBRANCH  27  29
ENDBRANCH  26  27
ENDBRANCH  21  26
ENDBRANCH  20  25
ENDBRANCH  19  20
ENDBRANCH   1  19
TORSDOF 8
