REMARK  Name = ZINC05422436
REMARK  5 active torsions:
REMARK  status: ('A' for Active; 'I' for Inactive)
REMARK    1  A    between atoms: C_4  and  N_23
REMARK    2  A    between atoms: C_5  and  C_7
REMARK    3  A    between atoms: N_9  and  C_10
REMARK    4  A    between atoms: C_10  and  C_11
REMARK    5  A    between atoms: N_13  and  C_14
REMARK                            x       y       z     vdW  Elec       q    Type
REMARK                         _______ _______ _______ _____ _____    ______ ____
ROOT
ATOM      1  C   UNL     1       2.297   5.670   0.300  0.00  0.00    +0.200 C 
ENDROOT
BRANCH   1   4
ATOM      2  C   UNL     1       3.895   7.502   0.457  0.00  0.00    +0.247 C 
ATOM      3  O   UNL     1       2.960   8.278   0.474  0.00  0.00    -0.270 OA
ATOM      4  N   UNL     1       3.670   6.176   0.371  0.00  0.00    -0.303 N 
ATOM      5  H   UNL     1       4.416   5.557   0.357  0.00  0.00    +0.150 HD
BRANCH   2  10
ATOM      6  C   UNL     1       7.649   7.621   0.457  0.00  0.00    +0.001 A 
ATOM      7  C   UNL     1       7.876   8.970   0.664  0.00  0.00    +0.002 A 
ATOM      8  C   UNL     1       6.812   9.843   0.805  0.00  0.00    +0.033 A 
ATOM      9  C   UNL     1       5.516   9.373   0.738  0.00  0.00    +0.138 A 
ATOM     10  C   UNL     1       5.281   8.013   0.529  0.00  0.00    +0.067 A 
ATOM     11  C   UNL     1       6.359   7.137   0.394  0.00  0.00    +0.015 A 
BRANCH   9  12
ATOM     12  N   UNL     1       4.379  10.308   0.889  0.00  0.00    +0.057 N 
ATOM     13  O   UNL     1       4.301  11.291   0.175  0.00  0.00    -0.126 OA
ATOM     14  O   UNL     1       3.522  10.093   1.727  0.00  0.00    -0.126 OA
ENDBRANCH   9  12
ENDBRANCH   2  10
ENDBRANCH   1   4
BRANCH   1  15
ATOM     15  C   UNL     1       2.320   4.165   0.212  0.00  0.00    +0.234 C 
ATOM     16  O   UNL     1       3.380   3.574   0.209  0.00  0.00    -0.274 OA
ATOM     17  N   UNL     1       1.164   3.477   0.136  0.00  0.00    -0.282 N 
ATOM     18  H   UNL     1       0.322   3.951   0.052  0.00  0.00    +0.155 HD
BRANCH  17  19
ATOM     19  C   UNL     1       1.179   2.076   0.178  0.00  0.00    +0.072 A 
ATOM     20  C   UNL     1       2.233   1.410   0.789  0.00  0.00    +0.029 A 
ATOM     21  C   UNL     1       2.247   0.029   0.830  0.00  0.00    +0.043 A 
ATOM     22  C   UNL     1       1.211  -0.693   0.262  0.00  0.00    +0.161 A 
ATOM     23  C   UNL     1       0.157  -0.032  -0.349  0.00  0.00    +0.195 A 
ATOM     24  C   UNL     1       0.139   1.352  -0.392  0.00  0.00    +0.182 A 
ATOM     25  F   UNL     1      -0.885   1.997  -0.993  0.00  0.00    -0.200 F 
ATOM     26  F   UNL     1      -0.853  -0.739  -0.903  0.00  0.00    -0.199 F 
ATOM     27  F   UNL     1       1.228  -2.043   0.304  0.00  0.00    -0.202 F 
ENDBRANCH  17  19
ENDBRANCH   1  15
TORSDOF 5
