REMARK  Name = ZINC28947716
REMARK  10 active torsions:
REMARK  status: ('A' for Active; 'I' for Inactive)
REMARK    1  A    between atoms: C_1  and  C_2
REMARK    2  A    between atoms: C_2  and  C_3
REMARK    3  A    between atoms: C_2  and  C_4
REMARK    4  A    between atoms: C_4  and  C_6
REMARK    5  A    between atoms: C_4  and  S_12
REMARK    6  A    between atoms: S_12  and  C_13
REMARK    7  A    between atoms: C_16  and  C_23
REMARK    8  A    between atoms: N_17  and  C_18
REMARK    9  A    between atoms: C_18  and  C_19
REMARK   10  A    between atoms: C_19  and  C_20
REMARK                            x       y       z     vdW  Elec       q    Type
REMARK                         _______ _______ _______ _____ _____    ______ ____
ROOT
ATOM      1  C   UNL     1       2.172   6.907  -0.142  0.00  0.00    +0.193 A 
ATOM      2  N   UNL     1       0.953   7.246   0.210  0.00  0.00    -0.122 NA
ATOM      3  N   UNL     1       0.212   6.201   0.307  0.00  0.00    -0.128 NA
ATOM      4  C   UNL     1       0.914   5.126   0.021  0.00  0.00    +0.172 A 
ATOM      5  N   UNL     1       2.193   5.545  -0.271  0.00  0.00    -0.301 N 
ENDROOT
BRANCH   4   6
ATOM      6  C   UNL     1       0.426   3.737   0.018  0.00  0.00    +0.056 A 
ATOM      7  C   UNL     1      -0.866   3.275   0.028  0.00  0.00    +0.019 A 
ATOM      8  C   UNL     1      -1.081   1.915   0.017  0.00  0.00    +0.008 A 
ATOM      9  C   UNL     1      -0.013   1.076   0.008  0.00  0.00    +0.046 A 
ATOM     10  S   UNL     1       1.361   2.216   0.001  0.00  0.00    -0.094 S 
ENDBRANCH   4   6
BRANCH   1  11
ATOM     11  S   UNL     1       3.530   8.001  -0.397  0.00  0.00    -0.073 S 
BRANCH  11  12
ATOM     12  C   UNL     1       2.729   9.584  -0.036  0.00  0.00    +0.143 C 
BRANCH  12  13
ATOM     13  C   UNL     1       3.756  10.686  -0.074  0.00  0.00    +0.234 C 
ATOM     14  O   UNL     1       4.766  10.551  -0.731  0.00  0.00    -0.274 OA
ATOM     15  N   UNL     1       3.552  11.821   0.623  0.00  0.00    -0.239 N 
ATOM     16  C   UNL     1       4.471  12.807   0.589  0.00  0.00    +0.303 C 
ATOM     17  O   UNL     1       5.483  12.672  -0.070  0.00  0.00    -0.253 OA
ATOM     18  N   UNL     1       4.267  13.942   1.286  0.00  0.00    -0.313 N 
ATOM     19  H   UNL     1       2.636  11.943   1.220  0.00  0.00    +0.159 HD
ATOM     20  H   UNL     1       5.016  14.747   1.258  0.00  0.00    +0.146 HD
ATOM     21  H   UNL     1       3.351  14.064   1.883  0.00  0.00    +0.146 HD
ENDBRANCH  12  13
BRANCH  12  23
ATOM     22  C   UNL     1       0.971  11.196  -0.778  0.00  0.00    +0.009 C 
ATOM     23  C   UNL     1       1.648   9.858  -1.083  0.00  0.00    +0.005 C 
ATOM     24  C   UNL     1       2.285   9.914  -2.473  0.00  0.00    +0.009 C 
ENDBRANCH  12  23
ENDBRANCH  11  12
ENDBRANCH   1  11
BRANCH   5  25
ATOM     25  C   UNL     1       3.336   4.708  -0.643  0.00  0.00    +0.135 C 
BRANCH  25  26
ATOM     26  C   UNL     1       3.375   4.546  -2.164  0.00  0.00    +0.117 C 
BRANCH  26  27
ATOM     27  C   UNL     1       4.551   3.685  -2.547  0.00  0.00    +0.212 C 
ATOM     28  O   UNL     1       5.285   3.244  -1.689  0.00  0.00    -0.276 OA
ATOM     29  N   UNL     1       4.786   3.404  -3.844  0.00  0.00    -0.329 N 
ATOM     30  H   UNL     1       5.644   2.776  -4.124  0.00  0.00    +0.145 HD
ATOM     31  H   UNL     1       4.120   3.804  -4.623  0.00  0.00    +0.145 HD
ENDBRANCH  26  27
ENDBRANCH  25  26
ENDBRANCH   5  25
TORSDOF 8
