REMARK  Name = ZINC21223912
REMARK  8 active torsions:
REMARK  status: ('A' for Active; 'I' for Inactive)
REMARK    1  A    between atoms: C_1  and  C_2
REMARK    2  A    between atoms: C_2  and  O_3
REMARK    3  A    between atoms: O_3  and  C_4
REMARK    4  A    between atoms: C_7  and  C_10
REMARK    5  A    between atoms: C_15  and  C_25
REMARK    6  A    between atoms: C_28  and  O_33
REMARK    7  A    between atoms: C_29  and  O_31
REMARK    8  A    between atoms: O_31  and  C_32
REMARK                            x       y       z     vdW  Elec       q    Type
REMARK                         _______ _______ _______ _____ _____    ______ ____
ROOT
ATOM      1  C   UNL     1       2.968   4.253   4.255  0.00  0.00    +0.032 C 
ATOM      2  C   UNL     1       4.250   3.926   3.493  0.00  0.00    +0.059 C 
ATOM      3  C   UNL     1       3.924   3.587   2.049  0.00  0.00    +0.017 C 
ATOM      4  C   UNL     1       2.882   4.168   1.429  0.00  0.00    +0.036 C 
ATOM      5  C   UNL     1       2.458   3.932  -0.000  0.00  0.00    +0.136 C 
ATOM      6  N   UNL     1       3.416   3.201  -0.801  0.00  0.00    -0.331 N 
ATOM      7  C   UNL     1       3.737   1.877  -0.504  0.00  0.00    +0.049 A 
ATOM      8  C   UNL     1       3.433   0.845  -1.377  0.00  0.00    +0.025 A 
ATOM      9  C   UNL     1       3.729  -0.459  -1.017  0.00  0.00    +0.002 A 
ATOM     10  C   UNL     1       4.319  -0.732   0.204  0.00  0.00    +0.002 A 
ATOM     11  C   UNL     1       4.640   0.300   1.070  0.00  0.00    +0.025 A 
ATOM     12  C   UNL     1       4.366   1.605   0.702  0.00  0.00    +0.052 A 
ATOM     13  N   UNL     1       4.765   2.693   1.469  0.00  0.00    -0.316 N 
ATOM     14  C   UNL     1       2.066   5.092   2.124  0.00  0.00    +0.163 C 
ATOM     15  O   UNL     1       1.141   5.617   1.535  0.00  0.00    -0.292 OA
ATOM     16  C   UNL     1       2.303   5.448   3.561  0.00  0.00    +0.088 C 
ATOM     17  H   UNL     1       3.904   3.689  -1.658  0.00  0.00    +0.147 HD
ATOM     18  H   UNL     1       5.853   2.802   1.591  0.00  0.00    +0.152 HD
ENDROOT
BRANCH   1  22
ATOM     19  C   UNL     1       3.905   5.266   8.300  0.00  0.00    +0.121 A 
ATOM     20  C   UNL     1       3.076   4.187   8.028  0.00  0.00    +0.046 A 
ATOM     21  C   UNL     1       2.775   3.861   6.720  0.00  0.00    +0.007 A 
ATOM     22  C   UNL     1       3.298   4.610   5.682  0.00  0.00    -0.043 A 
ATOM     23  C   UNL     1       4.129   5.682   5.950  0.00  0.00    +0.007 A 
ATOM     24  C   UNL     1       4.429   6.015   7.256  0.00  0.00    +0.046 A 
BRANCH  19  25
ATOM     25  O   UNL     1       4.203   5.588   9.586  0.00  0.00    -0.492 OA
BRANCH  25  27
ATOM     26  C   UNL     1       5.282   6.918  11.291  0.00  0.00    +0.048 C 
ATOM     27  C   UNL     1       5.062   6.711   9.791  0.00  0.00    +0.225 C 
ENDBRANCH  25  27
ENDBRANCH  19  25
ENDBRANCH   1  22
BRANCH   5  28
ATOM     28  C   UNL     1       1.160   3.166   0.008  0.00  0.00    -0.019 A 
ATOM     29  C   UNL     1       1.123   1.877   0.508  0.00  0.00    +0.009 A 
ATOM     30  C   UNL     1      -0.065   1.170   0.518  0.00  0.00    +0.049 A 
ATOM     31  C   UNL     1      -1.221   1.751   0.021  0.00  0.00    +0.158 A 
ATOM     32  C   UNL     1      -1.185   3.049  -0.478  0.00  0.00    +0.162 A 
ATOM     33  C   UNL     1       0.009   3.752  -0.485  0.00  0.00    +0.055 A 
BRANCH  32  34
ATOM     34  O   UNL     1      -2.317   3.625  -0.963  0.00  0.00    -0.491 OA
ATOM     35  C   UNL     1      -2.204   4.958  -1.464  0.00  0.00    +0.277 C 
ENDBRANCH  32  34
BRANCH  31  36
ATOM     36  O   UNL     1      -2.389   1.054   0.024  0.00  0.00    -0.503 OA
ATOM     37  H   UNL     1      -3.306   1.516  -0.371  0.00  0.00    +0.292 HD
ENDBRANCH  31  36
ENDBRANCH   5  28
TORSDOF 6
