REMARK  Name = ZINC35706316
REMARK  14 active torsions:
REMARK  status: ('A' for Active; 'I' for Inactive)
REMARK    1  A    between atoms: C_1  and  C_2
REMARK    2  A    between atoms: C_2  and  C_4
REMARK    3  A    between atoms: C_2  and  N_12
REMARK    4  A    between atoms: C_4  and  C_5
REMARK    5  A    between atoms: C_5  and  C_6
REMARK    6  A    between atoms: C_13  and  C_15
REMARK    7  A    between atoms: C_19  and  C_36
REMARK    8  A    between atoms: C_22  and  C_24
REMARK    9  A    between atoms: C_26  and  O_34
REMARK   10  A    between atoms: C_27  and  O_32
REMARK   11  A    between atoms: C_28  and  O_30
REMARK   12  A    between atoms: O_30  and  C_31
REMARK   13  A    between atoms: O_32  and  C_33
REMARK   14  A    between atoms: O_34  and  C_35
REMARK                            x       y       z     vdW  Elec       q    Type
REMARK                         _______ _______ _______ _____ _____    ______ ____
ROOT
ATOM      1  C   UNL     1      -4.264  -0.682  -1.290  0.00  0.00    +0.173 C 
ATOM      2  C   UNL     1      -3.572  -1.956  -0.721  0.00  0.00    +0.103 C 
ATOM      3  S   UNL     1      -2.508  -2.360  -2.178  0.00  0.00    -0.131 S 
ATOM      4  C   UNL     1      -3.632  -1.692  -3.477  0.00  0.00    +0.169 C 
ATOM      5  N   UNL     1      -4.564  -0.848  -2.710  0.00  0.00    -0.269 N 
ATOM      6  C   UNL     1      -5.632  -0.262  -3.286  0.00  0.00    +0.249 C 
ATOM      7  O   UNL     1      -6.319   0.512  -2.648  0.00  0.00    -0.270 OA
ENDROOT
BRANCH   6   8
ATOM      8  C   UNL     1      -5.968  -0.560  -4.692  0.00  0.00    +0.044 A 
ATOM      9  C   UNL     1      -5.903  -1.873  -5.164  0.00  0.00    +0.062 A 
ATOM     10  C   UNL     1      -6.219  -2.149  -6.481  0.00  0.00    +0.166 A 
ATOM     11  C   UNL     1      -6.601  -1.120  -7.337  0.00  0.00    +0.204 A 
ATOM     12  C   UNL     1      -6.666   0.190  -6.870  0.00  0.00    +0.166 A 
ATOM     13  C   UNL     1      -6.357   0.470  -5.552  0.00  0.00    +0.062 A 
BRANCH  12  14
ATOM     14  O   UNL     1      -7.039   1.193  -7.709  0.00  0.00    -0.491 OA
ATOM     15  C   UNL     1      -7.085   2.513  -7.162  0.00  0.00    +0.277 C 
ENDBRANCH  12  14
BRANCH  11  16
ATOM     16  O   UNL     1      -6.910  -1.394  -8.632  0.00  0.00    -0.488 OA
ATOM     17  C   UNL     1      -8.275  -1.704  -8.921  0.00  0.00    +0.277 C 
ENDBRANCH  11  16
BRANCH  10  18
ATOM     18  O   UNL     1      -6.155  -3.428  -6.941  0.00  0.00    -0.491 OA
ATOM     19  C   UNL     1      -5.878  -4.449  -5.981  0.00  0.00    +0.277 C 
ENDBRANCH  10  18
ENDBRANCH   6   8
BRANCH   4  20
ATOM     20  C   UNL     1      -2.861  -0.869  -4.477  0.00  0.00    +0.021 A 
ATOM     21  C   UNL     1      -2.759   0.541  -4.507  0.00  0.00    +0.047 A 
ATOM     22  C   UNL     1      -1.979   0.853  -5.558  0.00  0.00    +0.195 A 
ATOM     23  O   UNL     1      -1.605  -0.287  -6.162  0.00  0.00    -0.471 OA
ATOM     24  C   UNL     1      -2.133  -1.335  -5.507  0.00  0.00    +0.201 A 
ENDBRANCH   4  20
BRANCH   1  26
ATOM     25  N   UNL     1      -3.412   1.238   0.015  0.00  0.00    -0.311 N 
ATOM     26  C   UNL     1      -3.348   0.502  -1.112  0.00  0.00    +0.235 C 
ATOM     27  O   UNL     1      -2.555   0.791  -1.982  0.00  0.00    -0.274 OA
ATOM     28  H   UNL     1      -4.046   1.007   0.711  0.00  0.00    +0.149 HD
BRANCH  25  30
ATOM     29  C   UNL     1      -3.143   3.619  -0.476  0.00  0.00    +0.028 C 
ATOM     30  C   UNL     1      -2.522   2.389   0.188  0.00  0.00    +0.070 C 
BRANCH  30  31
ATOM     31  C   UNL     1      -2.324   2.661   1.681  0.00  0.00    +0.026 C 
BRANCH  31  32
ATOM     32  C   UNL     1      -1.590   1.481   2.321  0.00  0.00    +0.037 C 
BRANCH  32  33
ATOM     33  C   UNL     1      -1.396   1.749   3.792  0.00  0.00    -0.047 A 
ATOM     34  C   UNL     1      -0.260   2.403   4.231  0.00  0.00    +0.003 A 
ATOM     35  C   UNL     1      -0.081   2.648   5.580  0.00  0.00    +0.000 A 
ATOM     36  C   UNL     1      -1.039   2.240   6.489  0.00  0.00    +0.000 A 
ATOM     37  C   UNL     1      -2.176   1.587   6.050  0.00  0.00    +0.000 A 
ATOM     38  C   UNL     1      -2.356   1.346   4.700  0.00  0.00    +0.003 A 
ENDBRANCH  32  33
ENDBRANCH  31  32
ENDBRANCH  30  31
ENDBRANCH  25  30
ENDBRANCH   1  26
TORSDOF 10
