REMARK  Name = ZINC12814147
REMARK  4 active torsions:
REMARK  status: ('A' for Active; 'I' for Inactive)
REMARK    1  A    between atoms: C_1  and  C_2
REMARK    2  A    between atoms: C_7  and  N_8
REMARK    3  A    between atoms: C_9  and  C_11
REMARK    4  A    between atoms: C_11  and  C_12
REMARK                            x       y       z     vdW  Elec       q    Type
REMARK                         _______ _______ _______ _____ _____    ______ ____
ROOT
ATOM      1  N   UNL     1      -1.238   2.069   0.019  0.00  0.00    -0.285 N 
ATOM      2  C   UNL     1      -1.256   3.412   0.128  0.00  0.00    +0.219 C 
ATOM      3  O   UNL     1      -0.215   4.035   0.127  0.00  0.00    -0.275 OA
ATOM      4  H   UNL     1      -2.070   1.576  -0.045  0.00  0.00    +0.155 HD
ENDROOT
BRANCH   1  11
ATOM      5  C   UNL     1      -1.114  -0.497   1.242  0.00  0.00    +0.046 C 
ATOM      6  C   UNL     1       0.087   0.129   0.582  0.00  0.00    -0.028 A 
ATOM      7  C   UNL     1       1.292  -0.546   0.556  0.00  0.00    +0.020 A 
ATOM      8  C   UNL     1       2.395   0.029  -0.050  0.00  0.00    +0.018 A 
ATOM      9  C   UNL     1       2.295   1.280  -0.632  0.00  0.00    +0.017 A 
ATOM     10  C   UNL     1       1.093   1.959  -0.609  0.00  0.00    +0.024 A 
ATOM     11  C   UNL     1      -0.016   1.385  -0.001  0.00  0.00    +0.036 A 
ATOM     12 BR   UNL     1       4.043  -0.899  -0.084  0.00  0.00    -0.050 Br
ENDBRANCH   1  11
BRANCH   2  13
ATOM     13  C   UNL     1      -2.570   4.140   0.252  0.00  0.00    +0.128 C 
BRANCH  13  14
ATOM     14  C   UNL     1      -2.311   5.644   0.360  0.00  0.00    +0.169 C 
ATOM     15  C   UNL     1      -3.607   6.391   0.609  0.00  0.00    +0.241 C 
ATOM     16  O   UNL     1      -4.349   6.273   1.560  0.00  0.00    -0.273 OA
ATOM     17  N   UNL     1      -3.761   7.214  -0.447  0.00  0.00    -0.239 N 
ATOM     18  C   UNL     1      -2.754   7.092  -1.319  0.00  0.00    +0.307 C 
ATOM     19  O   UNL     1      -2.671   7.731  -2.350  0.00  0.00    -0.252 OA
ATOM     20  N   UNL     1      -1.842   6.183  -0.928  0.00  0.00    -0.287 N 
ATOM     21  H   UNL     1      -4.509   7.821  -0.560  0.00  0.00    +0.159 HD
ATOM     22  H   UNL     1      -1.034   5.932  -1.401  0.00  0.00    +0.151 HD
ENDBRANCH  13  14
ENDBRANCH   2  13
TORSDOF 3
