REMARK  Name = ZINC64167256
REMARK  7 active torsions:
REMARK  status: ('A' for Active; 'I' for Inactive)
REMARK    1  A    between atoms: C_1  and  C_2
REMARK    2  A    between atoms: C_2  and  C_3
REMARK    3  A    between atoms: C_2  and  C_4
REMARK    4  A    between atoms: C_19  and  C_21
REMARK    5  A    between atoms: C_21  and  S_22
REMARK    6  A    between atoms: S_22  and  C_23
REMARK    7  A    between atoms: C_29  and  C_33
REMARK                            x       y       z     vdW  Elec       q    Type
REMARK                         _______ _______ _______ _____ _____    ______ ____
ROOT
ATOM      1  C   UNL     1      -1.519  -0.018   0.164  0.00  0.00    +0.105 C 
ATOM      2  C   UNL     1      -1.988  -1.427   0.541  0.00  0.00    +0.127 C 
ATOM      3  C   UNL     1      -1.802  -2.294  -0.698  0.00  0.00    -0.035 C 
ATOM      4  C   UNL     1      -1.031  -3.311  -0.332  0.00  0.00    -0.001 A 
ATOM      5  C   UNL     1      -0.566  -4.500  -1.064  0.00  0.00    +0.010 A 
ATOM      6  C   UNL     1       0.238  -5.352  -0.374  0.00  0.00    +0.001 A 
ATOM      7  C   UNL     1       0.620  -5.143   0.955  0.00  0.00    +0.002 A 
ATOM      8  C   UNL     1       0.235  -4.080   1.706  0.00  0.00    +0.026 A 
ATOM      9  C   UNL     1      -0.616  -3.116   1.091  0.00  0.00    +0.043 A 
ATOM     10  N   UNL     1      -1.153  -2.016   1.589  0.00  0.00    -0.376 N 
ATOM     11  C   UNL     1      -2.369  -1.915  -2.044  0.00  0.00    +0.052 C 
ATOM     12  C   UNL     1      -1.935  -0.463  -2.315  0.00  0.00    +0.112 C 
ATOM     13  N   UNL     1      -2.159   0.345  -1.111  0.00  0.00    -0.295 N 
ATOM     14  C   UNL     1      -2.958   1.429  -1.171  0.00  0.00    +0.226 C 
ATOM     15  O   UNL     1      -3.147   2.099  -0.178  0.00  0.00    -0.275 OA
ATOM     16  H   UNL     1      -1.020  -1.655   2.479  0.00  0.00    +0.160 HD
ENDROOT
BRANCH   1  18
ATOM     17  C   UNL     1       0.441   1.341  -0.580  0.00  0.00    +0.009 C 
ATOM     18  C   UNL     1       0.002  -0.004   0.002  0.00  0.00    +0.006 C 
ATOM     19  C   UNL     1       0.662  -0.208   1.367  0.00  0.00    +0.009 C 
ENDBRANCH   1  18
BRANCH  14  20
ATOM     20  C   UNL     1      -3.617   1.808  -2.473  0.00  0.00    +0.171 C 
BRANCH  20  21
ATOM     21  S   UNL     1      -4.620   3.299  -2.231  0.00  0.00    -0.100 S 
BRANCH  21  22
ATOM     22  C   UNL     1      -5.314   3.608  -3.821  0.00  0.00    +0.078 C 
ATOM     23  C   UNL     1      -6.142   4.689  -4.010  0.00  0.00    +0.035 C 
ATOM     24  C   UNL     1      -6.704   4.951  -5.266  0.00  0.00    +0.047 C 
ATOM     25  C   UNL     1      -6.428   4.119  -6.333  0.00  0.00    +0.134 C 
ATOM     26  N   UNL     1      -6.823   4.139  -7.608  0.00  0.00    -0.265 N 
ATOM     27  N   UNL     1      -6.342   3.175  -8.306  0.00  0.00    -0.181 NA
ATOM     28  C   UNL     1      -5.492   2.349  -7.435  0.00  0.00    +0.263 C 
ATOM     29  N   UNL     1      -5.577   3.014  -6.129  0.00  0.00    -0.206 N 
ATOM     30  N   UNL     1      -5.021   2.768  -4.875  0.00  0.00    -0.254 N 
ATOM     31  H   UNL     1      -4.433   2.008  -4.743  0.00  0.00    +0.171 HD
ATOM     32  H   UNL     1      -7.415   4.816  -7.971  0.00  0.00    +0.190 HD
BRANCH  28  33
ATOM     33  C   UNL     1      -6.027   0.942  -7.353  0.00  0.00    +0.016 A 
ATOM     34  C   UNL     1      -6.690   0.379  -8.433  0.00  0.00    +0.010 A 
ATOM     35  C   UNL     1      -7.165  -0.918  -8.312  0.00  0.00    +0.020 A 
ATOM     36  C   UNL     1      -6.965  -1.601  -7.127  0.00  0.00    +0.111 A 
ATOM     37  N   UNL     1      -6.331  -1.033  -6.120  0.00  0.00    -0.263 NA
ATOM     38  C   UNL     1      -5.859   0.196  -6.202  0.00  0.00    +0.118 A 
ENDBRANCH  28  33
ENDBRANCH  21  22
ENDBRANCH  20  21
ENDBRANCH  14  20
TORSDOF 5
