REMARK  Name = ZINC45850377
REMARK  11 active torsions:
REMARK  status: ('A' for Active; 'I' for Inactive)
REMARK    1  A    between atoms: C_1  and  C_2
REMARK    2  A    between atoms: C_2  and  C_3
REMARK    3  A    between atoms: C_3  and  C_4
REMARK    4  A    between atoms: C_4  and  N_5
REMARK    5  A    between atoms: C_6  and  C_25
REMARK    6  A    between atoms: C_7  and  C_24
REMARK    7  A    between atoms: C_9  and  S_10
REMARK    8  A    between atoms: S_10  and  C_11
REMARK    9  A    between atoms: C_11  and  C_12
REMARK   10  A    between atoms: N_14  and  C_15
REMARK   11  A    between atoms: C_18  and  C_22
REMARK                            x       y       z     vdW  Elec       q    Type
REMARK                         _______ _______ _______ _____ _____    ______ ____
ROOT
ATOM      1  C   UNL     1      -5.746  -2.575  -3.807  0.00  0.00    +0.173 C 
ENDROOT
BRANCH   1   2
ATOM      2  C   UNL     1      -5.392  -2.348  -5.254  0.00  0.00    +0.228 C 
ATOM      3  O   UNL     1      -5.290  -1.218  -5.682  0.00  0.00    -0.275 OA
ATOM      4  N   UNL     1      -5.188  -3.399  -6.071  0.00  0.00    -0.283 N 
ATOM      5  H   UNL     1      -5.198  -4.301  -5.714  0.00  0.00    +0.155 HD
BRANCH   4   6
ATOM      6  C   UNL     1      -4.963  -3.191  -7.437  0.00  0.00    +0.062 A 
ATOM      7  C   UNL     1      -3.667  -3.042  -7.914  0.00  0.00    +0.040 A 
ATOM      8  C   UNL     1      -3.448  -2.837  -9.263  0.00  0.00    +0.020 A 
ATOM      9  C   UNL     1      -4.517  -2.779 -10.138  0.00  0.00    -0.048 A 
ATOM     10  C   UNL     1      -5.809  -2.926  -9.667  0.00  0.00    +0.020 A 
ATOM     11  C   UNL     1      -6.035  -3.138  -8.320  0.00  0.00    +0.040 A 
ATOM     12 BR   UNL     1      -7.801  -3.347  -7.677  0.00  0.00    -0.048 Br
ATOM     13  C   UNL     1      -4.275  -2.554 -11.608  0.00  0.00    +0.044 C 
ATOM     14 BR   UNL     1      -2.204  -3.120  -6.719  0.00  0.00    -0.048 Br
ENDBRANCH   4   6
ENDBRANCH   1   2
BRANCH   1  15
ATOM     15  S   UNL     1      -5.955  -0.976  -2.976  0.00  0.00    -0.080 S 
BRANCH  15  20
ATOM     16  N   UNL     1      -6.611  -0.532  -0.305  0.00  0.00    -0.324 N 
ATOM     17  C   UNL     1      -6.890  -1.282   0.816  0.00  0.00    +0.037 A 
ATOM     18  C   UNL     1      -6.796  -2.574   0.457  0.00  0.00    +0.034 A 
ATOM     19  N   UNL     1      -6.469  -2.628  -0.845  0.00  0.00    -0.338 N 
ATOM     20  C   UNL     1      -6.360  -1.408  -1.317  0.00  0.00    +0.148 A 
ATOM     21  C   UNL     1      -7.019  -3.759   1.361  0.00  0.00    +0.065 C 
ATOM     22  C   UNL     1      -7.235  -0.754   2.185  0.00  0.00    +0.065 C 
ATOM     23  H   UNL     1      -6.338  -3.441  -1.357  0.00  0.00    +0.168 HD
BRANCH  16  24
ATOM     24  C   UNL     1      -6.593   0.930  -0.393  0.00  0.00    +0.124 C 
BRANCH  24  25
ATOM     25  C   UNL     1      -7.988   1.435  -0.768  0.00  0.00    +0.021 C 
BRANCH  25  27
ATOM     26  C   UNL     1      -9.364   3.467  -1.236  0.00  0.00    +0.004 C 
ATOM     27  C   UNL     1      -7.970   2.962  -0.861  0.00  0.00    -0.002 C 
ENDBRANCH  25  27
ENDBRANCH  24  25
ENDBRANCH  16  24
ENDBRANCH  15  20
ENDBRANCH   1  15
TORSDOF 7
