REMARK  Name = ZINC13131877
REMARK  4 active torsions:
REMARK  status: ('A' for Active; 'I' for Inactive)
REMARK    1  A    between atoms: C_1  and  O_2
REMARK    2  A    between atoms: O_2  and  C_3
REMARK    3  A    between atoms: C_6  and  C_9
REMARK    4  A    between atoms: C_12  and  C_21
REMARK                            x       y       z     vdW  Elec       q    Type
REMARK                         _______ _______ _______ _____ _____    ______ ____
ROOT
ATOM      1  C   UNL     1       2.505  -2.503  -4.381  0.00  0.00    +0.106 C 
ATOM      2  C   UNL     1       3.913  -2.957  -3.980  0.00  0.00    +0.058 C 
ATOM      3  C   UNL     1       3.829  -3.897  -2.771  0.00  0.00    +0.143 C 
ATOM      4  N   UNL     1       2.820  -4.922  -3.039  0.00  0.00    -0.224 N 
ATOM      5  C   UNL     1       1.851  -4.812  -3.980  0.00  0.00    +0.216 A 
ATOM      6  N   UNL     1       1.131  -5.902  -3.953  0.00  0.00    -0.180 NA
ATOM      7  C   UNL     1       1.607  -6.728  -3.009  0.00  0.00    +0.233 A 
ATOM      8  N   UNL     1       2.641  -6.163  -2.427  0.00  0.00    -0.132 NA
ATOM      9  N   UNL     1       1.087  -7.985  -2.696  0.00  0.00    -0.326 N 
ATOM     10  N   UNL     1       1.723  -3.687  -4.790  0.00  0.00    -0.307 N 
ATOM     11  H   UNL     1       0.318  -8.325  -3.179  0.00  0.00    +0.145 HD
ATOM     12  H   UNL     1       1.495  -8.518  -1.996  0.00  0.00    +0.145 HD
ATOM     13  H   UNL     1       1.155  -3.679  -5.576  0.00  0.00    +0.149 HD
ENDROOT
BRANCH   3  14
ATOM     14  C   UNL     1       5.168  -4.550  -2.545  0.00  0.00    -0.023 A 
ATOM     15  C   UNL     1       5.734  -5.328  -3.538  0.00  0.00    +0.007 A 
ATOM     16  C   UNL     1       6.962  -5.927  -3.330  0.00  0.00    +0.020 A 
ATOM     17  C   UNL     1       7.625  -5.748  -2.129  0.00  0.00    +0.041 A 
ATOM     18  C   UNL     1       7.058  -4.969  -1.136  0.00  0.00    +0.020 A 
ATOM     19  C   UNL     1       5.832  -4.366  -1.346  0.00  0.00    +0.007 A 
ATOM     20 CL   UNL     1       9.168  -6.500  -1.868  0.00  0.00    -0.084 Cl
ENDBRANCH   3  14
BRANCH   1  24
ATOM     21  C   UNL     1       0.606  -0.607  -1.056  0.00  0.00    +0.120 A 
ATOM     22  C   UNL     1       1.173   0.161  -2.062  0.00  0.00    +0.046 A 
ATOM     23  C   UNL     1       1.786  -0.455  -3.136  0.00  0.00    +0.009 A 
ATOM     24  C   UNL     1       1.835  -1.835  -3.209  0.00  0.00    -0.027 A 
ATOM     25  C   UNL     1       1.270  -2.602  -2.207  0.00  0.00    +0.009 A 
ATOM     26  C   UNL     1       0.661  -1.992  -1.128  0.00  0.00    +0.046 A 
BRANCH  21  28
ATOM     27  C   UNL     1      -0.017   1.425   0.010  0.00  0.00    +0.277 C 
ATOM     28  O   UNL     1       0.002  -0.004   0.002  0.00  0.00    -0.495 OA
ENDBRANCH  21  28
ENDBRANCH   1  24
TORSDOF 3
