REMARK  Name = ZINC22323805
REMARK  11 active torsions:
REMARK  status: ('A' for Active; 'I' for Inactive)
REMARK    1  A    between atoms: C_1  and  C_2
REMARK    2  A    between atoms: C_5  and  S_8
REMARK    3  A    between atoms: S_8  and  N_11
REMARK    4  A    between atoms: N_11  and  C_12
REMARK    5  A    between atoms: N_11  and  C_31
REMARK    6  A    between atoms: C_12  and  C_13
REMARK    7  A    between atoms: N_15  and  C_16
REMARK    8  A    between atoms: C_19  and  C_29
REMARK    9  A    between atoms: C_19  and  C_30
REMARK   10  A    between atoms: C_24  and  O_27
REMARK   11  A    between atoms: O_27  and  C_28
REMARK                            x       y       z     vdW  Elec       q    Type
REMARK                         _______ _______ _______ _____ _____    ______ ____
ROOT
ATOM      1  C   UNL     1      -0.691   3.213  -1.897  0.00  0.00    +0.227 C 
ENDROOT
BRANCH   1   2
ATOM      2  C   UNL     1       0.291   3.113  -3.035  0.00  0.00    +0.233 C 
ATOM      3  O   UNL     1       0.772   2.039  -3.329  0.00  0.00    -0.274 OA
ATOM      4  N   UNL     1       0.636   4.218  -3.726  0.00  0.00    -0.307 N 
ATOM      5  H   UNL     1       0.201   5.192  -3.459  0.00  0.00    +0.149 HD
BRANCH   4   6
ATOM      6  C   UNL     1       1.591   4.121  -4.833  0.00  0.00    +0.111 C 
ATOM      7  C   UNL     1       1.357   5.276  -5.810  0.00  0.00    +0.074 C 
ATOM      8  C   UNL     1       2.539   5.326  -6.788  0.00  0.00    +0.107 C 
ATOM      9  O   UNL     1       3.719   5.648  -6.051  0.00  0.00    -0.486 OA
ATOM     10  C   UNL     1       3.976   4.939  -4.920  0.00  0.00    +0.126 A 
ATOM     11  C   UNL     1       2.996   4.191  -4.291  0.00  0.00    +0.018 A 
ATOM     12  C   UNL     1       3.300   3.487  -3.138  0.00  0.00    +0.054 A 
ATOM     13  C   UNL     1       4.582   3.525  -2.613  0.00  0.00    +0.121 A 
ATOM     14  C   UNL     1       5.565   4.272  -3.246  0.00  0.00    +0.049 A 
ATOM     15  C   UNL     1       5.263   4.975  -4.394  0.00  0.00    +0.049 A 
ATOM     16  C   UNL     1       2.708   3.963  -7.462  0.00  0.00    +0.055 C 
ATOM     17  C   UNL     1       2.284   6.398  -7.849  0.00  0.00    +0.055 C 
BRANCH  13  18
ATOM     18  O   UNL     1       4.876   2.832  -1.481  0.00  0.00    -0.495 OA
ATOM     19  C   UNL     1       6.218   2.918  -0.997  0.00  0.00    +0.277 C 
ENDBRANCH  13  18
ENDBRANCH   4   6
ENDBRANCH   1   2
BRANCH   1  20
ATOM     20  N   UNL     1      -0.897   1.885  -1.312  0.00  0.00    -0.191 N 
BRANCH  20  21
ATOM     21  C   UNL     1      -1.838   1.014  -1.871  0.00  0.00    +0.087 A 
ATOM     22  C   UNL     1      -1.486   0.204  -2.942  0.00  0.00    +0.027 A 
ATOM     23  C   UNL     1      -2.417  -0.656  -3.491  0.00  0.00    +0.002 A 
ATOM     24  C   UNL     1      -3.699  -0.711  -2.977  0.00  0.00    +0.003 A 
ATOM     25  C   UNL     1      -4.055   0.094  -1.910  0.00  0.00    +0.040 A 
ATOM     26  C   UNL     1      -3.127   0.953  -1.351  0.00  0.00    +0.146 A 
ATOM     27  F   UNL     1      -3.472   1.735  -0.305  0.00  0.00    -0.203 F 
ENDBRANCH  20  21
BRANCH  20  28
ATOM     28  S   UNL     1      -0.017   1.417   0.010  0.00  0.00    +0.075 S 
ATOM     29  O   UNL     1       0.002  -0.004   0.002  0.00  0.00    -0.150 OA
ATOM     30  O   UNL     1       1.172   2.195   0.003  0.00  0.00    -0.150 OA
BRANCH  28  35
ATOM     31  C   UNL     1      -3.132   3.072   4.905  0.00  0.00    +0.044 C 
ATOM     32  C   UNL     1      -2.354   2.659   3.683  0.00  0.00    -0.050 A 
ATOM     33  C   UNL     1      -2.559   1.412   3.121  0.00  0.00    +0.005 A 
ATOM     34  C   UNL     1      -1.846   1.033   2.000  0.00  0.00    +0.029 A 
ATOM     35  C   UNL     1      -0.927   1.900   1.439  0.00  0.00    +0.109 A 
ATOM     36  C   UNL     1      -0.717   3.145   2.004  0.00  0.00    +0.029 A 
ATOM     37  C   UNL     1      -1.434   3.526   3.123  0.00  0.00    +0.005 A 
ENDBRANCH  28  35
ENDBRANCH  20  28
ENDBRANCH   1  20
TORSDOF 7
