REMARK  Name = ZINC04198918
REMARK  10 active torsions:
REMARK  status: ('A' for Active; 'I' for Inactive)
REMARK    1  A    between atoms: C_3  and  O_18
REMARK    2  A    between atoms: C_6  and  C_7
REMARK    3  A    between atoms: N_8  and  N_9
REMARK    4  A    between atoms: C_10  and  C_12
REMARK    5  A    between atoms: O_18  and  C_19
REMARK    6  A    between atoms: C_21  and  O_34
REMARK    7  A    between atoms: C_23  and  O_33
REMARK    8  A    between atoms: C_25  and  O_32
REMARK    9  A    between atoms: C_27  and  C_30
REMARK   10  A    between atoms: C_30  and  O_31
REMARK                            x       y       z     vdW  Elec       q    Type
REMARK                         _______ _______ _______ _____ _____    ______ ____
ROOT
ATOM      1  C   UNL     1      -0.017   1.374   0.010  0.00  0.00    +0.013 A 
ATOM      2  C   UNL     1       0.002  -0.004   0.002  0.00  0.00    +0.046 A 
ATOM      3  C   UNL     1       1.213  -0.684  -0.013  0.00  0.00    +0.124 A 
ATOM      4  C   UNL     1       2.410   0.020  -0.021  0.00  0.00    +0.046 A 
ATOM      5  C   UNL     1       2.401   1.398  -0.013  0.00  0.00    +0.013 A 
ATOM      6  C   UNL     1       1.185   2.087   0.002  0.00  0.00    -0.005 A 
ENDROOT
BRANCH   6   7
ATOM      7  C   UNL     1       1.171   3.561   0.009  0.00  0.00    +0.138 C 
ATOM      8  N   UNL     1       2.288   4.221   0.002  0.00  0.00    -0.187 NA
BRANCH   8   9
ATOM      9  N   UNL     1       2.274   5.622   0.010  0.00  0.00    -0.203 N 
ATOM     10  C   UNL     1       3.435   6.308   0.002  0.00  0.00    +0.263 C 
ATOM     11  O   UNL     1       4.493   5.710  -0.011  0.00  0.00    -0.268 OA
ATOM     12  H   UNL     1       1.429   6.098   0.020  0.00  0.00    +0.178 HD
BRANCH  10  13
ATOM     13  C   UNL     1       3.420   7.788   0.010  0.00  0.00    +0.041 A 
ATOM     14  C   UNL     1       2.213   8.495   0.019  0.00  0.00    +0.033 A 
ATOM     15  C   UNL     1       2.246   9.876   0.031  0.00  0.00    +0.111 A 
ATOM     16  N   UNL     1       3.392  10.526   0.024  0.00  0.00    -0.263 NA
ATOM     17  C   UNL     1       4.552   9.899   0.010  0.00  0.00    +0.111 A 
ATOM     18  C   UNL     1       4.612   8.519   0.002  0.00  0.00    +0.033 A 
ENDBRANCH  10  13
ENDBRANCH   8   9
ENDBRANCH   6   7
BRANCH   3  19
ATOM     19  O   UNL     1       1.227  -2.043  -0.020  0.00  0.00    -0.461 OA
BRANCH  19  20
ATOM     20  C   UNL     1       2.506  -2.679  -0.036  0.00  0.00    +0.339 C 
ATOM     21  C   UNL     1       2.325  -4.194   0.084  0.00  0.00    +0.214 C 
ATOM     22  C   UNL     1       3.696  -4.872   0.005  0.00  0.00    +0.180 C 
ATOM     23  C   UNL     1       4.379  -4.470  -1.306  0.00  0.00    +0.177 C 
ATOM     24  C   UNL     1       4.481  -2.944  -1.371  0.00  0.00    +0.179 C 
ATOM     25  O   UNL     1       3.174  -2.375  -1.262  0.00  0.00    -0.331 OA
BRANCH  23  26
ATOM     26  O   UNL     1       5.689  -5.039  -1.356  0.00  0.00    -0.386 OA
ATOM     27  H   UNL     1       5.699  -6.005  -1.319  0.00  0.00    +0.210 HD
ENDBRANCH  23  26
BRANCH  22  28
ATOM     28  O   UNL     1       3.530  -6.291   0.042  0.00  0.00    -0.386 OA
ATOM     29  H   UNL     1       3.103  -6.617   0.846  0.00  0.00    +0.210 HD
ENDBRANCH  22  28
BRANCH  21  30
ATOM     30  O   UNL     1       1.709  -4.504   1.335  0.00  0.00    -0.383 OA
ATOM     31  H   UNL     1       0.838  -4.103   1.455  0.00  0.00    +0.210 HD
ENDBRANCH  21  30
BRANCH  24  32
ATOM     32  C   UNL     1       5.107  -2.531  -2.704  0.00  0.00    +0.190 C 
BRANCH  32  33
ATOM     33  O   UNL     1       5.309  -1.116  -2.719  0.00  0.00    -0.392 OA
ATOM     34  H   UNL     1       5.704  -0.783  -3.536  0.00  0.00    +0.210 HD
ENDBRANCH  32  33
ENDBRANCH  24  32
ENDBRANCH  19  20
ENDBRANCH   3  19
TORSDOF 10
