REMARK  Name = ZINC34792902
REMARK  11 active torsions:
REMARK  status: ('A' for Active; 'I' for Inactive)
REMARK    1  A    between atoms: C_1  and  C_2
REMARK    2  A    between atoms: C_13  and  O_15
REMARK    3  A    between atoms: O_15  and  C_16
REMARK    4  A    between atoms: C_16  and  C_18
REMARK    5  A    between atoms: C_18  and  C_19
REMARK    6  A    between atoms: C_19  and  C_20
REMARK    7  A    between atoms: C_24  and  O_33
REMARK    8  A    between atoms: C_27  and  C_29
REMARK    9  A    between atoms: C_29  and  O_31
REMARK   10  A    between atoms: O_31  and  C_32
REMARK   11  A    between atoms: C_42  and  C_43
REMARK                            x       y       z     vdW  Elec       q    Type
REMARK                         _______ _______ _______ _____ _____    ______ ____
ROOT
ATOM      1  C   UNL     1      -0.019   1.526   0.010  0.00  0.00    +0.015 C 
ATOM      2  C   UNL     1       0.002  -0.004   0.002  0.00  0.00    +0.008 C 
ATOM      3  C   UNL     1       0.595  -0.568  -1.292  0.00  0.00    +0.011 C 
ATOM      4  C   UNL     1       2.102  -0.332  -1.336  0.00  0.00    +0.005 C 
ATOM      5  C   UNL     1       2.756  -1.083  -0.170  0.00  0.00    +0.002 C 
ATOM      6  C   UNL     1       2.216  -0.518   1.141  0.00  0.00    -0.003 C 
ATOM      7  C   UNL     1       0.733  -0.586   1.224  0.00  0.00    +0.002 C 
ATOM      8  C   UNL     1       0.240  -2.036   1.327  0.00  0.00    +0.008 C 
ATOM      9  C   UNL     1      -1.145  -2.060   0.650  0.00  0.00    +0.045 C 
ATOM     10  C   UNL     1      -1.419  -0.620   0.162  0.00  0.00    +0.183 C 
ATOM     11  C   UNL     1       2.843  -1.271   2.320  0.00  0.00    +0.008 C 
ATOM     12  C   UNL     1       4.351  -1.014   2.340  0.00  0.00    +0.032 C 
ATOM     13  C   UNL     1       4.928  -1.405   0.991  0.00  0.00    -0.060 C 
ATOM     14  C   UNL     1       5.999  -2.198   0.979  0.00  0.00    +0.046 C 
ATOM     15  C   UNL     1       6.605  -2.593  -0.297  0.00  0.00    +0.156 C 
ATOM     16  O   UNL     1       7.306  -3.578  -0.393  0.00  0.00    -0.293 OA
ATOM     17  C   UNL     1       6.306  -1.706  -1.489  0.00  0.00    +0.080 C 
ATOM     18  C   UNL     1       4.794  -1.493  -1.534  0.00  0.00    +0.019 C 
ATOM     19  C   UNL     1       4.275  -0.890  -0.258  0.00  0.00    -0.007 C 
ATOM     20  C   UNL     1       4.556   0.612  -0.338  0.00  0.00    +0.016 C 
ENDROOT
BRANCH  10  21
ATOM     21  O   UNL     1      -2.103  -0.637  -1.093  0.00  0.00    -0.461 OA
BRANCH  21  22
ATOM     22  C   UNL     1      -3.441  -0.535  -1.059  0.00  0.00    +0.308 C 
ATOM     23  O   UNL     1      -4.013  -0.433   0.001  0.00  0.00    -0.251 OA
BRANCH  22  24
ATOM     24  C   UNL     1      -4.230  -0.545  -2.343  0.00  0.00    +0.130 C 
BRANCH  24  25
ATOM     25  C   UNL     1      -5.721  -0.415  -2.026  0.00  0.00    +0.107 C 
BRANCH  25  26
ATOM     26  C   UNL     1      -6.510  -0.426  -3.310  0.00  0.00    +0.217 C 
ATOM     27  O   UNL     1      -5.936  -0.528  -4.373  0.00  0.00    -0.276 OA
ATOM     28  N   UNL     1      -7.854  -0.323  -3.276  0.00  0.00    -0.285 N 
ATOM     29  C   UNL     1      -8.675  -0.188  -2.059  0.00  0.00    +0.140 C 
ATOM     30  C   UNL     1      -9.980   0.498  -2.535  0.00  0.00    +0.134 C 
ATOM     31  C   UNL     1     -10.186  -0.157  -3.926  0.00  0.00    +0.066 C 
ATOM     32  C   UNL     1      -8.742  -0.320  -4.447  0.00  0.00    +0.187 C 
BRANCH  32  33
ATOM     33  C   UNL     1      -8.613  -1.623  -5.192  0.00  0.00    +0.328 C 
ATOM     34  O   UNL     1      -7.856  -2.475  -4.792  0.00  0.00    -0.249 OA
BRANCH  33  35
ATOM     35  O   UNL     1      -9.339  -1.838  -6.301  0.00  0.00    -0.467 OA
ATOM     36  C   UNL     1      -9.166  -3.096  -6.957  0.00  0.00    +0.280 C 
ENDBRANCH  33  35
ENDBRANCH  32  33
BRANCH  30  37
ATOM     37  O   UNL     1     -11.067   0.194  -1.659  0.00  0.00    -0.390 OA
ATOM     38  H   UNL     1     -10.937   0.500  -0.751  0.00  0.00    +0.210 HD
ENDBRANCH  30  37
ENDBRANCH  25  26
ENDBRANCH  24  25
ENDBRANCH  22  24
ENDBRANCH  21  22
ENDBRANCH  10  21
TORSDOF 8
