REMARK  Name = ZINC01107810
REMARK  7 active torsions:
REMARK  status: ('A' for Active; 'I' for Inactive)
REMARK    1  A    between atoms: C_1  and  C_2
REMARK    2  A    between atoms: C_3  and  C_20
REMARK    3  A    between atoms: C_4  and  C_10
REMARK    4  A    between atoms: C_20  and  O_22
REMARK    5  A    between atoms: O_22  and  C_23
REMARK    6  A    between atoms: C_23  and  C_24
REMARK    7  A    between atoms: C_23  and  C_25
REMARK                            x       y       z     vdW  Elec       q    Type
REMARK                         _______ _______ _______ _____ _____    ______ ____
ROOT
ATOM      1  C   UNL     1      -0.519  -0.909   4.671  0.00  0.00    +0.061 C 
ATOM      2  C   UNL     1      -1.240   0.412   4.608  0.00  0.00    +0.021 C 
ATOM      3  C   UNL     1      -1.271   1.098   3.445  0.00  0.00    +0.078 C 
ATOM      4  C   UNL     1      -2.012   2.420   3.425  0.00  0.00    +0.145 C 
ATOM      5  N   UNL     1      -2.638   2.853   4.685  0.00  0.00    -0.288 N 
ATOM      6  C   UNL     1      -2.517   2.060   5.768  0.00  0.00    +0.304 C 
ATOM      7  O   UNL     1      -3.030   2.409   6.813  0.00  0.00    -0.252 OA
ATOM      8  N   UNL     1      -1.849   0.900   5.730  0.00  0.00    -0.273 N 
ATOM      9  H   UNL     1      -3.126   3.690   4.735  0.00  0.00    +0.151 HD
ATOM     10  H   UNL     1      -1.797   0.374   6.543  0.00  0.00    +0.156 HD
ENDROOT
BRANCH   4  11
ATOM     11  C   UNL     1      -1.042   3.490   2.997  0.00  0.00    -0.005 A 
ATOM     12  C   UNL     1      -0.315   4.183   3.948  0.00  0.00    +0.056 A 
ATOM     13  C   UNL     1       0.578   5.167   3.557  0.00  0.00    +0.167 A 
ATOM     14  C   UNL     1       0.742   5.457   2.204  0.00  0.00    +0.167 A 
ATOM     15  C   UNL     1       0.011   4.760   1.257  0.00  0.00    +0.065 A 
ATOM     16  C   UNL     1      -0.875   3.774   1.654  0.00  0.00    +0.027 A 
ATOM     17 BR   UNL     1      -1.865   2.818   0.357  0.00  0.00    -0.050 Br
ATOM     18  O   UNL     1       1.669   6.452   2.081  0.00  0.00    -0.453 OA
ATOM     19  C   UNL     1       1.768   7.049   3.387  0.00  0.00    +0.466 C 
ATOM     20  O   UNL     1       1.402   5.981   4.280  0.00  0.00    -0.453 OA
ENDBRANCH   4  11
BRANCH   3  21
ATOM     21  C   UNL     1      -0.637   0.597   2.284  0.00  0.00    +0.339 C 
ATOM     22  O   UNL     1      -1.293   0.036   1.427  0.00  0.00    -0.245 OA
BRANCH  21  23
ATOM     23  O   UNL     1       0.696   0.742   2.127  0.00  0.00    -0.459 OA
BRANCH  23  24
ATOM     24  C   UNL     1       1.253   0.312   0.884  0.00  0.00    +0.171 C 
ATOM     25  C   UNL     1       1.550  -1.187   0.948  0.00  0.00    +0.052 C 
ATOM     26  C   UNL     1       2.550   1.077   0.615  0.00  0.00    +0.052 C 
ENDBRANCH  23  24
ENDBRANCH  21  23
ENDBRANCH   3  21
TORSDOF 4
