REMARK  Name = ZINC57625127
REMARK  8 active torsions:
REMARK  status: ('A' for Active; 'I' for Inactive)
REMARK    1  A    between atoms: C_1  and  C_2
REMARK    2  A    between atoms: C_2  and  N_3
REMARK    3  A    between atoms: N_3  and  C_4
REMARK    4  A    between atoms: N_3  and  C_25
REMARK    5  A    between atoms: C_7  and  N_10
REMARK    6  A    between atoms: C_11  and  C_13
REMARK    7  A    between atoms: C_25  and  C_26
REMARK    8  A    between atoms: C_25  and  C_27
REMARK                            x       y       z     vdW  Elec       q    Type
REMARK                         _______ _______ _______ _____ _____    ______ ____
ROOT
ATOM      1  N   UNL     1       6.031   1.067  -1.026  0.00  0.00    -0.281 N 
ATOM      2  C   UNL     1       6.425   2.205  -1.631  0.00  0.00    +0.249 C 
ATOM      3  O   UNL     1       5.599   2.940  -2.139  0.00  0.00    -0.270 OA
ATOM      4  H   UNL     1       6.679   0.519  -0.555  0.00  0.00    +0.155 HD
ENDROOT
BRANCH   2   5
ATOM      5  C   UNL     1       7.853   2.558  -1.678  0.00  0.00    +0.051 C 
ATOM      6  C   UNL     1       8.266   3.718  -2.287  0.00  0.00    +0.089 C 
ATOM      7  N   UNL     1       9.579   4.065  -2.345  0.00  0.00    -0.288 N 
ATOM      8  C   UNL     1       9.878   5.291  -3.092  0.00  0.00    +0.136 C 
ATOM      9  C   UNL     1      11.012   6.068  -2.417  0.00  0.00    +0.212 C 
ATOM     10  S   UNL     1      12.446   4.949  -2.333  0.00  0.00    +0.073 S 
ATOM     11  O   UNL     1      13.385   5.418  -1.375  0.00  0.00    -0.151 OA
ATOM     12  O   UNL     1      12.862   4.577  -3.640  0.00  0.00    -0.151 OA
ATOM     13  N   UNL     1      11.809   3.572  -1.673  0.00  0.00    -0.118 NA
ATOM     14  C   UNL     1      10.529   3.287  -1.743  0.00  0.00    +0.147 C 
ATOM     15  C   UNL     1      10.152   2.057  -1.120  0.00  0.00    +0.046 C 
ATOM     16  C   UNL     1       8.857   1.682  -1.071  0.00  0.00    +0.018 C 
ENDBRANCH   2   5
BRANCH   1  20
ATOM     17  C   UNL     1       2.035  -0.099  -1.177  0.00  0.00    +0.014 A 
ATOM     18  C   UNL     1       2.796  -0.385  -0.058  0.00  0.00    +0.023 A 
ATOM     19  C   UNL     1       4.121   0.000  -0.004  0.00  0.00    +0.025 A 
ATOM     20  C   UNL     1       4.690   0.675  -1.077  0.00  0.00    +0.034 A 
ATOM     21  C   UNL     1       3.924   0.960  -2.199  0.00  0.00    +0.025 A 
ATOM     22  C   UNL     1       2.600   0.568  -2.248  0.00  0.00    +0.023 A 
BRANCH  17  23
ATOM     23  N   UNL     1       0.694  -0.490  -1.227  0.00  0.00    -0.392 NA
ATOM     24  H   UNL     1       0.294  -0.208  -2.110  0.00  0.00    +0.127 HD
BRANCH  23  25
ATOM     25  C   UNL     1       0.604  -1.950  -1.093  0.00  0.00    +0.049 C 
ATOM     26  C   UNL     1      -0.864  -2.378  -1.148  0.00  0.00    +0.026 C 
ATOM     27  C   UNL     1       1.372  -2.615  -2.237  0.00  0.00    +0.026 C 
ENDBRANCH  23  25
BRANCH  23  29
ATOM     28  C   UNL     1      -0.056   1.665  -0.336  0.00  0.00    +0.022 C 
ATOM     29  C   UNL     1      -0.044   0.149  -0.129  0.00  0.00    +0.082 C 
ENDBRANCH  23  29
ENDBRANCH  17  23
ENDBRANCH   1  20
TORSDOF 5
