REMARK  Name = ZINC65044073
REMARK  4 active torsions:
REMARK  status: ('A' for Active; 'I' for Inactive)
REMARK    1  A    between atoms: C_5  and  C_14
REMARK    2  A    between atoms: C_9  and  N_11
REMARK    3  A    between atoms: N_16  and  C_17
REMARK    4  A    between atoms: C_24  and  C_29
REMARK                            x       y       z     vdW  Elec       q    Type
REMARK                         _______ _______ _______ _____ _____    ______ ____
ROOT
ATOM      1  C   UNL     1       5.951   0.709  -0.028  0.00  0.00    +0.261 C 
ATOM      2  O   UNL     1       6.548   1.769  -0.041  0.00  0.00    -0.269 OA
ATOM      3  N   UNL     1       6.637  -0.451  -0.040  0.00  0.00    -0.303 N 
ATOM      4  H   UNL     1       6.160  -1.296  -0.029  0.00  0.00    +0.150 HD
ENDROOT
BRANCH   3   5
ATOM      5  C   UNL     1       8.101  -0.436  -0.068  0.00  0.00    +0.105 C 
ATOM      6  C   UNL     1       8.605  -1.724  -0.713  0.00  0.00    +0.027 C 
ATOM      7  C   UNL     1      10.126  -1.790  -0.528  0.00  0.00    +0.008 C 
ATOM      8  C   UNL     1      10.418  -2.017   0.953  0.00  0.00    +0.054 C 
ATOM      9  C   UNL     1       9.677  -1.016   1.803  0.00  0.00    +0.024 A 
ATOM     10  C   UNL     1       8.623  -0.305   1.340  0.00  0.00    -0.007 A 
ATOM     11  C   UNL     1       7.968   0.603   2.184  0.00  0.00    +0.025 A 
ATOM     12  C   UNL     1       8.409   0.769   3.491  0.00  0.00    +0.101 A 
ATOM     13  C   UNL     1       9.523   0.007   3.931  0.00  0.00    +0.261 A 
ATOM     14  O   UNL     1       9.938   0.129   5.071  0.00  0.00    -0.267 OA
ATOM     15  N   UNL     1      10.114  -0.850   3.084  0.00  0.00    -0.325 N 
ATOM     16  H   UNL     1      10.876  -1.366   3.392  0.00  0.00    +0.169 HD
BRANCH  12  17
ATOM     17  C   UNL     1       7.738   1.712   4.398  0.00  0.00    +0.247 C 
ATOM     18  O   UNL     1       6.854   2.435   3.978  0.00  0.00    -0.270 OA
ATOM     19  N   UNL     1       8.102   1.776   5.694  0.00  0.00    -0.325 N 
ATOM     20  H   UNL     1       8.855   1.254   6.013  0.00  0.00    +0.145 HD
ATOM     21  H   UNL     1       7.611   2.344   6.309  0.00  0.00    +0.145 HD
ENDBRANCH  12  17
ENDBRANCH   3   5
BRANCH   1  26
ATOM     22  C   UNL     1      -0.054   1.294   0.084  0.00  0.00    +0.003 A 
ATOM     23  C   UNL     1       1.105   2.014   0.061  0.00  0.00    +0.010 A 
ATOM     24  C   UNL     1       2.338   1.349   0.039  0.00  0.00    +0.003 A 
ATOM     25  C   UNL     1       3.682   1.793   0.013  0.00  0.00    +0.041 A 
ATOM     26  C   UNL     1       4.481   0.694  -0.000  0.00  0.00    +0.103 A 
ATOM     27  N   UNL     1       3.692  -0.440   0.017  0.00  0.00    -0.349 N 
ATOM     28  H   UNL     1       4.016  -1.354   0.012  0.00  0.00    +0.166 HD
ATOM     29  C   UNL     1       2.371  -0.060   0.041  0.00  0.00    +0.078 A 
ATOM     30  C   UNL     1       1.175  -0.772   0.065  0.00  0.00    +0.150 A 
ATOM     31  C   UNL     1      -0.024  -0.095   0.086  0.00  0.00    +0.035 A 
BRANCH  30  32
ATOM     32  N   UNL     1       1.192  -2.252   0.066  0.00  0.00    +0.058 N 
ATOM     33  O   UNL     1       0.153  -2.869   0.087  0.00  0.00    -0.126 OA
ATOM     34  O   UNL     1       2.246  -2.844   0.047  0.00  0.00    -0.126 OA
ENDBRANCH  30  32
ENDBRANCH   1  26
TORSDOF 4
