REMARK  Name = ZINC21718441
REMARK  8 active torsions:
REMARK  status: ('A' for Active; 'I' for Inactive)
REMARK    1  A    between atoms: C_1  and  C_2
REMARK    2  A    between atoms: C_4  and  C_21
REMARK    3  A    between atoms: C_6  and  S_9
REMARK    4  A    between atoms: C_7  and  C_8
REMARK    5  A    between atoms: S_9  and  N_12
REMARK    6  A    between atoms: N_12  and  C_13
REMARK    7  A    between atoms: C_16  and  O_19
REMARK    8  A    between atoms: O_19  and  C_20
REMARK                            x       y       z     vdW  Elec       q    Type
REMARK                         _______ _______ _______ _____ _____    ______ ____
ROOT
ATOM      1  C   UNL     1       6.023   0.679   0.240  0.00  0.00    +0.044 C 
ATOM      2  C   UNL     1       5.595  -0.763   0.153  0.00  0.00    -0.045 A 
ATOM      3  C   UNL     1       6.462  -1.764   0.543  0.00  0.00    +0.013 A 
ATOM      4  C   UNL     1       6.065  -3.097   0.462  0.00  0.00    +0.004 A 
ATOM      5  C   UNL     1       4.793  -3.412  -0.013  0.00  0.00    +0.039 A 
ATOM      6  C   UNL     1       3.935  -2.403  -0.401  0.00  0.00    +0.112 A 
ATOM      7  C   UNL     1       4.336  -1.082  -0.323  0.00  0.00    -0.021 A 
ATOM      8  C   UNL     1       3.397   0.015  -0.754  0.00  0.00    +0.046 C 
ENDROOT
BRANCH   4   9
ATOM      9  C   UNL     1       6.992  -4.177   0.880  0.00  0.00    +0.091 A 
ATOM     10  C   UNL     1       8.284  -3.851   1.356  0.00  0.00    +0.035 A 
ATOM     11  C   UNL     1       9.107  -4.870   1.736  0.00  0.00    +0.073 A 
ATOM     12  C   UNL     1       8.621  -6.191   1.619  0.00  0.00    +0.265 A 
ATOM     13  O   UNL     1       9.325  -7.135   1.942  0.00  0.00    -0.266 OA
ATOM     14  N   UNL     1       7.378  -6.401   1.149  0.00  0.00    -0.243 N 
ATOM     15  H   UNL     1       6.991  -7.427   1.055  0.00  0.00    +0.192 HD
ATOM     16  N   UNL     1       6.613  -5.430   0.801  0.00  0.00    -0.171 NA
ENDBRANCH   4   9
BRANCH   6  17
ATOM     17  S   UNL     1       2.327  -2.800  -1.002  0.00  0.00    +0.073 S 
ATOM     18  O   UNL     1       2.192  -4.211  -0.902  0.00  0.00    -0.150 OA
ATOM     19  O   UNL     1       2.170  -2.105  -2.231  0.00  0.00    -0.150 OA
BRANCH  17  20
ATOM     20  N   UNL     1       1.233  -2.144   0.055  0.00  0.00    -0.216 N 
ATOM     21  H   UNL     1       0.522  -1.381  -0.292  0.00  0.00    +0.174 HD
BRANCH  20  22
ATOM     22  C   UNL     1       1.215  -2.562   1.391  0.00  0.00    +0.048 A 
ATOM     23  C   UNL     1       1.148  -1.623   2.411  0.00  0.00    +0.028 A 
ATOM     24  C   UNL     1       1.129  -2.035   3.729  0.00  0.00    +0.047 A 
ATOM     25  C   UNL     1       1.177  -3.388   4.034  0.00  0.00    +0.120 A 
ATOM     26  C   UNL     1       1.244  -4.327   3.015  0.00  0.00    +0.047 A 
ATOM     27  C   UNL     1       1.263  -3.916   1.696  0.00  0.00    +0.028 A 
BRANCH  25  28
ATOM     28  O   UNL     1       1.159  -3.793   5.332  0.00  0.00    -0.495 OA
ATOM     29  C   UNL     1       1.212  -5.201   5.572  0.00  0.00    +0.277 C 
ENDBRANCH  25  28
ENDBRANCH  20  22
ENDBRANCH  17  20
ENDBRANCH   6  17
TORSDOF 5
