REMARK  Name = ZINC55553585
REMARK  7 active torsions:
REMARK  status: ('A' for Active; 'I' for Inactive)
REMARK    1  A    between atoms: C_1  and  C_2
REMARK    2  A    between atoms: C_2  and  C_3
REMARK    3  A    between atoms: C_4  and  C_26
REMARK    4  A    between atoms: C_6  and  C_8
REMARK    5  A    between atoms: N_10  and  C_11
REMARK    6  A    between atoms: C_13  and  C_23
REMARK    7  A    between atoms: C_16  and  N_17
REMARK                            x       y       z     vdW  Elec       q    Type
REMARK                         _______ _______ _______ _____ _____    ______ ____
ROOT
ATOM      1  C   UNL     1       0.807  -2.171  -7.146  0.00  0.00    +0.056 A 
ATOM      2  C   UNL     1       2.071  -2.522  -7.579  0.00  0.00    +0.038 A 
ATOM      3  C   UNL     1       2.279  -2.858  -8.920  0.00  0.00    +0.038 A 
ATOM      4  C   UNL     1       1.208  -2.838  -9.817  0.00  0.00    +0.015 A 
ATOM      5  C   UNL     1      -0.051  -2.488  -9.381  0.00  0.00    +0.026 A 
ATOM      6  C   UNL     1      -0.261  -2.158  -8.047  0.00  0.00    +0.051 A 
ENDROOT
BRANCH   6   7
ATOM      7  N   UNL     1      -1.536  -1.810  -7.609  0.00  0.00    -0.328 N 
ATOM      8  C   UNL     1      -1.985  -0.412  -7.646  0.00  0.00    +0.105 C 
ATOM      9  C   UNL     1      -3.311  -0.339  -8.411  0.00  0.00    +0.019 C 
ATOM     10  C   UNL     1      -4.314  -1.305  -7.777  0.00  0.00    +0.003 C 
ATOM     11  C   UNL     1      -3.779  -2.735  -7.872  0.00  0.00    +0.019 C 
ATOM     12  C   UNL     1      -2.461  -2.836  -7.107  0.00  0.00    +0.105 C 
ENDBRANCH   6   7
BRANCH   3  13
ATOM     13  C   UNL     1       3.627  -3.232  -9.387  0.00  0.00    +0.242 C 
ATOM     14  O   UNL     1       4.559  -3.249  -8.606  0.00  0.00    -0.270 OA
ATOM     15  N   UNL     1       3.826  -3.557 -10.680  0.00  0.00    -0.325 N 
ATOM     16  H   UNL     1       3.083  -3.544 -11.304  0.00  0.00    +0.145 HD
ATOM     17  H   UNL     1       4.713  -3.803 -10.988  0.00  0.00    +0.145 HD
ENDBRANCH   3  13
BRANCH   1  20
ATOM     18  C   UNL     1       1.424  -2.304  -4.850  0.00  0.00    +0.255 C 
ATOM     19  O   UNL     1       2.296  -3.102  -5.143  0.00  0.00    -0.269 OA
ATOM     20  N   UNL     1       0.595  -1.833  -5.803  0.00  0.00    -0.280 N 
ATOM     21  H   UNL     1      -0.149  -1.261  -5.558  0.00  0.00    +0.155 HD
BRANCH  18  25
ATOM     22  C   UNL     1       0.598  -0.749  -1.168  0.00  0.00    -0.007 A 
ATOM     23  C   UNL     1       1.638  -1.619  -1.165  0.00  0.00    -0.040 A 
ATOM     24  C   UNL     1       2.016  -2.212  -2.346  0.00  0.00    +0.024 A 
ATOM     25  C   UNL     1       1.277  -1.856  -3.463  0.00  0.00    +0.075 A 
ATOM     26  S   UNL     1       0.095  -0.714  -2.771  0.00  0.00    -0.088 S 
ATOM     27  C   UNL     1       2.370  -1.930   0.115  0.00  0.00    +0.044 C 
BRANCH  22  29
ATOM     28  C   UNL     1       0.733   1.356   0.135  0.00  0.00    +0.009 C 
ATOM     29  C   UNL     1       0.021   0.008   0.000  0.00  0.00    +0.039 C 
ENDBRANCH  22  29
ENDBRANCH  18  25
ENDBRANCH   1  20
TORSDOF 5
