REMARK  Name = ZINC09358620
REMARK  5 active torsions:
REMARK  status: ('A' for Active; 'I' for Inactive)
REMARK    1  A    between atoms: C_4  and  C_7
REMARK    2  A    between atoms: C_7  and  N_53
REMARK    3  A    between atoms: N_10  and  C_13
REMARK    4  A    between atoms: C_14  and  N_29
REMARK    5  A    between atoms: N_18  and  C_19
REMARK                            x       y       z     vdW  Elec       q    Type
REMARK                         _______ _______ _______ _____ _____    ______ ____
ROOT
ATOM      1  C   UNL     1      -1.087   1.470  -0.085  0.00  0.00    +0.136 A 
ATOM      2  C   UNL     1       0.215   0.947  -0.076  0.00  0.00    +0.203 A 
ATOM      3  C   UNL     1       1.289   1.827   0.054  0.00  0.00    +0.154 A 
ATOM      4  N   UNL     1       1.063   3.138   0.162  0.00  0.00    -0.195 NA
ATOM      5  C   UNL     1      -0.165   3.624   0.148  0.00  0.00    +0.232 A 
ATOM      6  N   UNL     1      -0.348   4.952   0.260  0.00  0.00    -0.213 NA
ATOM      7  N   UNL     1      -1.252   2.807   0.023  0.00  0.00    -0.310 N 
ATOM      8  H   UNL     1      -2.145   3.187   0.015  0.00  0.00    +0.170 HD
ATOM      9  N   UNL     1       2.580   1.344   0.072  0.00  0.00    -0.341 N 
ATOM     10  H   UNL     1       3.314   1.931   0.309  0.00  0.00    +0.144 HD
ATOM     11  H   UNL     1       2.754   0.417  -0.154  0.00  0.00    +0.144 HD
ENDROOT
BRANCH   1  14
ATOM     12  C   UNL     1      -3.887  -0.668   0.941  0.00  0.00    -0.059 C 
ATOM     13  C   UNL     1      -2.731   0.320   1.113  0.00  0.00    +0.088 C 
ATOM     14  N   UNL     1      -2.167   0.644  -0.205  0.00  0.00    -0.318 N 
ATOM     15  C   UNL     1      -3.188   1.236  -1.081  0.00  0.00    +0.088 C 
ATOM     16  C   UNL     1      -4.343   0.247  -1.253  0.00  0.00    -0.059 C 
ATOM     17  N   UNL     1      -4.916  -0.052   0.076  0.00  0.00    +0.384 N 
ATOM     18  H   UNL     1      -5.234   0.823   0.508  0.00  0.00    -0.081 HD
BRANCH  17  19
ATOM     19  C   UNL     1      -6.070  -0.966  -0.064  0.00  0.00    -0.043 C 
BRANCH  19  23
ATOM     20  C   UNL     1      -9.241   1.111  -2.035  0.00  0.00    +0.000 A 
ATOM     21  C   UNL     1      -8.319   0.395  -2.775  0.00  0.00    +0.000 A 
ATOM     22  C   UNL     1      -7.293  -0.277  -2.137  0.00  0.00    +0.002 A 
ATOM     23  C   UNL     1      -7.189  -0.233  -0.759  0.00  0.00    -0.064 A 
ATOM     24  C   UNL     1      -8.113   0.479  -0.019  0.00  0.00    +0.002 A 
ATOM     25  C   UNL     1      -9.136   1.156  -0.657  0.00  0.00    +0.000 A 
ENDBRANCH  19  23
ENDBRANCH  17  19
ENDBRANCH   1  14
BRANCH   6  26
ATOM     26  C   UNL     1      -1.564   5.466   0.138  0.00  0.00    +0.069 A 
ATOM     27  C   UNL     1      -2.396   5.720   1.322  0.00  0.00    +0.028 A 
ATOM     28  C   UNL     1      -3.640   6.249   1.153  0.00  0.00    +0.003 A 
ATOM     29  C   UNL     1      -4.124   6.547  -0.115  0.00  0.00    +0.020 A 
ATOM     30  C   UNL     1      -3.369   6.323  -1.262  0.00  0.00    +0.043 A 
ATOM     31  C   UNL     1      -2.112   5.801  -1.181  0.00  0.00    +0.047 A 
ATOM     32 CL   UNL     1      -4.034   6.719  -2.816  0.00  0.00    -0.083 Cl
ENDBRANCH   6  26
BRANCH   2  33
ATOM     33  N   UNL     1       0.444  -0.511  -0.197  0.00  0.00    +0.063 N 
ATOM     34  O   UNL     1       1.556  -1.044   0.264  0.00  0.00    -0.126 OA
ATOM     35  O   UNL     1      -0.466  -1.275  -0.765  0.00  0.00    -0.126 OA
ENDBRANCH   2  33
TORSDOF 5
