REMARK  Name = ZINC04938883
REMARK  3 active torsions:
REMARK  status: ('A' for Active; 'I' for Inactive)
REMARK    1  A    between atoms: C_1  and  C_2
REMARK    2  A    between atoms: C_3  and  C_7
REMARK    3  A    between atoms: C_13  and  C_15
REMARK                            x       y       z     vdW  Elec       q    Type
REMARK                         _______ _______ _______ _____ _____    ______ ____
ROOT
ATOM      1  C   UNL     1       5.757   5.229  -0.025  0.00  0.00    +0.189 A 
ATOM      2  N   UNL     1       7.053   5.020  -0.038  0.00  0.00    -0.126 NA
ATOM      3  N   UNL     1       7.293   3.755  -0.047  0.00  0.00    -0.120 NA
ATOM      4  C   UNL     1       6.172   3.098  -0.040  0.00  0.00    +0.219 A 
ATOM      5  N   UNL     1       5.129   3.993  -0.025  0.00  0.00    -0.185 N 
ATOM      6  N   UNL     1       3.849   3.454  -0.022  0.00  0.00    -0.155 NA
ATOM      7  C   UNL     1       3.660   2.159  -0.021  0.00  0.00    +0.134 A 
ATOM      8  S   UNL     1       5.333   1.533  -0.041  0.00  0.00    -0.026 S 
ENDROOT
BRANCH   7   9
ATOM      9  C   UNL     1       2.386   1.406  -0.013  0.00  0.00    +0.027 A 
ATOM     10  C   UNL     1       2.397   0.011  -0.020  0.00  0.00    +0.012 A 
ATOM     11  C   UNL     1       1.206  -0.686  -0.013  0.00  0.00    +0.001 A 
ATOM     12  C   UNL     1       0.002  -0.004   0.002  0.00  0.00    +0.001 A 
ATOM     13  C   UNL     1      -0.017   1.379   0.010  0.00  0.00    +0.020 A 
ATOM     14  C   UNL     1       1.169   2.088   0.002  0.00  0.00    +0.051 A 
ATOM     15 CL   UNL     1       1.144   3.824   0.011  0.00  0.00    -0.083 Cl
ENDBRANCH   7   9
BRANCH   1  18
ATOM     16  C   UNL     1       7.167   8.029  -0.010  0.00  0.00    +0.087 C 
ATOM     17  C   UNL     1       5.683   7.771  -0.005  0.00  0.00    +0.113 A 
ATOM     18  C   UNL     1       5.088   6.548  -0.011  0.00  0.00    +0.062 A 
ATOM     19  C   UNL     1       3.643   6.809   0.005  0.00  0.00    +0.053 A 
ATOM     20  C   UNL     1       3.506   8.145   0.013  0.00  0.00    +0.196 A 
ATOM     21  O   UNL     1       4.723   8.709   0.005  0.00  0.00    -0.467 OA
ENDBRANCH   1  18
TORSDOF 2
