REMARK  Name = ZINC12497157
REMARK  8 active torsions:
REMARK  status: ('A' for Active; 'I' for Inactive)
REMARK    1  A    between atoms: C_1  and  C_2
REMARK    2  A    between atoms: C_7  and  C_8
REMARK    3  A    between atoms: N_16  and  C_19
REMARK    4  A    between atoms: C_25  and  C_26
REMARK    5  A    between atoms: C_25  and  C_28
REMARK    6  A    between atoms: C_26  and  O_27
REMARK    7  A    between atoms: C_28  and  O_30
REMARK    8  A    between atoms: O_30  and  C_31
REMARK                            x       y       z     vdW  Elec       q    Type
REMARK                         _______ _______ _______ _____ _____    ______ ____
ROOT
ATOM      1  C   UNL     1       2.239   2.917  -0.270  0.00  0.00    -0.026 C 
ATOM      2  C   UNL     1       1.365   1.766  -0.002  0.00  0.00    +0.077 C 
ATOM      3  C   UNL     1       2.041   0.617  -0.837  0.00  0.00    +0.088 C 
ATOM      4  C   UNL     1       1.238  -0.515  -0.279  0.00  0.00    +0.229 C 
ATOM      5  O   UNL     1       1.609  -1.656  -0.110  0.00  0.00    -0.275 OA
ATOM      6  N   UNL     1       0.002  -0.004   0.002  0.00  0.00    -0.210 N 
ATOM      7  C   UNL     1      -0.017   1.369   0.010  0.00  0.00    +0.229 C 
ATOM      8  O   UNL     1      -0.990   2.091   0.018  0.00  0.00    -0.275 OA
ATOM      9  C   UNL     1       3.484   0.845  -0.424  0.00  0.00    +0.067 C 
ATOM     10  N   UNL     1       3.603   2.307  -0.184  0.00  0.00    +0.397 N 
ATOM     11  H   UNL     1       3.999   2.474   0.748  0.00  0.00    -0.083 HD
ATOM     12  H   UNL     1       4.214   2.726  -0.896  0.00  0.00    -0.083 HD
ENDROOT
BRANCH   1  19
ATOM     13  C   UNL     1       0.127   4.868  -0.548  0.00  0.00    +0.044 C 
ATOM     14  C   UNL     1       1.045   4.917   0.646  0.00  0.00    -0.049 A 
ATOM     15  C   UNL     1       0.877   5.895   1.608  0.00  0.00    +0.003 A 
ATOM     16  C   UNL     1       1.719   5.939   2.703  0.00  0.00    +0.000 A 
ATOM     17  C   UNL     1       2.729   5.005   2.837  0.00  0.00    +0.000 A 
ATOM     18  C   UNL     1       2.894   4.024   1.877  0.00  0.00    +0.002 A 
ATOM     19  C   UNL     1       2.055   3.983   0.779  0.00  0.00    -0.058 A 
ENDBRANCH   1  19
BRANCH   6  20
ATOM     20  C   UNL     1      -1.126  -0.797   0.255  0.00  0.00    +0.044 A 
ATOM     21  C   UNL     1      -1.025  -2.181   0.223  0.00  0.00    +0.024 A 
ATOM     22  C   UNL     1      -2.137  -2.960   0.478  0.00  0.00    +0.002 A 
ATOM     23  C   UNL     1      -3.352  -2.362   0.755  0.00  0.00    +0.000 A 
ATOM     24  C   UNL     1      -3.458  -0.984   0.782  0.00  0.00    +0.002 A 
ATOM     25  C   UNL     1      -2.348  -0.200   0.533  0.00  0.00    +0.024 A 
ENDBRANCH   6  20
BRANCH   9  26
ATOM     26  C   UNL     1       3.790   0.080   0.839  0.00  0.00    +0.299 C 
ATOM     27  O   UNL     1       3.147  -0.904   1.120  0.00  0.00    -0.252 OA
BRANCH  26  28
ATOM     28  O   UNL     1       4.777   0.492   1.650  0.00  0.00    -0.469 OA
ATOM     29  C   UNL     1       5.015  -0.293   2.848  0.00  0.00    +0.280 C 
ENDBRANCH  26  28
ENDBRANCH   9  26
BRANCH   9  30
ATOM     30  C   UNL     1       4.429   0.409  -1.546  0.00  0.00    +0.155 C 
BRANCH  30  31
ATOM     31  O   UNL     1       5.782   0.630  -1.141  0.00  0.00    -0.396 OA
ATOM     32  H   UNL     1       6.437   0.376  -1.805  0.00  0.00    +0.209 HD
ENDBRANCH  30  31
ENDBRANCH   9  30
TORSDOF 6
