REMARK  Name = ZINC66481910
REMARK  9 active torsions:
REMARK  status: ('A' for Active; 'I' for Inactive)
REMARK    1  A    between atoms: C_1  and  C_2
REMARK    2  A    between atoms: C_2  and  C_3
REMARK    3  A    between atoms: C_3  and  C_22
REMARK    4  A    between atoms: N_6  and  C_10
REMARK    5  A    between atoms: C_10  and  C_11
REMARK    6  A    between atoms: C_11  and  C_13
REMARK    7  A    between atoms: C_11  and  O_21
REMARK    8  A    between atoms: C_13  and  N_14
REMARK    9  A    between atoms: C_17  and  C_20
REMARK                            x       y       z     vdW  Elec       q    Type
REMARK                         _______ _______ _______ _____ _____    ______ ____
ROOT
ATOM      1  C   UNL     1      -1.433  -0.534   0.013  0.00  0.00    +0.138 C 
ATOM      2  C   UNL     1      -2.205   0.042   1.184  0.00  0.00    +0.251 C 
ATOM      3  O   UNL     1      -1.958  -0.098   2.363  0.00  0.00    -0.272 OA
ATOM      4  N   UNL     1      -3.222   0.740   0.642  0.00  0.00    -0.222 N 
ATOM      5  C   UNL     1      -3.200   0.687  -0.695  0.00  0.00    +0.310 C 
ATOM      6  O   UNL     1      -4.016   1.240  -1.406  0.00  0.00    -0.252 OA
ATOM      7  N   UNL     1      -2.175  -0.046  -1.163  0.00  0.00    -0.281 N 
ATOM      8  H   UNL     1      -1.964  -0.220  -2.094  0.00  0.00    +0.152 HD
ENDROOT
BRANCH   1   9
ATOM      9  C   UNL     1      -1.441  -2.040   0.057  0.00  0.00    -0.015 A 
ATOM     10  C   UNL     1      -0.412  -2.717   0.685  0.00  0.00    +0.009 A 
ATOM     11  C   UNL     1      -0.418  -4.099   0.727  0.00  0.00    +0.039 A 
ATOM     12  C   UNL     1      -1.455  -4.804   0.140  0.00  0.00    +0.123 A 
ATOM     13  C   UNL     1      -2.485  -4.125  -0.488  0.00  0.00    +0.039 A 
ATOM     14  C   UNL     1      -2.479  -2.743  -0.524  0.00  0.00    +0.009 A 
ATOM     15  F   UNL     1      -1.461  -6.155   0.179  0.00  0.00    -0.205 F 
ENDBRANCH   1   9
BRANCH   1  17
ATOM     16  C   UNL     1      -0.019   1.526   0.010  0.00  0.00    +0.007 C 
ATOM     17  C   UNL     1       0.002  -0.004   0.002  0.00  0.00    +0.037 C 
ENDBRANCH   1  17
BRANCH   4  18
ATOM     18  C   UNL     1      -4.228   1.468   1.421  0.00  0.00    +0.147 C 
BRANCH  18  19
ATOM     19  C   UNL     1      -3.749   2.901   1.659  0.00  0.00    +0.116 C 
BRANCH  19  20
ATOM     20  O   UNL     1      -2.515   2.878   2.379  0.00  0.00    -0.392 OA
ATOM     21  H   UNL     1      -2.572   2.448   3.244  0.00  0.00    +0.210 HD
ENDBRANCH  19  20
BRANCH  19  22
ATOM     22  C   UNL     1      -4.799   3.661   2.472  0.00  0.00    -0.046 C 
BRANCH  22  23
ATOM     23  N   UNL     1      -4.397   5.068   2.599  0.00  0.00    +0.381 N 
ATOM     24  C   UNL     1      -4.392   5.696   1.272  0.00  0.00    -0.078 C 
ATOM     25  C   UNL     1      -3.895   7.138   1.388  0.00  0.00    -0.016 C 
ATOM     26  C   UNL     1      -4.826   7.919   2.321  0.00  0.00    -0.018 C 
ATOM     27  C   UNL     1      -4.881   7.214   3.679  0.00  0.00    -0.016 C 
ATOM     28  C   UNL     1      -5.341   5.768   3.478  0.00  0.00    -0.078 C 
ATOM     29  C   UNL     1      -4.291   9.341   2.504  0.00  0.00    +0.007 C 
ATOM     30  H   UNL     1      -3.470   5.117   2.995  0.00  0.00    -0.082 HD
ENDBRANCH  22  23
ENDBRANCH  19  22
ENDBRANCH  18  19
ENDBRANCH   4  18
TORSDOF 7
