REMARK  Name = ZINC39545943
REMARK  7 active torsions:
REMARK  status: ('A' for Active; 'I' for Inactive)
REMARK    1  A    between atoms: C_1  and  C_2
REMARK    2  A    between atoms: C_2  and  C_3
REMARK    3  A    between atoms: C_2  and  S_4
REMARK    4  A    between atoms: S_4  and  N_7
REMARK    5  A    between atoms: C_8  and  C_10
REMARK    6  A    between atoms: C_13  and  C_24
REMARK    7  A    between atoms: C_29  and  O_30
REMARK                            x       y       z     vdW  Elec       q    Type
REMARK                         _______ _______ _______ _____ _____    ______ ____
ROOT
ATOM      1  C   UNL     1      -1.712  -0.232   4.510  0.00  0.00    +0.153 C 
ATOM      2  C   UNL     1      -0.778   0.051   5.701  0.00  0.00    +0.069 C 
ATOM      3  C   UNL     1      -1.308  -0.833   6.808  0.00  0.00    -0.000 C 
ATOM      4  C   UNL     1      -2.350  -1.517   6.357  0.00  0.00    +0.079 C 
ATOM      5  N   UNL     1      -3.132  -2.415   7.096  0.00  0.00    -0.303 N 
ATOM      6  C   UNL     1      -4.503  -2.398   6.787  0.00  0.00    +0.037 A 
ATOM      7  C   UNL     1      -5.388  -3.161   7.535  0.00  0.00    +0.023 A 
ATOM      8  C   UNL     1      -6.734  -3.151   7.226  0.00  0.00    +0.002 A 
ATOM      9  C   UNL     1      -7.192  -2.381   6.172  0.00  0.00    +0.000 A 
ATOM     10  C   UNL     1      -6.311  -1.618   5.430  0.00  0.00    +0.007 A 
ATOM     11  C   UNL     1      -4.960  -1.617   5.735  0.00  0.00    -0.010 A 
ATOM     12  C   UNL     1      -4.028  -0.756   4.925  0.00  0.00    +0.124 C 
ATOM     13  N   UNL     1      -2.651  -1.247   5.012  0.00  0.00    -0.369 NA
ATOM     14  H   UNL     1      -2.756  -3.004   7.768  0.00  0.00    +0.153 HD
ATOM     15  H   UNL     1      -2.561  -2.092   4.467  0.00  0.00    +0.128 HD
ENDROOT
BRANCH   3  16
ATOM     16  C   UNL     1      -0.753  -0.920   8.172  0.00  0.00    +0.023 A 
ATOM     17  C   UNL     1       0.009  -2.027   8.550  0.00  0.00    +0.012 A 
ATOM     18  C   UNL     1       0.525  -2.103   9.827  0.00  0.00    +0.001 A 
ATOM     19  C   UNL     1       0.289  -1.086  10.736  0.00  0.00    +0.004 A 
ATOM     20  C   UNL     1      -0.465   0.015  10.373  0.00  0.00    +0.046 A 
ATOM     21  C   UNL     1      -0.984   0.109   9.093  0.00  0.00    +0.124 A 
BRANCH  21  22
ATOM     22  O   UNL     1      -1.720   1.194   8.734  0.00  0.00    -0.506 OA
ATOM     23  H   UNL     1      -2.667   1.100   8.902  0.00  0.00    +0.292 HD
ENDBRANCH  21  22
ENDBRANCH   3  16
BRANCH   1  25
ATOM     24  N   UNL     1       0.017  -0.011   2.755  0.00  0.00    -0.003 N 
ATOM     25  C   UNL     1      -0.927  -0.772   3.342  0.00  0.00    +0.283 C 
ATOM     26  O   UNL     1      -1.145  -1.893   2.931  0.00  0.00    -0.269 OA
ATOM     27  F   UNL     1       0.251   1.190   3.195  0.00  0.00    -0.083 F 
BRANCH  24  28
ATOM     28  S   UNL     1       0.879  -0.605   1.472  0.00  0.00    +0.076 S 
ATOM     29  O   UNL     1       0.754  -2.017   1.573  0.00  0.00    -0.153 OA
ATOM     30  O   UNL     1       2.152   0.018   1.571  0.00  0.00    -0.153 OA
BRANCH  28  32
ATOM     31  C   UNL     1      -0.019   1.526   0.010  0.00  0.00    +0.033 C 
ATOM     32  C   UNL     1       0.002  -0.004   0.002  0.00  0.00    +0.148 C 
ATOM     33  C   UNL     1       0.718  -0.497  -1.257  0.00  0.00    +0.033 C 
ENDBRANCH  28  32
ENDBRANCH  24  28
ENDBRANCH   1  25
TORSDOF 5
