REMARK  Name = ZINC65403601
REMARK  2 active torsions:
REMARK  status: ('A' for Active; 'I' for Inactive)
REMARK    1  A    between atoms: C_3  and  N_21
REMARK    2  A    between atoms: C_6  and  C_7
REMARK                            x       y       z     vdW  Elec       q    Type
REMARK                         _______ _______ _______ _____ _____    ______ ____
ROOT
ATOM      1  C   UNL     1      -1.265  -0.761   0.011  0.00  0.00    +0.247 C 
ATOM      2  O   UNL     1      -0.226  -0.142  -0.103  0.00  0.00    -0.270 OA
ATOM      3  N   UNL     1      -1.242  -2.106   0.105  0.00  0.00    -0.294 N 
ATOM      4  C   UNL     1       0.033  -2.831   0.206  0.00  0.00    +0.123 C 
ATOM      5  C   UNL     1       0.047  -3.950  -0.843  0.00  0.00    +0.104 C 
ATOM      6  N   UNL     1      -1.159  -4.772  -0.683  0.00  0.00    -0.287 NA
ATOM      7  C   UNL     1      -1.120  -5.963  -1.542  0.00  0.00    +0.104 C 
ATOM      8  C   UNL     1      -2.229  -6.922  -1.106  0.00  0.00    +0.119 C 
ATOM      9  N   UNL     1      -3.498  -6.209  -0.998  0.00  0.00    -0.313 N 
ATOM     10  C   UNL     1      -3.580  -4.877  -0.902  0.00  0.00    +0.232 C 
ATOM     11  O   UNL     1      -4.674  -4.368  -0.776  0.00  0.00    -0.274 OA
ATOM     12  C   UNL     1      -2.372  -3.988  -0.945  0.00  0.00    +0.161 C 
ATOM     13  C   UNL     1      -2.492  -2.882   0.115  0.00  0.00    +0.136 C 
ATOM     14  H   UNL     1      -4.320  -6.725  -0.995  0.00  0.00    +0.149 HD
ENDROOT
BRANCH   1  20
ATOM     15  C   UNL     1      -3.566  -0.458   0.912  0.00  0.00    +0.015 A 
ATOM     16  C   UNL     1      -4.767   0.216   0.942  0.00  0.00    +0.027 A 
ATOM     17  C   UNL     1      -4.972   1.311   0.110  0.00  0.00    +0.047 A 
ATOM     18  C   UNL     1      -3.966   1.729  -0.755  0.00  0.00    +0.027 A 
ATOM     19  C   UNL     1      -2.764   1.059  -0.790  0.00  0.00    +0.015 A 
ATOM     20  C   UNL     1      -2.554  -0.041   0.045  0.00  0.00    +0.037 A 
BRANCH  17  21
ATOM     21  N   UNL     1      -6.192   1.994   0.142  0.00  0.00    -0.306 N 
ATOM     22  C   UNL     1      -6.539   3.080  -0.619  0.00  0.00    +0.112 A 
ATOM     23  C   UNL     1      -7.795   3.416  -0.269  0.00  0.00    +0.130 A 
ATOM     24  N   UNL     1      -8.209   2.562   0.679  0.00  0.00    -0.244 NA
ATOM     25  C   UNL     1      -7.260   1.702   0.930  0.00  0.00    +0.204 A 
ENDBRANCH  17  21
ENDBRANCH   1  20
TORSDOF 2
