REMARK  Name = ZINC12562674
REMARK  6 active torsions:
REMARK  status: ('A' for Active; 'I' for Inactive)
REMARK    1  A    between atoms: C_1  and  C_2
REMARK    2  A    between atoms: C_9  and  N_14
REMARK    3  A    between atoms: N_14  and  C_15
REMARK    4  A    between atoms: C_15  and  C_17
REMARK    5  A    between atoms: C_15  and  C_18
REMARK    6  A    between atoms: N_20  and  C_21
REMARK                            x       y       z     vdW  Elec       q    Type
REMARK                         _______ _______ _______ _____ _____    ______ ____
ROOT
ATOM      1  N   UNL     1      -3.435  -2.493  -0.306  0.00  0.00    -0.333 N 
ATOM      2  H   UNL     1      -2.609  -2.853   0.053  0.00  0.00    +0.147 HD
ENDROOT
BRANCH   1  10
ATOM      3  C   UNL     1      -5.913  -6.489  -4.764  0.00  0.00    +0.062 C 
ATOM      4  C   UNL     1      -6.549  -6.969  -3.457  0.00  0.00    +0.256 C 
ATOM      5  C   UNL     1      -5.503  -7.645  -2.609  0.00  0.00    +0.258 C 
ATOM      6  O   UNL     1      -5.326  -8.842  -2.699  0.00  0.00    -0.271 OA
ATOM      7  N   UNL     1      -4.763  -6.913  -1.747  0.00  0.00    -0.279 N 
ATOM      8  C   UNL     1      -5.011  -5.538  -1.637  0.00  0.00    +0.077 A 
ATOM      9  C   UNL     1      -4.094  -4.701  -1.024  0.00  0.00    +0.050 A 
ATOM     10  C   UNL     1      -4.359  -3.342  -0.924  0.00  0.00    +0.030 A 
ATOM     11  C   UNL     1      -5.544  -2.826  -1.432  0.00  0.00    +0.026 A 
ATOM     12  C   UNL     1      -6.458  -3.660  -2.049  0.00  0.00    +0.049 A 
ATOM     13  C   UNL     1      -6.197  -5.016  -2.151  0.00  0.00    +0.143 A 
ATOM     14  O   UNL     1      -7.090  -5.849  -2.752  0.00  0.00    -0.478 OA
ATOM     15  H   UNL     1      -4.071  -7.333  -1.213  0.00  0.00    +0.155 HD
ENDBRANCH   1  10
BRANCH   1  16
ATOM     16  C   UNL     1      -3.715  -1.058  -0.200  0.00  0.00    +0.154 C 
ATOM     17  C   UNL     1      -4.567  -0.795   1.043  0.00  0.00    +0.038 C 
BRANCH  16  18
ATOM     18  C   UNL     1      -2.417  -0.300  -0.089  0.00  0.00    +0.237 C 
ATOM     19  O   UNL     1      -1.362  -0.899  -0.097  0.00  0.00    -0.273 OA
ATOM     20  N   UNL     1      -2.428   1.043   0.020  0.00  0.00    -0.284 N 
ATOM     21  H   UNL     1      -3.271   1.516   0.103  0.00  0.00    +0.155 HD
BRANCH  20  22
ATOM     22  C   UNL     1      -1.224   1.756   0.012  0.00  0.00    +0.034 A 
ATOM     23  C   UNL     1      -0.151   1.302  -0.745  0.00  0.00    +0.023 A 
ATOM     24  C   UNL     1       1.032   2.012  -0.753  0.00  0.00    +0.006 A 
ATOM     25  C   UNL     1       1.157   3.172  -0.005  0.00  0.00    -0.044 A 
ATOM     26  C   UNL     1       0.092   3.623   0.753  0.00  0.00    -0.042 A 
ATOM     27  C   UNL     1      -1.096   2.914   0.764  0.00  0.00    +0.027 A 
ATOM     28  C   UNL     1       0.479   4.899   1.470  0.00  0.00    +0.036 C 
ATOM     29  C   UNL     1       1.732   5.414   0.731  0.00  0.00    +0.009 C 
ATOM     30  C   UNL     1       2.331   4.115   0.151  0.00  0.00    +0.036 C 
ENDBRANCH  20  22
ENDBRANCH  16  18
ENDBRANCH   1  16
TORSDOF 4
