REMARK  Name = ZINC04860439
REMARK  9 active torsions:
REMARK  status: ('A' for Active; 'I' for Inactive)
REMARK    1  A    between atoms: C_1  and  C_2
REMARK    2  A    between atoms: C_6  and  N_9
REMARK    3  A    between atoms: C_7  and  C_8
REMARK    4  A    between atoms: C_10  and  C_12
REMARK    5  A    between atoms: C_12  and  S_13
REMARK    6  A    between atoms: S_13  and  C_14
REMARK    7  A    between atoms: C_17  and  C_20
REMARK    8  A    between atoms: N_18  and  C_19
REMARK    9  A    between atoms: C_24  and  C_25
REMARK                            x       y       z     vdW  Elec       q    Type
REMARK                         _______ _______ _______ _____ _____    ______ ____
ROOT
ATOM      1  C   UNL     1      -4.661   2.726   1.112  0.00  0.00    +0.173 C 
ENDROOT
BRANCH   1   3
ATOM      2  N   UNL     1      -7.051   2.945   0.513  0.00  0.00    -0.285 N 
ATOM      3  C   UNL     1      -5.778   2.783   0.102  0.00  0.00    +0.227 C 
ATOM      4  O   UNL     1      -5.531   2.682  -1.081  0.00  0.00    -0.275 OA
ATOM      5  H   UNL     1      -7.242   3.092   1.453  0.00  0.00    +0.155 HD
BRANCH   2  11
ATOM      6  C   UNL     1     -11.762   1.980  -0.510  0.00  0.00    +0.044 C 
ATOM      7  C   UNL     1     -10.391   2.436  -0.938  0.00  0.00    -0.046 A 
ATOM      8  C   UNL     1     -10.166   2.812  -2.250  0.00  0.00    +0.004 A 
ATOM      9  C   UNL     1      -8.909   3.231  -2.647  0.00  0.00    +0.002 A 
ATOM     10  C   UNL     1      -7.875   3.276  -1.733  0.00  0.00    +0.023 A 
ATOM     11  C   UNL     1      -8.097   2.900  -0.415  0.00  0.00    +0.037 A 
ATOM     12  C   UNL     1      -9.359   2.473  -0.021  0.00  0.00    -0.026 A 
ATOM     13  C   UNL     1      -9.603   2.057   1.406  0.00  0.00    +0.046 C 
ENDBRANCH   2  11
ENDBRANCH   1   3
BRANCH   1  14
ATOM     14  S   UNL     1      -3.083   2.503   0.255  0.00  0.00    -0.077 S 
BRANCH  14  15
ATOM     15  C   UNL     1      -1.987   2.472   1.634  0.00  0.00    +0.192 A 
ATOM     16  N   UNL     1      -2.323   2.584   2.899  0.00  0.00    -0.122 NA
ATOM     17  N   UNL     1      -1.275   2.526   3.641  0.00  0.00    -0.128 NA
ATOM     18  C   UNL     1      -0.206   2.367   2.896  0.00  0.00    +0.168 A 
ATOM     19  N   UNL     1      -0.628   2.324   1.588  0.00  0.00    -0.305 N 
ATOM     20  C   UNL     1       0.204   2.159   0.394  0.00  0.00    +0.153 C 
BRANCH  18  21
ATOM     21  C   UNL     1       1.189   2.256   3.374  0.00  0.00    +0.060 A 
ATOM     22  C   UNL     1       2.194   1.271   2.954  0.00  0.00    +0.053 A 
ATOM     23  C   UNL     1       3.307   1.557   3.650  0.00  0.00    +0.196 A 
ATOM     24  O   UNL     1       3.069   2.613   4.442  0.00  0.00    -0.467 OA
ATOM     25  C   UNL     1       1.810   3.049   4.288  0.00  0.00    +0.112 A 
ATOM     26  C   UNL     1       1.188   4.217   5.009  0.00  0.00    +0.087 C 
ENDBRANCH  18  21
ENDBRANCH  14  15
ENDBRANCH   1  14
TORSDOF 5
