REMARK  Name = ZINC58035968
REMARK  8 active torsions:
REMARK  status: ('A' for Active; 'I' for Inactive)
REMARK    1  A    between atoms: C_1  and  C_2
REMARK    2  A    between atoms: C_2  and  O_3
REMARK    3  A    between atoms: O_3  and  C_4
REMARK    4  A    between atoms: C_4  and  C_6
REMARK    5  A    between atoms: C_7  and  C_29
REMARK    6  A    between atoms: C_16  and  N_17
REMARK    7  A    between atoms: C_18  and  C_20
REMARK    8  A    between atoms: C_23  and  C_28
REMARK                            x       y       z     vdW  Elec       q    Type
REMARK                         _______ _______ _______ _____ _____    ______ ____
ROOT
ATOM      1  C   UNL     1       1.263  -2.378  -2.646  0.00  0.00    +0.120 C 
ATOM      2  C   UNL     1       1.633  -3.701  -2.617  0.00  0.00    +0.023 C 
ATOM      3  N   UNL     1       2.517  -4.182  -3.533  0.00  0.00    -0.316 N 
ATOM      4  C   UNL     1       3.802  -3.614  -3.597  0.00  0.00    +0.057 A 
ATOM      5  C   UNL     1       4.908  -4.412  -3.362  0.00  0.00    +0.025 A 
ATOM      6  C   UNL     1       6.180  -3.864  -3.383  0.00  0.00    +0.002 A 
ATOM      7  C   UNL     1       6.351  -2.516  -3.635  0.00  0.00    +0.002 A 
ATOM      8  C   UNL     1       5.258  -1.710  -3.885  0.00  0.00    +0.030 A 
ATOM      9  C   UNL     1       3.971  -2.256  -3.887  0.00  0.00    +0.087 A 
ATOM     10  N   UNL     1       2.917  -1.464  -4.228  0.00  0.00    -0.226 NA
ATOM     11  C   UNL     1       1.723  -1.478  -3.712  0.00  0.00    +0.173 C 
ATOM     12  C   UNL     1       1.059  -4.620  -1.570  0.00  0.00    +0.061 C 
ATOM     13  H   UNL     1       2.266  -4.903  -4.131  0.00  0.00    +0.152 HD
ENDROOT
BRANCH  11  14
ATOM     14  N   UNL     1       0.832  -0.590  -4.191  0.00  0.00    -0.188 NA
ATOM     15  C   UNL     1       1.183   0.246  -5.149  0.00  0.00    +0.285 C 
ATOM     16  O   UNL     1       2.437   0.211  -5.649  0.00  0.00    -0.265 OA
BRANCH  15  17
ATOM     17  C   UNL     1       0.212   1.214  -5.672  0.00  0.00    +0.105 A 
ATOM     18  C   UNL     1      -1.085   1.265  -5.161  0.00  0.00    +0.020 A 
ATOM     19  C   UNL     1      -1.980   2.198  -5.683  0.00  0.00    +0.022 A 
ATOM     20  C   UNL     1      -1.587   3.040  -6.673  0.00  0.00    +0.016 A 
ATOM     21  N   UNL     1      -0.330   2.997  -7.175  0.00  0.00    -0.326 N 
ATOM     22  H   UNL     1      -0.077   3.611  -7.882  0.00  0.00    +0.169 HD
ATOM     23  C   UNL     1       0.577   2.120  -6.703  0.00  0.00    +0.261 A 
ATOM     24  O   UNL     1       1.705   2.100  -7.163  0.00  0.00    -0.267 OA
ATOM     25  C   UNL     1      -2.570   4.041  -7.224  0.00  0.00    +0.063 C 
ENDBRANCH  15  17
ENDBRANCH  11  14
BRANCH   1  26
ATOM     26  C   UNL     1       0.388  -1.857  -1.597  0.00  0.00    +0.344 C 
ATOM     27  O   UNL     1      -0.101  -2.615  -0.780  0.00  0.00    -0.245 OA
BRANCH  26  28
ATOM     28  O   UNL     1       0.123  -0.535  -1.535  0.00  0.00    -0.461 OA
BRANCH  28  30
ATOM     29  C   UNL     1      -0.922   1.421  -0.575  0.00  0.00    +0.048 C 
ATOM     30  C   UNL     1      -0.740  -0.096  -0.484  0.00  0.00    +0.229 C 
ENDBRANCH  28  30
ENDBRANCH  26  28
ENDBRANCH   1  26
TORSDOF 5
