REMARK  Name = ZINC06173223
REMARK  10 active torsions:
REMARK  status: ('A' for Active; 'I' for Inactive)
REMARK    1  A    between atoms: C_1  and  C_2
REMARK    2  A    between atoms: C_2  and  N_48
REMARK    3  A    between atoms: C_3  and  C_4
REMARK    4  A    between atoms: C_3  and  N_48
REMARK    5  A    between atoms: C_5  and  N_6
REMARK    6  A    between atoms: C_5  and  N_48
REMARK    7  A    between atoms: C_13  and  N_16
REMARK    8  A    between atoms: C_14  and  O_15
REMARK    9  A    between atoms: N_17  and  C_18
REMARK   10  A    between atoms: C_18  and  C_20
REMARK                            x       y       z     vdW  Elec       q    Type
REMARK                         _______ _______ _______ _____ _____    ______ ____
ROOT
ATOM      1  N   UNL     1      -2.859  -4.402  -0.016  0.00  0.00    -0.327 N 
ATOM      2  C   UNL     1      -4.245  -4.420  -0.019  0.00  0.00    +0.052 A 
ATOM      3  C   UNL     1      -5.174  -5.454  -0.038  0.00  0.00    +0.027 A 
ATOM      4  C   UNL     1      -6.523  -5.169  -0.037  0.00  0.00    +0.017 A 
ATOM      5  C   UNL     1      -6.968  -3.855  -0.018  0.00  0.00    +0.019 A 
ATOM      6  C   UNL     1      -6.060  -2.816   0.001  0.00  0.00    +0.027 A 
ATOM      7  C   UNL     1      -4.696  -3.092   0.006  0.00  0.00    +0.032 A 
ATOM      8  C   UNL     1      -3.484  -2.247   0.016  0.00  0.00    +0.152 A 
ATOM      9  C   UNL     1      -2.397  -3.129   0.005  0.00  0.00    +0.220 A 
ATOM     10 BR   UNL     1      -8.822  -3.488  -0.017  0.00  0.00    -0.050 Br
ENDROOT
BRANCH   9  11
ATOM     11  O   UNL     1      -1.097  -2.769   0.015  0.00  0.00    -0.492 OA
ATOM     12  H   UNL     1      -0.721  -2.677   0.901  0.00  0.00    +0.294 HD
ENDBRANCH   9  11
BRANCH   8  13
ATOM     13  N   UNL     1      -3.436  -0.912   0.037  0.00  0.00    -0.151 NA
ATOM     14  N   UNL     1      -2.296  -0.309   0.049  0.00  0.00    -0.075 NA
BRANCH  14  15
ATOM     15  C   UNL     1      -2.246   1.039   0.070  0.00  0.00    +0.286 C 
ATOM     16  O   UNL     1      -3.278   1.685   0.078  0.00  0.00    -0.266 OA
BRANCH  15  17
ATOM     17  C   UNL     1      -0.940   1.730   0.084  0.00  0.00    +0.059 A 
ATOM     18  C   UNL     1       0.245   0.991   0.075  0.00  0.00    +0.016 A 
ATOM     19  C   UNL     1       1.460   1.642   0.082  0.00  0.00    +0.021 A 
ATOM     20  C   UNL     1       1.508   3.027   0.103  0.00  0.00    +0.042 A 
ATOM     21  C   UNL     1       0.338   3.766   0.118  0.00  0.00    +0.040 A 
ATOM     22  C   UNL     1      -0.886   3.127   0.111  0.00  0.00    +0.055 A 
ATOM     23 CL   UNL     1      -2.353   4.055   0.129  0.00  0.00    -0.083 Cl
ATOM     24 CL   UNL     1       3.043   3.838   0.113  0.00  0.00    -0.083 Cl
ENDBRANCH  15  17
ENDBRANCH  14  15
ENDBRANCH   8  13
BRANCH   1  25
ATOM     25  C   UNL     1      -2.010  -5.596  -0.032  0.00  0.00    +0.050 C 
BRANCH  25  26
ATOM     26  N   UNL     1      -1.579  -5.890   1.351  0.00  0.00    +0.391 N 
ATOM     27  H   UNL     1      -1.291  -5.015   1.804  0.00  0.00    -0.079 HD
BRANCH  26  29
ATOM     28  C   UNL     1      -3.096  -7.834   1.524  0.00  0.00    -0.017 C 
ATOM     29  C   UNL     1      -2.698  -6.480   2.115  0.00  0.00    -0.080 C 
ENDBRANCH  26  29
BRANCH  26  30
ATOM     30  C   UNL     1      -0.432  -6.822   1.334  0.00  0.00    -0.080 C 
ATOM     31  C   UNL     1       0.210  -6.837   2.723  0.00  0.00    -0.017 C 
ENDBRANCH  26  30
ENDBRANCH  25  26
ENDBRANCH   1  25
TORSDOF 8
