REMARK  Name = ZINC42016414
REMARK  5 active torsions:
REMARK  status: ('A' for Active; 'I' for Inactive)
REMARK    1  A    between atoms: C_1  and  C_2
REMARK    2  A    between atoms: C_5  and  N_9
REMARK    3  A    between atoms: C_7  and  C_8
REMARK    4  A    between atoms: C_10  and  C_14
REMARK    5  A    between atoms: C_18  and  N_20
REMARK                            x       y       z     vdW  Elec       q    Type
REMARK                         _______ _______ _______ _____ _____    ______ ____
ROOT
ATOM      1  N   UNL     1      -0.105  -4.194   0.109  0.00  0.00    -0.193 N 
ATOM      2  C   UNL     1      -0.627  -5.006  -0.855  0.00  0.00    +0.187 A 
ATOM      3  N   UNL     1      -0.155  -6.215  -0.634  0.00  0.00    -0.108 NA
ATOM      4  N   UNL     1       0.618  -6.216   0.392  0.00  0.00    -0.022 NA
ATOM      5  N   UNL     1       0.705  -5.033   0.895  0.00  0.00    -0.039 NA
ENDROOT
BRANCH   1  10
ATOM      6  C   UNL     1      -0.995   1.369   0.791  0.00  0.00    +0.044 C 
ATOM      7  C   UNL     1      -0.759  -0.108   0.610  0.00  0.00    -0.047 A 
ATOM      8  C   UNL     1      -1.820  -0.947   0.321  0.00  0.00    +0.006 A 
ATOM      9  C   UNL     1      -1.607  -2.301   0.155  0.00  0.00    +0.028 A 
ATOM     10  C   UNL     1      -0.325  -2.820   0.277  0.00  0.00    +0.070 A 
ATOM     11  C   UNL     1       0.738  -1.976   0.567  0.00  0.00    +0.031 A 
ATOM     12  C   UNL     1       0.519  -0.622   0.727  0.00  0.00    -0.046 A 
ATOM     13  C   UNL     1       1.674   0.296   1.035  0.00  0.00    +0.044 C 
ENDBRANCH   1  10
BRANCH   2  14
ATOM     14  C   UNL     1      -1.547  -4.605  -1.942  0.00  0.00    +0.023 A 
ATOM     15  C   UNL     1      -1.476  -3.319  -2.480  0.00  0.00    +0.013 A 
ATOM     16  C   UNL     1      -2.336  -2.946  -3.493  0.00  0.00    +0.018 A 
ATOM     17  C   UNL     1      -3.268  -3.844  -3.980  0.00  0.00    +0.039 A 
ATOM     18  C   UNL     1      -3.346  -5.128  -3.450  0.00  0.00    +0.039 A 
ATOM     19  C   UNL     1      -2.483  -5.512  -2.436  0.00  0.00    +0.035 A 
ATOM     20 BR   UNL     1      -4.441  -3.324  -5.369  0.00  0.00    -0.048 Br
BRANCH  18  21
ATOM     21  N   UNL     1      -4.291  -6.031  -3.945  0.00  0.00    -0.357 N 
ATOM     22  H   UNL     1      -4.892  -5.763  -4.657  0.00  0.00    +0.142 HD
ATOM     23  H   UNL     1      -4.345  -6.926  -3.575  0.00  0.00    +0.142 HD
ENDBRANCH  18  21
ENDBRANCH   2  14
TORSDOF 3
