REMARK  Name = ZINC21157195
REMARK  11 active torsions:
REMARK  status: ('A' for Active; 'I' for Inactive)
REMARK    1  A    between atoms: C_1  and  C_2
REMARK    2  A    between atoms: C_2  and  C_3
REMARK    3  A    between atoms: C_2  and  C_4
REMARK    4  A    between atoms: C_7  and  N_10
REMARK    5  A    between atoms: C_11  and  C_13
REMARK    6  A    between atoms: N_15  and  C_16
REMARK    7  A    between atoms: C_16  and  C_17
REMARK    8  A    between atoms: C_17  and  C_19
REMARK    9  A    between atoms: C_17  and  N_25
REMARK   10  A    between atoms: N_23  and  C_24
REMARK   11  A    between atoms: N_28  and  C_31
REMARK                            x       y       z     vdW  Elec       q    Type
REMARK                         _______ _______ _______ _____ _____    ______ ____
ROOT
ATOM      1  C   UNL     1      -2.210   2.210  -2.180  0.00  0.00    +0.299 C 
ATOM      2  O   UNL     1      -2.730   1.652  -3.124  0.00  0.00    -0.265 OA
ATOM      3  N   UNL     1      -1.739   1.487  -1.145  0.00  0.00    -0.306 N 
ATOM      4  H   UNL     1      -1.268   1.993  -0.289  0.00  0.00    +0.149 HD
ENDROOT
BRANCH   1   6
ATOM      5  N   UNL     1      -2.563   4.422  -3.201  0.00  0.00    -0.278 N 
ATOM      6  C   UNL     1      -2.092   3.699  -2.166  0.00  0.00    +0.303 C 
ATOM      7  O   UNL     1      -1.572   4.258  -1.222  0.00  0.00    -0.265 OA
ATOM      8  H   UNL     1      -3.103   3.924  -4.019  0.00  0.00    +0.155 HD
BRANCH   5  12
ATOM      9  C   UNL     1      -1.973   8.543  -3.301  0.00  0.00    -0.045 A 
ATOM     10  C   UNL     1      -1.012   7.722  -2.741  0.00  0.00    +0.006 A 
ATOM     11  C   UNL     1      -1.204   6.355  -2.706  0.00  0.00    +0.023 A 
ATOM     12  C   UNL     1      -2.365   5.805  -3.234  0.00  0.00    +0.034 A 
ATOM     13  C   UNL     1      -3.327   6.632  -3.801  0.00  0.00    +0.023 A 
ATOM     14  C   UNL     1      -3.130   7.999  -3.828  0.00  0.00    +0.006 A 
BRANCH   9  16
ATOM     15  C   UNL     1      -1.768  10.516  -4.790  0.00  0.00    +0.012 C 
ATOM     16  C   UNL     1      -1.760  10.035  -3.337  0.00  0.00    +0.013 C 
ATOM     17  C   UNL     1      -2.882  10.729  -2.564  0.00  0.00    +0.012 C 
ENDBRANCH   9  16
ENDBRANCH   5  12
ENDBRANCH   1   6
BRANCH   3  18
ATOM     18  C   UNL     1      -1.854   0.026  -1.159  0.00  0.00    +0.129 C 
BRANCH  18  19
ATOM     19  C   UNL     1      -1.137  -0.554   0.061  0.00  0.00    +0.121 C 
BRANCH  19  20
ATOM     20  N   UNL     1       0.248  -0.065   0.094  0.00  0.00    -0.296 NA
ATOM     21  C   UNL     1       0.912  -0.445   1.348  0.00  0.00    +0.066 C 
ATOM     22  C   UNL     1       2.322   0.150   1.377  0.00  0.00    -0.064 C 
ATOM     23  N   UNL     1       3.079  -0.337   0.215  0.00  0.00    +0.379 N 
ATOM     24  C   UNL     1       2.416   0.044  -1.040  0.00  0.00    -0.064 C 
ATOM     25  C   UNL     1       1.006  -0.551  -1.068  0.00  0.00    +0.066 C 
ATOM     26  C   UNL     1       4.464   0.152   0.247  0.00  0.00    -0.096 C 
ATOM     27  H   UNL     1       3.109  -1.435   0.265  0.00  0.00    -0.082 HD
ENDBRANCH  19  20
BRANCH  19  28
ATOM     28  C   UNL     1      -1.136  -2.058  -0.024  0.00  0.00    +0.037 A 
ATOM     29  C   UNL     1      -0.055  -2.856   0.089  0.00  0.00    +0.024 A 
ATOM     30  C   UNL     1      -0.496  -4.187  -0.051  0.00  0.00    +0.019 A 
ATOM     31  C   UNL     1      -1.830  -4.151  -0.246  0.00  0.00    +0.085 A 
ATOM     32  N   UNL     1      -2.229  -2.848  -0.225  0.00  0.00    -0.352 N 
ATOM     33  C   UNL     1      -3.605  -2.374  -0.393  0.00  0.00    +0.148 C 
ENDBRANCH  19  28
ENDBRANCH  18  19
ENDBRANCH   3  18
TORSDOF 7
