REMARK  Name = ZINC13073695
REMARK  11 active torsions:
REMARK  status: ('A' for Active; 'I' for Inactive)
REMARK    1  A    between atoms: C_1  and  C_2
REMARK    2  A    between atoms: C_2  and  C_3
REMARK    3  A    between atoms: C_12  and  C_13
REMARK    4  A    between atoms: C_13  and  C_15
REMARK    5  A    between atoms: C_15  and  C_17
REMARK    6  A    between atoms: C_15  and  O_23
REMARK    7  A    between atoms: O_23  and  C_24
REMARK    8  A    between atoms: C_24  and  C_26
REMARK    9  A    between atoms: N_31  and  C_33
REMARK   10  A    between atoms: C_38  and  O_39
REMARK   11  A    between atoms: O_39  and  C_40
REMARK                            x       y       z     vdW  Elec       q    Type
REMARK                         _______ _______ _______ _____ _____    ______ ____
ROOT
ATOM      1  C   UNL     1       7.961   5.705   1.905  0.00  0.00    +0.277 C 
ENDROOT
BRANCH   1   2
ATOM      2  C   UNL     1       7.462   6.987   1.290  0.00  0.00    +0.000 A 
ATOM      3  C   UNL     1       7.349   7.096  -0.083  0.00  0.00    +0.008 A 
ATOM      4  C   UNL     1       6.886   8.270  -0.647  0.00  0.00    +0.000 A 
ATOM      5  C   UNL     1       6.548   9.339   0.161  0.00  0.00    +0.000 A 
ATOM      6  C   UNL     1       6.666   9.232   1.534  0.00  0.00    +0.000 A 
ATOM      7  C   UNL     1       7.123   8.056   2.099  0.00  0.00    +0.008 A 
ENDBRANCH   1   2
BRANCH   1   8
ATOM      8  C   UNL     1       9.468   5.708   1.921  0.00  0.00    +0.210 C 
ATOM      9  O   UNL     1      10.085   5.100   1.070  0.00  0.00    -0.288 OA
BRANCH   8  19
ATOM     10  C   UNL     1      13.133   7.617   4.625  0.00  0.00    -0.024 A 
ATOM     11  C   UNL     1      14.202   7.109   3.919  0.00  0.00    +0.005 A 
ATOM     12  C   UNL     1      13.997   6.314   2.802  0.00  0.00    +0.001 A 
ATOM     13  C   UNL     1      12.717   6.021   2.383  0.00  0.00    +0.011 A 
ATOM     14  C   UNL     1      11.629   6.527   3.087  0.00  0.00    +0.011 A 
ATOM     15  C   UNL     1      11.834   7.332   4.218  0.00  0.00    +0.050 A 
ATOM     16  N   UNL     1      10.594   7.688   4.709  0.00  0.00    -0.360 N 
ATOM     17  H   UNL     1      10.448   8.245   5.489  0.00  0.00    +0.165 HD
ATOM     18  C   UNL     1       9.613   7.160   3.952  0.00  0.00    +0.095 A 
ATOM     19  C   UNL     1      10.165   6.421   2.928  0.00  0.00    +0.047 A 
BRANCH  10  21
ATOM     20  C   UNL     1      13.323   7.614   7.098  0.00  0.00    +0.009 C 
ATOM     21  C   UNL     1      13.372   8.480   5.837  0.00  0.00    +0.034 C 
ENDBRANCH  10  21
ENDBRANCH   8  19
ENDBRANCH   1   8
BRANCH   1  22
ATOM     22  O   UNL     1       7.487   4.577   1.124  0.00  0.00    -0.448 OA
BRANCH  22  23
ATOM     23  C   UNL     1       6.305   4.046   1.475  0.00  0.00    +0.313 C 
ATOM     24  O   UNL     1       5.687   4.509   2.404  0.00  0.00    -0.250 OA
BRANCH  23  25
ATOM     25  C   UNL     1       5.749   2.873   0.710  0.00  0.00    +0.124 C 
ATOM     26  C   UNL     1       5.508   3.243  -0.772  0.00  0.00    +0.112 C 
ATOM     27  C   UNL     1       4.236   2.509  -1.135  0.00  0.00    +0.221 C 
ATOM     28  O   UNL     1       3.851   2.303  -2.267  0.00  0.00    -0.275 OA
ATOM     29  N   UNL     1       3.594   2.116  -0.021  0.00  0.00    -0.267 N 
ATOM     30  C   UNL     1       4.317   2.535   1.186  0.00  0.00    +0.129 C 
BRANCH  29  31
ATOM     31  C   UNL     1       2.387   1.404  -0.013  0.00  0.00    +0.078 A 
ATOM     32  C   UNL     1       2.398   0.017  -0.021  0.00  0.00    +0.027 A 
ATOM     33  C   UNL     1       1.207  -0.683  -0.014  0.00  0.00    +0.002 A 
ATOM     34  C   UNL     1       0.002  -0.004   0.002  0.00  0.00    +0.004 A 
ATOM     35  C   UNL     1      -0.017   1.378   0.010  0.00  0.00    +0.047 A 
ATOM     36  C   UNL     1       1.173   2.087   0.002  0.00  0.00    +0.141 A 
BRANCH  36  37
ATOM     37  O   UNL     1       1.157   3.447   0.009  0.00  0.00    -0.493 OA
ATOM     38  C   UNL     1      -0.124   4.080   0.024  0.00  0.00    +0.277 C 
ENDBRANCH  36  37
ENDBRANCH  29  31
ENDBRANCH  23  25
ENDBRANCH  22  23
ENDBRANCH   1  22
TORSDOF 9
