REMARK  Name = ZINC16896702
REMARK  6 active torsions:
REMARK  status: ('A' for Active; 'I' for Inactive)
REMARK    1  A    between atoms: C_1  and  C_2
REMARK    2  A    between atoms: C_2  and  C_3
REMARK    3  A    between atoms: C_3  and  C_5
REMARK    4  A    between atoms: C_3  and  N_15
REMARK    5  A    between atoms: N_7  and  C_8
REMARK    6  A    between atoms: C_11  and  O_14
REMARK                            x       y       z     vdW  Elec       q    Type
REMARK                         _______ _______ _______ _____ _____    ______ ____
ROOT
ATOM      1  C   UNL     1      -1.834   4.131  -5.930  0.00  0.00    +0.177 C 
ENDROOT
BRANCH   1   2
ATOM      2  N   UNL     1      -1.651   4.501  -4.524  0.00  0.00    -0.287 N 
ATOM      3  C   UNL     1      -1.768   5.806  -4.179  0.00  0.00    +0.204 A 
ATOM      4  N   UNL     1      -1.622   6.236  -2.945  0.00  0.00    -0.230 NA
ATOM      5  C   UNL     1      -1.349   5.331  -2.011  0.00  0.00    +0.116 A 
ATOM      6  C   UNL     1      -1.208   3.950  -2.270  0.00  0.00    +0.076 A 
ATOM      7  C   UNL     1      -1.374   3.522  -3.630  0.00  0.00    +0.263 A 
ATOM      8  O   UNL     1      -1.272   2.353  -3.959  0.00  0.00    -0.267 OA
ATOM      9  C   UNL     1      -0.909   3.110  -1.124  0.00  0.00    -0.023 A 
ATOM     10  C   UNL     1      -0.796   3.734   0.072  0.00  0.00    -0.004 A 
ATOM     11  S   UNL     1      -1.080   5.452  -0.271  0.00  0.00    -0.073 S 
ATOM     12  C   UNL     1      -0.497   3.106   1.399  0.00  0.00    +0.043 C 
ATOM     13  C   UNL     1      -0.703   1.589   1.274  0.00  0.00    +0.005 C 
ATOM     14  C   UNL     1       0.014   1.101   0.012  0.00  0.00    +0.005 C 
ATOM     15  C   UNL     1      -0.726   1.599  -1.230  0.00  0.00    +0.037 C 
ENDBRANCH   1   2
BRANCH   1  16
ATOM     16  C   UNL     1      -0.810   4.846  -6.774  0.00  0.00    +0.240 C 
ATOM     17  O   UNL     1      -0.007   5.591  -6.253  0.00  0.00    -0.273 OA
ATOM     18  N   UNL     1      -0.787   4.657  -8.108  0.00  0.00    -0.284 N 
ATOM     19  H   UNL     1      -1.384   4.011  -8.517  0.00  0.00    +0.155 HD
BRANCH  18  20
ATOM     20  C   UNL     1       0.100   5.394  -8.905  0.00  0.00    +0.034 A 
ATOM     21  C   UNL     1      -0.278   5.789 -10.181  0.00  0.00    +0.027 A 
ATOM     22  C   UNL     1       0.595   6.520 -10.964  0.00  0.00    +0.047 A 
ATOM     23  C   UNL     1       1.852   6.849 -10.479  0.00  0.00    +0.117 A 
ATOM     24  C   UNL     1       2.232   6.450  -9.205  0.00  0.00    +0.047 A 
ATOM     25  C   UNL     1       1.358   5.725  -8.420  0.00  0.00    +0.027 A 
BRANCH  23  26
ATOM     26  O   UNL     1       2.713   7.564 -11.252  0.00  0.00    -0.507 OA
ATOM     27  H   UNL     1       3.287   7.019 -11.807  0.00  0.00    +0.292 HD
ENDBRANCH  23  26
ENDBRANCH  18  20
ENDBRANCH   1  16
BRANCH   1  29
ATOM     28  C   UNL     1      -4.277   3.714  -5.613  0.00  0.00    +0.006 C 
ATOM     29  C   UNL     1      -3.239   4.532  -6.384  0.00  0.00    +0.031 C 
ENDBRANCH   1  29
TORSDOF 5
