REMARK  Name = ZINC21264082
REMARK  15 active torsions:
REMARK  status: ('A' for Active; 'I' for Inactive)
REMARK    1  A    between atoms: C_1  and  C_2
REMARK    2  A    between atoms: C_5  and  C_7
REMARK    3  A    between atoms: C_7  and  N_8
REMARK    4  A    between atoms: N_8  and  C_9
REMARK    5  A    between atoms: N_8  and  C_20
REMARK    6  A    between atoms: C_9  and  C_11
REMARK    7  A    between atoms: C_9  and  C_12
REMARK    8  A    between atoms: C_15  and  O_18
REMARK    9  A    between atoms: O_18  and  C_19
REMARK   10  A    between atoms: C_20  and  N_22
REMARK   11  A    between atoms: N_22  and  C_23
REMARK   12  A    between atoms: C_25  and  C_31
REMARK   13  A    between atoms: C_25  and  C_32
REMARK   14  A    between atoms: C_27  and  C_29
REMARK   15  A    between atoms: C_27  and  C_30
REMARK                            x       y       z     vdW  Elec       q    Type
REMARK                         _______ _______ _______ _____ _____    ______ ____
ROOT
ATOM      1  N   UNL     1      -1.859   3.677  -2.328  0.00  0.00    -0.299 N 
ENDROOT
BRANCH   1   2
ATOM      2  C   UNL     1      -2.349   5.057  -2.377  0.00  0.00    +0.103 C 
ATOM      3  C   UNL     1      -3.170   5.261  -3.652  0.00  0.00    +0.033 C 
BRANCH   2   4
ATOM      4  C   UNL     1      -1.178   6.006  -2.377  0.00  0.00    -0.027 A 
ATOM      5  C   UNL     1      -0.086   5.755  -3.187  0.00  0.00    +0.009 A 
ATOM      6  C   UNL     1       0.986   6.627  -3.192  0.00  0.00    +0.046 A 
ATOM      7  C   UNL     1       0.971   7.747  -2.374  0.00  0.00    +0.120 A 
ATOM      8  C   UNL     1      -0.123   7.993  -1.558  0.00  0.00    +0.046 A 
ATOM      9  C   UNL     1      -1.195   7.122  -1.561  0.00  0.00    +0.009 A 
BRANCH   7  10
ATOM     10  O   UNL     1       2.027   8.603  -2.373  0.00  0.00    -0.495 OA
ATOM     11  C   UNL     1       3.119   8.287  -3.239  0.00  0.00    +0.277 C 
ENDBRANCH   7  10
ENDBRANCH   2   4
ENDBRANCH   1   2
BRANCH   1  12
ATOM     12  C   UNL     1      -1.213   3.230  -1.232  0.00  0.00    +0.134 C 
ATOM     13  S   UNL     1      -0.966   4.275   0.101  0.00  0.00    -0.019 S 
BRANCH  12  14
ATOM     14  N   UNL     1      -0.763   1.961  -1.186  0.00  0.00    -0.324 N 
ATOM     15  H   UNL     1      -0.922   1.289  -2.043  0.00  0.00    +0.148 HD
BRANCH  14  16
ATOM     16  C   UNL     1      -0.059   1.474   0.007  0.00  0.00    +0.069 C 
ATOM     17  C   UNL     1       1.426   1.812  -0.111  0.00  0.00    +0.009 C 
ATOM     18  C   UNL     1       2.187   1.299   1.109  0.00  0.00    -0.072 C 
ATOM     19  N   UNL     1       1.892  -0.085   1.417  0.00  0.00    +0.386 N 
ATOM     20  C   UNL     1       0.536  -0.582   1.315  0.00  0.00    -0.072 C 
ATOM     21  C   UNL     1      -0.206  -0.045   0.094  0.00  0.00    +0.009 C 
ATOM     22  C   UNL     1      -0.267  -0.266   2.583  0.00  0.00    -0.010 C 
ATOM     23  C   UNL     1       0.595  -2.121   1.183  0.00  0.00    -0.010 C 
ATOM     24  C   UNL     1       1.901   2.207   2.311  0.00  0.00    -0.010 C 
ATOM     25  C   UNL     1       3.696   1.413   0.799  0.00  0.00    -0.010 C 
ATOM     26  H   UNL     1       2.464  -0.740   0.744  0.00  0.00    -0.084 HD
ATOM     27  H   UNL     1       2.172  -0.296   2.460  0.00  0.00    -0.084 HD
ENDBRANCH  14  16
ENDBRANCH  12  14
ENDBRANCH   1  12
BRANCH   1  28
ATOM     28  C   UNL     1      -2.071   2.783  -3.468  0.00  0.00    +0.181 C 
BRANCH  28  33
ATOM     29  C   UNL     1      -5.089  -0.913  -1.832  0.00  0.00    +0.086 C 
ATOM     30  C   UNL     1      -4.616   0.343  -2.519  0.00  0.00    +0.102 A 
ATOM     31  C   UNL     1      -5.383   1.183  -3.237  0.00  0.00    +0.045 A 
ATOM     32  C   UNL     1      -4.538   2.221  -3.692  0.00  0.00    +0.046 A 
ATOM     33  C   UNL     1      -3.304   1.949  -3.231  0.00  0.00    +0.122 A 
ATOM     34  O   UNL     1      -3.358   0.812  -2.519  0.00  0.00    -0.463 OA
ENDBRANCH  28  33
ENDBRANCH   1  28
TORSDOF 8
