REMARK  Name = ZINC36037759
REMARK  6 active torsions:
REMARK  status: ('A' for Active; 'I' for Inactive)
REMARK    1  A    between atoms: C_1  and  C_2
REMARK    2  A    between atoms: C_5  and  C_33
REMARK    3  A    between atoms: N_8  and  C_10
REMARK    4  A    between atoms: C_10  and  C_11
REMARK    5  A    between atoms: C_17  and  C_19
REMARK    6  A    between atoms: C_19  and  C_20
REMARK                            x       y       z     vdW  Elec       q    Type
REMARK                         _______ _______ _______ _____ _____    ______ ____
ROOT
ATOM      1  C   UNL     1       2.971  -2.034   2.241  0.00  0.00    +0.034 A 
ATOM      2  C   UNL     1       3.439  -0.905   2.828  0.00  0.00    +0.070 A 
ATOM      3  S   UNL     1       5.146  -0.941   2.305  0.00  0.00    -0.060 S 
ATOM      4  C   UNL     1       5.085  -2.365   1.411  0.00  0.00    +0.164 A 
ATOM      5  N   UNL     1       3.833  -2.747   1.539  0.00  0.00    -0.231 NA
ATOM      6  N   UNL     1       6.111  -2.990   0.710  0.00  0.00    -0.265 N 
ATOM      7  C   UNL     1       7.344  -2.447   0.696  0.00  0.00    +0.220 C 
ATOM      8  O   UNL     1       7.560  -1.415   1.294  0.00  0.00    -0.275 OA
ATOM      9  H   UNL     1       5.938  -3.815   0.231  0.00  0.00    +0.157 HD
ENDROOT
BRANCH   1  10
ATOM     10  C   UNL     1       1.534  -2.461   2.390  0.00  0.00    -0.022 C 
BRANCH  10  16
ATOM     11  C   UNL     1      -0.019   1.526   0.010  0.00  0.00    +0.005 C 
ATOM     12  C   UNL     1       0.002  -0.004   0.002  0.00  0.00    -0.031 C 
ATOM     13  C   UNL     1      -1.434  -0.535   0.015  0.00  0.00    +0.003 C 
ATOM     14  C   UNL     1      -1.402  -2.064   0.086  0.00  0.00    -0.031 C 
ATOM     15  C   UNL     1      -0.613  -2.496   1.324  0.00  0.00    -0.075 C 
ATOM     16  N   UNL     1       0.758  -1.980   1.239  0.00  0.00    +0.384 N 
ATOM     17  C   UNL     1       0.740  -0.512   1.242  0.00  0.00    -0.075 C 
ATOM     18  C   UNL     1      -0.728  -2.620  -1.170  0.00  0.00    +0.005 C 
ATOM     19  H   UNL     1       1.188  -2.307   0.386  0.00  0.00    -0.081 HD
ENDBRANCH  10  16
ENDBRANCH   1  10
BRANCH   7  20
ATOM     20  C   UNL     1       8.456  -3.124  -0.064  0.00  0.00    +0.120 C 
BRANCH  20  21
ATOM     21  C   UNL     1       9.743  -2.309   0.082  0.00  0.00    +0.146 C 
ATOM     22  C   UNL     1      10.828  -2.920  -0.766  0.00  0.00    +0.231 C 
ATOM     23  O   UNL     1      11.049  -2.436  -1.857  0.00  0.00    -0.274 OA
ATOM     24  N   UNL     1      11.554  -3.963  -0.378  0.00  0.00    -0.284 N 
ATOM     25  C   UNL     1      11.527  -4.575   0.871  0.00  0.00    +0.048 A 
ATOM     26  C   UNL     1      12.077  -5.846   1.016  0.00  0.00    +0.044 A 
ATOM     27  C   UNL     1      12.054  -6.478   2.244  0.00  0.00    +0.043 A 
ATOM     28  C   UNL     1      11.484  -5.858   3.342  0.00  0.00    +0.021 A 
ATOM     29  C   UNL     1      10.938  -4.594   3.213  0.00  0.00    +0.018 A 
ATOM     30  C   UNL     1      10.963  -3.954   1.985  0.00  0.00    +0.030 A 
ATOM     31  S   UNL     1      10.284  -2.326   1.818  0.00  0.00    -0.110 S 
ATOM     32 CL   UNL     1      12.744  -8.063   2.411  0.00  0.00    -0.083 Cl
ATOM     33  H   UNL     1      12.165  -4.336  -1.033  0.00  0.00    +0.155 HD
ENDBRANCH  20  21
ENDBRANCH   7  20
TORSDOF 4
