REMARK  Name = ZINC09103758
REMARK  7 active torsions:
REMARK  status: ('A' for Active; 'I' for Inactive)
REMARK    1  A    between atoms: C_1  and  C_2
REMARK    2  A    between atoms: C_2  and  C_3
REMARK    3  A    between atoms: C_2  and  C_4
REMARK    4  A    between atoms: C_4  and  C_5
REMARK    5  A    between atoms: C_5  and  N_6
REMARK    6  A    between atoms: C_7  and  C_9
REMARK    7  A    between atoms: C_20  and  C_22
REMARK                            x       y       z     vdW  Elec       q    Type
REMARK                         _______ _______ _______ _____ _____    ______ ____
ROOT
ATOM      1  C   UNL     1       8.528   3.845  -0.062  0.00  0.00    +0.124 C 
ATOM      2  C   UNL     1       9.439   4.984   0.398  0.00  0.00    +0.019 C 
ATOM      3  C   UNL     1       9.166   6.244  -0.429  0.00  0.00    +0.006 C 
ATOM      4  C   UNL     1       7.785   6.797  -0.044  0.00  0.00    +0.044 C 
ATOM      5  C   UNL     1       6.814   5.666  -0.038  0.00  0.00    +0.015 A 
ATOM      6  C   UNL     1       7.085   4.335  -0.046  0.00  0.00    +0.066 A 
ATOM      7  N   UNL     1       6.029   3.525  -0.040  0.00  0.00    -0.229 NA
ATOM      8  C   UNL     1       4.794   3.982  -0.025  0.00  0.00    +0.165 A 
ATOM      9  S   UNL     1       5.042   5.702  -0.027  0.00  0.00    -0.057 S 
ATOM     10  N   UNL     1       3.600   3.272  -0.017  0.00  0.00    -0.261 N 
ATOM     11  C   UNL     1       2.424   3.930  -0.002  0.00  0.00    +0.250 C 
ATOM     12  O   UNL     1       2.408   5.146   0.004  0.00  0.00    -0.270 OA
ATOM     13  H   UNL     1       3.613   2.302  -0.021  0.00  0.00    +0.157 HD
ENDROOT
BRANCH  11  14
ATOM     14  C   UNL     1       1.156   3.176   0.007  0.00  0.00    +0.041 A 
ATOM     15  C   UNL     1       1.172   1.778   0.000  0.00  0.00    +0.017 A 
ATOM     16  C   UNL     1      -0.013   1.076   0.008  0.00  0.00    +0.050 A 
ATOM     17  C   UNL     1      -1.226   1.751   0.017  0.00  0.00    +0.166 A 
ATOM     18  C   UNL     1      -1.249   3.147   0.030  0.00  0.00    +0.167 A 
ATOM     19  C   UNL     1      -0.064   3.857   0.022  0.00  0.00    +0.062 A 
ATOM     20  O   UNL     1      -2.550   3.560   0.045  0.00  0.00    -0.453 OA
ATOM     21  C   UNL     1      -3.313   2.412   0.459  0.00  0.00    +0.466 C 
ATOM     22  O   UNL     1      -2.511   1.295   0.033  0.00  0.00    -0.453 OA
ENDBRANCH  11  14
BRANCH   1  24
ATOM     23  N   UNL     1       7.950   1.554   0.671  0.00  0.00    -0.315 N 
ATOM     24  C   UNL     1       8.674   2.673   0.874  0.00  0.00    +0.222 C 
ATOM     25  O   UNL     1       9.442   2.736   1.810  0.00  0.00    -0.275 OA
ATOM     26  H   UNL     1       7.335   1.504  -0.078  0.00  0.00    +0.149 HD
BRANCH  23  27
ATOM     27  C   UNL     1       8.091   0.415   1.581  0.00  0.00    +0.104 C 
BRANCH  27  28
ATOM     28  C   UNL     1       7.166  -0.717   1.129  0.00  0.00    +0.022 C 
BRANCH  28  30
ATOM     29  C   UNL     1       6.819  -1.511   3.472  0.00  0.00    +0.007 C 
ATOM     30  C   UNL     1       7.313  -1.907   2.079  0.00  0.00    -0.016 C 
ATOM     31  C   UNL     1       6.483  -3.081   1.558  0.00  0.00    +0.007 C 
ENDBRANCH  28  30
ENDBRANCH  27  28
ENDBRANCH  23  27
ENDBRANCH   1  24
TORSDOF 5
