REMARK  Name = ZINC10657361
REMARK  4 active torsions:
REMARK  status: ('A' for Active; 'I' for Inactive)
REMARK    1  A    between atoms: C_5  and  S_6
REMARK    2  A    between atoms: S_6  and  N_9
REMARK    3  A    between atoms: N_9  and  C_10
REMARK    4  A    between atoms: C_15  and  C_16
REMARK                            x       y       z     vdW  Elec       q    Type
REMARK                         _______ _______ _______ _____ _____    ______ ____
ROOT
ATOM      1  C   UNL     1       4.490   0.978   2.389  0.00  0.00    +0.066 A 
ATOM      2  C   UNL     1       4.920  -0.251   1.907  0.00  0.00    +0.074 A 
ATOM      3  C   UNL     1       4.936  -1.352   2.746  0.00  0.00    +0.164 A 
ATOM      4  C   UNL     1       4.512  -1.239   4.068  0.00  0.00    +0.163 A 
ATOM      5  C   UNL     1       4.077  -0.028   4.559  0.00  0.00    +0.066 A 
ATOM      6  C   UNL     1       4.062   1.096   3.721  0.00  0.00    +0.089 A 
ATOM      7  O   UNL     1       4.528  -2.340   4.877  0.00  0.00    -0.488 OA
ATOM      8  C   UNL     1       5.820  -2.841   5.224  0.00  0.00    +0.232 C 
ATOM      9  C   UNL     1       6.348  -3.768   4.140  0.00  0.00    +0.082 C 
ATOM     10  C   UNL     1       6.591  -3.043   2.826  0.00  0.00    +0.232 C 
ATOM     11  O   UNL     1       5.363  -2.560   2.279  0.00  0.00    -0.488 OA
ENDROOT
BRANCH   6  12
ATOM     12  C   UNL     1       3.600   2.394   4.236  0.00  0.00    +0.388 C 
ATOM     13  O   UNL     1       3.588   3.367   3.508  0.00  0.00    -0.241 OA
ATOM     14  O   UNL     1       3.191   2.504   5.516  0.00  0.00    -0.241 OA
ENDBRANCH   6  12
BRANCH   1  15
ATOM     15  N   UNL     1       4.477   2.088   1.552  0.00  0.00    -0.215 N 
ATOM     16  H   UNL     1       4.691   2.966   1.907  0.00  0.00    +0.174 HD
BRANCH  15  17
ATOM     17  S   UNL     1       4.097   1.913  -0.050  0.00  0.00    +0.079 S 
ATOM     18  O   UNL     1       4.963   0.911  -0.566  0.00  0.00    -0.149 OA
ATOM     19  O   UNL     1       4.036   3.223  -0.599  0.00  0.00    -0.149 OA
BRANCH  17  24
ATOM     20  C   UNL     1       1.281   1.917  -0.182  0.00  0.00    +0.038 A 
ATOM     21  C   UNL     1       0.108   1.187  -0.240  0.00  0.00    +0.030 A 
ATOM     22  C   UNL     1       0.177  -0.168  -0.244  0.00  0.00    +0.080 A 
ATOM     23  S   UNL     1       1.938  -0.448  -0.163  0.00  0.00    -0.057 S 
ATOM     24  C   UNL     1       2.464   1.257  -0.130  0.00  0.00    +0.147 A 
ATOM     25 CL   UNL     1      -1.113  -1.328  -0.310  0.00  0.00    -0.076 Cl
ENDBRANCH  17  24
ENDBRANCH  15  17
ENDBRANCH   1  15
TORSDOF 4
