REMARK  Name = ZINC04028570
REMARK  5 active torsions:
REMARK  status: ('A' for Active; 'I' for Inactive)
REMARK    1  A    between atoms: C_1  and  C_2
REMARK    2  A    between atoms: C_2  and  C_3
REMARK    3  A    between atoms: C_9  and  C_10
REMARK    4  A    between atoms: C_9  and  N_60
REMARK    5  A    between atoms: C_22  and  C_29
REMARK                            x       y       z     vdW  Elec       q    Type
REMARK                         _______ _______ _______ _____ _____    ______ ____
ROOT
ATOM      1  C   UNL     1      -1.798  -0.395   3.988  0.00  0.00    +0.088 C 
ATOM      2  C   UNL     1      -1.138   0.992   4.090  0.00  0.00    +0.042 C 
ATOM      3  C   UNL     1       0.316   0.931   4.477  0.00  0.00    +0.016 C 
ATOM      4  C   UNL     1       1.161   0.203   3.429  0.00  0.00    +0.021 C 
ATOM      5  C   UNL     1       2.619   0.318   3.834  0.00  0.00    -0.073 C 
ATOM      6  C   UNL     1       3.326  -0.744   4.129  0.00  0.00    +0.008 C 
ATOM      7  C   UNL     1       3.229   1.702   3.886  0.00  0.00    +0.030 C 
ATOM      8  C   UNL     1       2.959   2.413   2.556  0.00  0.00    +0.005 C 
ATOM      9  C   UNL     1       1.459   2.385   2.253  0.00  0.00    +0.007 C 
ATOM     10  C   UNL     1       0.997   0.939   2.092  0.00  0.00    -0.022 C 
ATOM     11  C   UNL     1      -0.462   0.894   1.667  0.00  0.00    +0.052 C 
ATOM     12  C   UNL     1      -1.381   1.555   2.675  0.00  0.00    +0.181 C 
ATOM     13  O   UNL     1      -2.739   1.038   2.398  0.00  0.00    -0.461 OA
ATOM     14  C   UNL     1      -2.776  -0.240   2.835  0.00  0.00    +0.309 C 
ATOM     15  O   UNL     1      -3.474  -1.116   2.383  0.00  0.00    -0.251 OA
ATOM     16  C   UNL     1       1.854   0.251   1.028  0.00  0.00    +0.012 C 
ENDROOT
BRANCH   1  17
ATOM     17  C   UNL     1      -2.539  -0.735   5.282  0.00  0.00    -0.063 C 
BRANCH  17  23
ATOM     18  C   UNL     1      -3.683  -2.693   4.435  0.00  0.00    -0.069 C 
ATOM     19  C   UNL     1      -3.918  -4.186   4.676  0.00  0.00    -0.015 C 
ATOM     20  C   UNL     1      -2.596  -4.940   4.509  0.00  0.00    -0.003 C 
ATOM     21  C   UNL     1      -1.564  -4.366   5.484  0.00  0.00    -0.019 C 
ATOM     22  C   UNL     1      -1.397  -2.868   5.219  0.00  0.00    -0.078 C 
ATOM     23  N   UNL     1      -2.699  -2.197   5.420  0.00  0.00    +0.382 N 
ATOM     24  H   UNL     1      -3.039  -2.408   6.366  0.00  0.00    -0.081 HD
BRANCH  18  26
ATOM     25  C   UNL     1      -5.469  -2.076   6.070  0.00  0.00    +0.002 C 
ATOM     26  C   UNL     1      -4.998  -1.933   4.621  0.00  0.00    -0.019 C 
ENDBRANCH  18  26
ENDBRANCH  17  23
ENDBRANCH   1  17
TORSDOF 3
