REMARK  Name = ZINC28056386
REMARK  8 active torsions:
REMARK  status: ('A' for Active; 'I' for Inactive)
REMARK    1  A    between atoms: C_1  and  O_2
REMARK    2  A    between atoms: O_2  and  C_3
REMARK    3  A    between atoms: C_6  and  C_13
REMARK    4  A    between atoms: C_7  and  O_11
REMARK    5  A    between atoms: C_8  and  O_9
REMARK    6  A    between atoms: O_9  and  C_10
REMARK    7  A    between atoms: O_11  and  C_12
REMARK    8  A    between atoms: C_30  and  C_32
REMARK                            x       y       z     vdW  Elec       q    Type
REMARK                         _______ _______ _______ _____ _____    ______ ____
ROOT
ATOM      1  C   UNL     1       0.154  -2.688   0.703  0.00  0.00    +0.238 C 
ATOM      2  C   UNL     1      -1.111  -1.961   0.309  0.00  0.00    +0.026 C 
ATOM      3  C   UNL     1      -1.042  -0.674  -0.038  0.00  0.00    +0.050 C 
ATOM      4  C   UNL     1       0.286  -0.015  -0.042  0.00  0.00    +0.038 A 
ATOM      5  C   UNL     1       0.409   1.369  -0.056  0.00  0.00    +0.013 A 
ATOM      6  C   UNL     1       1.668   1.940  -0.059  0.00  0.00    +0.001 A 
ATOM      7  C   UNL     1       2.798   1.141  -0.046  0.00  0.00    +0.004 A 
ATOM      8  C   UNL     1       2.683  -0.238  -0.032  0.00  0.00    +0.046 A 
ATOM      9  C   UNL     1       1.431  -0.823  -0.030  0.00  0.00    +0.131 A 
ATOM     10  O   UNL     1       1.275  -2.171  -0.013  0.00  0.00    -0.479 OA
ATOM     11  N   UNL     1      -2.176   0.068  -0.389  0.00  0.00    -0.282 N 
ATOM     12  C   UNL     1      -3.412  -0.491  -0.109  0.00  0.00    +0.240 A 
ATOM     13  N   UNL     1      -4.607   0.027  -0.102  0.00  0.00    -0.092 NA
ATOM     14  N   UNL     1      -5.477  -0.866   0.227  0.00  0.00    -0.021 NA
ATOM     15  N   UNL     1      -4.898  -2.002   0.446  0.00  0.00    -0.042 NA
ATOM     16  N   UNL     1      -3.535  -1.800   0.231  0.00  0.00    -0.201 N 
ATOM     17  C   UNL     1      -2.413  -2.724   0.323  0.00  0.00    +0.174 C 
ATOM     18  H   UNL     1      -2.063   1.052  -0.867  0.00  0.00    +0.155 HD
ENDROOT
BRANCH  17  19
ATOM     19  C   UNL     1      -2.449  -3.671  -0.849  0.00  0.00    -0.016 A 
ATOM     20  C   UNL     1      -2.367  -3.179  -2.138  0.00  0.00    +0.006 A 
ATOM     21  C   UNL     1      -2.395  -4.047  -3.213  0.00  0.00    +0.003 A 
ATOM     22  C   UNL     1      -2.516  -5.407  -3.001  0.00  0.00    +0.038 A 
ATOM     23  C   UNL     1      -2.604  -5.901  -1.711  0.00  0.00    +0.124 A 
ATOM     24  C   UNL     1      -2.570  -5.031  -0.634  0.00  0.00    +0.044 A 
ATOM     25  F   UNL     1      -2.722  -7.230  -1.502  0.00  0.00    -0.205 F 
ENDBRANCH  17  19
BRANCH   1  29
ATOM     26  C   UNL     1       0.819  -2.191   4.901  0.00  0.00    +0.165 A 
ATOM     27  C   UNL     1       1.435  -1.344   3.991  0.00  0.00    +0.050 A 
ATOM     28  C   UNL     1       1.218  -1.507   2.636  0.00  0.00    +0.015 A 
ATOM     29  C   UNL     1       0.387  -2.515   2.182  0.00  0.00    +0.042 A 
ATOM     30  C   UNL     1      -0.236  -3.362   3.084  0.00  0.00    +0.172 A 
ATOM     31  C   UNL     1      -0.016  -3.205   4.448  0.00  0.00    +0.204 A 
BRANCH  26  33
ATOM     32  C   UNL     1       1.902  -0.966   6.628  0.00  0.00    +0.277 C 
ATOM     33  O   UNL     1       1.032  -2.029   6.234  0.00  0.00    -0.491 OA
ENDBRANCH  26  33
BRANCH  31  34
ATOM     34  O   UNL     1      -0.622  -4.038   5.337  0.00  0.00    -0.488 OA
ATOM     35  C   UNL     1      -1.907  -3.644   5.824  0.00  0.00    +0.277 C 
ENDBRANCH  31  34
BRANCH  30  36
ATOM     36  O   UNL     1      -1.058  -4.349   2.636  0.00  0.00    -0.491 OA
ATOM     37  C   UNL     1      -0.459  -5.616   2.359  0.00  0.00    +0.277 C 
ENDBRANCH  30  36
ENDBRANCH   1  29
TORSDOF 5
