REMARK  Name = ZINC14975611
REMARK  8 active torsions:
REMARK  status: ('A' for Active; 'I' for Inactive)
REMARK    1  A    between atoms: C_1  and  O_2
REMARK    2  A    between atoms: O_2  and  C_3
REMARK    3  A    between atoms: C_5  and  C_11
REMARK    4  A    between atoms: C_8  and  O_9
REMARK    5  A    between atoms: C_11  and  N_55
REMARK    6  A    between atoms: C_15  and  C_18
REMARK    7  A    between atoms: C_18  and  C_19
REMARK    8  A    between atoms: C_19  and  C_20
REMARK                            x       y       z     vdW  Elec       q    Type
REMARK                         _______ _______ _______ _____ _____    ______ ____
ROOT
ATOM      1  C   UNL     1      -3.055   1.686  -8.477  0.00  0.00    -0.078 C 
ATOM      2  C   UNL     1      -3.767   2.002  -7.160  0.00  0.00    -0.018 C 
ATOM      3  C   UNL     1      -2.938   1.457  -5.994  0.00  0.00    -0.000 C 
ATOM      4  C   UNL     1      -1.538   2.075  -6.041  0.00  0.00    -0.027 C 
ATOM      5  C   UNL     1      -0.890   1.757  -7.391  0.00  0.00    -0.075 C 
ATOM      6  N   UNL     1      -1.724   2.329  -8.469  0.00  0.00    +0.383 N 
ATOM      7  H   UNL     1      -1.841   3.335  -8.302  0.00  0.00    -0.081 HD
ENDROOT
BRANCH   6   8
ATOM      8  C   UNL     1      -1.062   2.134  -9.776  0.00  0.00    -0.043 C 
BRANCH   8  11
ATOM      9  C   UNL     1      -3.015   4.082 -12.358  0.00  0.00    +0.163 A 
ATOM     10  C   UNL     1      -2.122   3.769 -11.345  0.00  0.00    +0.051 A 
ATOM     11  C   UNL     1      -2.034   2.471 -10.877  0.00  0.00    -0.059 A 
ATOM     12  C   UNL     1      -2.831   1.481 -11.420  0.00  0.00    +0.025 A 
ATOM     13  C   UNL     1      -3.729   1.787 -12.427  0.00  0.00    +0.086 A 
ATOM     14  C   UNL     1      -3.822   3.087 -12.901  0.00  0.00    +0.177 A 
ATOM     15 CL   UNL     1      -4.734   0.543 -13.102  0.00  0.00    -0.080 Cl
BRANCH   9  17
ATOM     16  C   UNL     1      -2.242   6.326 -12.216  0.00  0.00    +0.277 C 
ATOM     17  O   UNL     1      -3.102   5.358 -12.820  0.00  0.00    -0.491 OA
ENDBRANCH   9  17
BRANCH  14  18
ATOM     18  O   UNL     1      -4.700   3.389 -13.895  0.00  0.00    -0.502 OA
ATOM     19  H   UNL     1      -4.332   3.302 -14.785  0.00  0.00    +0.292 HD
ENDBRANCH  14  18
ENDBRANCH   8  11
ENDBRANCH   6   8
BRANCH   4  20
ATOM     20  C   UNL     1      -0.683   1.491  -4.914  0.00  0.00    +0.011 C 
BRANCH  20  21
ATOM     21  C   UNL     1      -1.262   1.915  -3.563  0.00  0.00    +0.096 C 
BRANCH  21  22
ATOM     22  C   UNL     1      -0.421   1.339  -2.453  0.00  0.00    +0.216 C 
ATOM     23  O   UNL     1       0.547   0.657  -2.717  0.00  0.00    -0.276 OA
ATOM     24  N   UNL     1      -0.743   1.582  -1.167  0.00  0.00    -0.301 N 
ATOM     25  C   UNL     1      -0.013   1.086   0.008  0.00  0.00    +0.108 C 
ATOM     26  C   UNL     1      -0.756   1.594   1.262  0.00  0.00    +0.020 C 
ATOM     27  C   UNL     1      -2.187   1.874   0.722  0.00  0.00    +0.020 C 
ATOM     28  C   UNL     1      -1.886   2.391  -0.707  0.00  0.00    +0.108 C 
ENDBRANCH  21  22
ENDBRANCH  20  21
ENDBRANCH   4  20
TORSDOF 7
