REMARK  Name = ZINC22846946
REMARK  7 active torsions:
REMARK  status: ('A' for Active; 'I' for Inactive)
REMARK    1  A    between atoms: C_1  and  C_2
REMARK    2  A    between atoms: C_2  and  O_3
REMARK    3  A    between atoms: O_3  and  C_4
REMARK    4  A    between atoms: C_4  and  C_6
REMARK    5  A    between atoms: C_7  and  C_20
REMARK    6  A    between atoms: C_12  and  C_14
REMARK    7  A    between atoms: C_20  and  N_21
REMARK                            x       y       z     vdW  Elec       q    Type
REMARK                         _______ _______ _______ _____ _____    ______ ____
ROOT
ATOM      1  C   UNL     1       3.345   4.730  -0.844  0.00  0.00    +0.080 C 
ATOM      2  C   UNL     1       2.794   4.053   0.186  0.00  0.00    +0.041 C 
ATOM      3  N   UNL     1       3.522   3.752   1.302  0.00  0.00    -0.271 N 
ATOM      4  C   UNL     1       4.805   4.099   1.467  0.00  0.00    +0.304 C 
ATOM      5  O   UNL     1       5.370   3.786   2.497  0.00  0.00    -0.252 OA
ATOM      6  N   UNL     1       5.489   4.782   0.529  0.00  0.00    -0.288 N 
ATOM      7  C   UNL     1       4.794   5.155  -0.714  0.00  0.00    +0.144 C 
ATOM      8  H   UNL     1       3.057   3.196   2.129  0.00  0.00    +0.156 HD
ATOM      9  H   UNL     1       6.543   5.061   0.675  0.00  0.00    +0.151 HD
ENDROOT
BRANCH   7  10
ATOM     10  C   UNL     1       5.554   4.557  -1.869  0.00  0.00    -0.022 A 
ATOM     11  C   UNL     1       6.085   3.285  -1.763  0.00  0.00    +0.006 A 
ATOM     12  C   UNL     1       6.778   2.734  -2.824  0.00  0.00    +0.000 A 
ATOM     13  C   UNL     1       6.949   3.459  -3.989  0.00  0.00    +0.000 A 
ATOM     14  C   UNL     1       6.423   4.733  -4.093  0.00  0.00    +0.000 A 
ATOM     15  C   UNL     1       5.726   5.282  -3.034  0.00  0.00    +0.006 A 
ENDBRANCH   7  10
BRANCH   1  16
ATOM     16  C   UNL     1       2.594   5.037  -2.003  0.00  0.00    +0.339 C 
ATOM     17  O   UNL     1       1.424   4.712  -2.073  0.00  0.00    -0.245 OA
BRANCH  16  18
ATOM     18  O   UNL     1       3.176   5.690  -3.030  0.00  0.00    -0.462 OA
BRANCH  18  20
ATOM     19  C   UNL     1       3.185   6.707  -5.223  0.00  0.00    +0.048 C 
ATOM     20  C   UNL     1       2.358   5.968  -4.169  0.00  0.00    +0.229 C 
ENDBRANCH  18  20
ENDBRANCH  16  18
ENDBRANCH   1  16
BRANCH   2  21
ATOM     21  C   UNL     1       1.354   3.616   0.100  0.00  0.00    +0.156 C 
BRANCH  21  22
ATOM     22  N   UNL     1       0.497   4.628   0.730  0.00  0.00    -0.322 N 
ATOM     23  C   UNL     1       0.479   5.864  -0.056  0.00  0.00    +0.106 C 
ATOM     24  C   UNL     1      -0.406   6.890   0.662  0.00  0.00    +0.024 C 
ATOM     25  C   UNL     1       0.299   7.297   1.957  0.00  0.00    +0.038 C 
ATOM     26  C   UNL     1       0.775   6.064   2.685  0.00  0.00    -0.023 A 
ATOM     27  C   UNL     1       0.859   4.832   2.062  0.00  0.00    +0.069 A 
ATOM     28  C   UNL     1       1.316   3.728   2.787  0.00  0.00    +0.145 A 
ATOM     29  C   UNL     1       1.675   3.862   4.112  0.00  0.00    +0.040 A 
ATOM     30  C   UNL     1       1.583   5.096   4.730  0.00  0.00    +0.003 A 
ATOM     31  C   UNL     1       1.135   6.191   4.018  0.00  0.00    +0.005 A 
ATOM     32  F   UNL     1       1.408   2.522   2.185  0.00  0.00    -0.204 F 
ENDBRANCH  21  22
ENDBRANCH   2  21
TORSDOF 6
