REMARK  Name = ZINC66555833
REMARK  6 active torsions:
REMARK  status: ('A' for Active; 'I' for Inactive)
REMARK    1  A    between atoms: C_7  and  C_12
REMARK    2  A    between atoms: C_12  and  C_13
REMARK    3  A    between atoms: N_15  and  N_16
REMARK    4  A    between atoms: C_17  and  C_19
REMARK    5  A    between atoms: C_19  and  C_20
REMARK    6  A    between atoms: C_20  and  C_21
REMARK                            x       y       z     vdW  Elec       q    Type
REMARK                         _______ _______ _______ _____ _____    ______ ____
ROOT
ATOM      1  C   UNL     1       1.312  -4.302   1.149  0.00  0.00    +0.233 C 
ATOM      2  O   UNL     1       1.883  -4.761   0.183  0.00  0.00    -0.274 OA
ATOM      3  N   UNL     1       0.922  -5.116   2.151  0.00  0.00    -0.234 N 
ATOM      4  H   UNL     1       0.465  -4.749   2.924  0.00  0.00    +0.173 HD
ENDROOT
BRANCH   3   5
ATOM      5  N   UNL     1       1.177  -6.492   2.075  0.00  0.00    -0.234 N 
ATOM      6  C   UNL     1       0.787  -7.305   3.076  0.00  0.00    +0.229 C 
ATOM      7  O   UNL     1       0.216  -6.847   4.043  0.00  0.00    -0.274 OA
ATOM      8  H   UNL     1       1.634  -6.858   1.302  0.00  0.00    +0.173 HD
BRANCH   6   9
ATOM      9  C   UNL     1       1.061  -8.785   2.995  0.00  0.00    +0.097 C 
BRANCH   9  10
ATOM     10  C   UNL     1       0.521  -9.473   4.250  0.00  0.00    +0.013 C 
BRANCH  10  11
ATOM     11  C   UNL     1       0.799 -10.976   4.167  0.00  0.00    -0.011 C 
ATOM     12  C   UNL     1       0.009 -11.577   3.003  0.00  0.00    +0.003 C 
ATOM     13  C   UNL     1       0.287 -13.080   2.920  0.00  0.00    +0.000 C 
ATOM     14  C   UNL     1      -0.140 -13.750   4.227  0.00  0.00    +0.000 C 
ATOM     15  C   UNL     1       0.650 -13.149   5.391  0.00  0.00    +0.000 C 
ATOM     16  C   UNL     1       0.372 -11.646   5.474  0.00  0.00    +0.003 C 
ENDBRANCH  10  11
ENDBRANCH   9  10
ENDBRANCH   6   9
ENDBRANCH   3   5
BRANCH   1  17
ATOM     17  C   UNL     1       1.038  -2.823   1.231  0.00  0.00    +0.146 C 
BRANCH  17  24
ATOM     18  C   UNL     1      -0.017   1.381   0.010  0.00  0.00    +0.000 A 
ATOM     19  C   UNL     1       1.169   2.094   0.002  0.00  0.00    +0.001 A 
ATOM     20  C   UNL     1       2.380   1.432  -0.013  0.00  0.00    +0.015 A 
ATOM     21  C   UNL     1       2.406   0.037  -0.021  0.00  0.00    +0.066 A 
ATOM     22  C   UNL     1       1.203  -0.674  -0.013  0.00  0.00    +0.007 A 
ATOM     23  C   UNL     1       0.002  -0.004   0.002  0.00  0.00    +0.008 A 
ATOM     24  C   UNL     1       1.578  -2.134  -0.024  0.00  0.00    +0.216 C 
ATOM     25  O   UNL     1       3.007  -2.192  -0.038  0.00  0.00    -0.453 OA
ATOM     26  C   UNL     1       3.506  -0.945  -0.037  0.00  0.00    +0.340 C 
ATOM     27  O   UNL     1       4.688  -0.667  -0.047  0.00  0.00    -0.245 OA
ENDBRANCH  17  24
ENDBRANCH   1  17
TORSDOF 6
