REMARK  Name = ZINC67104256
REMARK  9 active torsions:
REMARK  status: ('A' for Active; 'I' for Inactive)
REMARK    1  A    between atoms: C_1  and  C_2
REMARK    2  A    between atoms: C_7  and  C_10
REMARK    3  A    between atoms: C_11  and  C_13
REMARK    4  A    between atoms: N_21  and  N_22
REMARK    5  A    between atoms: C_23  and  C_25
REMARK    6  A    between atoms: C_25  and  C_26
REMARK    7  A    between atoms: C_26  and  C_27
REMARK    8  A    between atoms: C_27  and  C_28
REMARK    9  A    between atoms: C_27  and  C_29
REMARK                            x       y       z     vdW  Elec       q    Type
REMARK                         _______ _______ _______ _____ _____    ______ ____
ROOT
ATOM      1  C   UNL     1       4.196   0.965  -1.987  0.00  0.00    +0.078 C 
ATOM      2  C   UNL     1       5.112  -0.248  -1.817  0.00  0.00    +0.032 C 
ATOM      3  C   UNL     1       6.553   0.230  -1.609  0.00  0.00    +0.110 C 
ATOM      4  N   UNL     1       6.923   1.115  -2.721  0.00  0.00    -0.284 N 
ATOM      5  C   UNL     1       6.059   2.263  -3.029  0.00  0.00    +0.110 C 
ATOM      6  C   UNL     1       4.624   1.762  -3.222  0.00  0.00    +0.032 C 
ATOM      7  C   UNL     1       8.035   0.879  -3.446  0.00  0.00    +0.319 C 
ATOM      8  O   UNL     1       8.692  -0.124  -3.242  0.00  0.00    -0.251 OA
ATOM      9  N   UNL     1       8.418   1.754  -4.396  0.00  0.00    -0.218 N 
ATOM     10  H   UNL     1       7.856   2.516  -4.609  0.00  0.00    +0.174 HD
ENDROOT
BRANCH   1  19
ATOM     11  C   UNL     1      -0.078   1.908  -0.305  0.00  0.00    +0.039 C 
ATOM     12  C   UNL     1      -0.103   0.395  -0.079  0.00  0.00    +0.133 C 
ATOM     13  C   UNL     1       0.656  -0.305  -1.213  0.00  0.00    +0.139 C 
ATOM     14  N   UNL     1       2.082   0.038  -1.097  0.00  0.00    -0.296 N 
ATOM     15  C   UNL     1       2.732  -0.138   0.211  0.00  0.00    +0.139 C 
ATOM     16  C   UNL     1       1.872   0.554   1.275  0.00  0.00    +0.133 C 
ATOM     17  O   UNL     1       0.524   0.087   1.168  0.00  0.00    -0.371 OA
ATOM     18  C   UNL     1       2.418   0.225   2.666  0.00  0.00    +0.039 C 
ATOM     19  C   UNL     1       2.773   0.500  -2.159  0.00  0.00    +0.219 C 
ATOM     20  O   UNL     1       2.249   0.540  -3.252  0.00  0.00    -0.275 OA
ENDBRANCH   1  19
BRANCH   9  21
ATOM     21  N   UNL     1       9.627   1.563  -5.077  0.00  0.00    -0.233 N 
ATOM     22  C   UNL     1      10.060   2.491  -5.954  0.00  0.00    +0.229 C 
ATOM     23  O   UNL     1       9.403   3.490  -6.154  0.00  0.00    -0.274 OA
ATOM     24  H   UNL     1      10.153   0.764  -4.918  0.00  0.00    +0.173 HD
BRANCH  22  25
ATOM     25  C   UNL     1      11.361   2.286  -6.687  0.00  0.00    +0.097 C 
BRANCH  25  26
ATOM     26  C   UNL     1      11.618   3.476  -7.614  0.00  0.00    +0.012 C 
BRANCH  26  27
ATOM     27  C   UNL     1      12.939   3.268  -8.357  0.00  0.00    -0.017 C 
ATOM     28  C   UNL     1      12.818   2.054  -9.281  0.00  0.00    +0.007 C 
ATOM     29  C   UNL     1      13.257   4.512  -9.189  0.00  0.00    +0.007 C 
ENDBRANCH  26  27
ENDBRANCH  25  26
ENDBRANCH  22  25
ENDBRANCH   9  21
TORSDOF 5
