REMARK  Name = ZINC38979398
REMARK  5 active torsions:
REMARK  status: ('A' for Active; 'I' for Inactive)
REMARK    1  A    between atoms: C_1  and  C_2
REMARK    2  A    between atoms: C_4  and  C_8
REMARK    3  A    between atoms: C_12  and  S_25
REMARK    4  A    between atoms: N_14  and  N_15
REMARK    5  A    between atoms: C_16  and  C_17
REMARK                            x       y       z     vdW  Elec       q    Type
REMARK                         _______ _______ _______ _____ _____    ______ ____
ROOT
ATOM      1  C   UNL     1      -0.964  -2.951   1.248  0.00  0.00    +0.206 C 
ATOM      2  N   UNL     1      -0.424  -2.286   2.455  0.00  0.00    -0.231 NA
ATOM      3  N   UNL     1      -0.073  -3.394   3.357  0.00  0.00    -0.225 NA
ATOM      4  C   UNL     1       0.456  -4.426   2.427  0.00  0.00    +0.231 C 
ATOM      5  N   UNL     1      -0.404  -4.313   1.230  0.00  0.00    -0.207 N 
ATOM      6  H   UNL     1       0.389  -1.732   2.230  0.00  0.00    +0.143 HD
ATOM      7  H   UNL     1      -0.887  -3.733   3.848  0.00  0.00    +0.143 HD
ENDROOT
BRANCH   1  11
ATOM      8  C   UNL     1      -0.018   1.503   0.010  0.00  0.00    +0.067 C 
ATOM      9  C   UNL     1       0.002  -0.004   0.002  0.00  0.00    +0.058 C 
ATOM     10  C   UNL     1      -1.086  -0.777   0.003  0.00  0.00    +0.029 C 
ATOM     11  C   UNL     1      -0.531  -2.190  -0.007  0.00  0.00    +0.190 C 
ATOM     12  N   UNL     1       0.926  -1.973  -0.013  0.00  0.00    -0.177 NA
ATOM     13  N   UNL     1       1.125  -0.756  -0.013  0.00  0.00    -0.159 NA
ENDBRANCH   1  11
BRANCH   5  14
ATOM     14  N   UNL     1      -0.640  -5.305   0.269  0.00  0.00    -0.188 NA
ATOM     15  C   UNL     1      -0.074  -6.467   0.384  0.00  0.00    +0.139 C 
BRANCH  15  16
ATOM     16  C   UNL     1      -0.323  -7.511  -0.628  0.00  0.00    +0.014 A 
ATOM     17  C   UNL     1       0.280  -8.765  -0.504  0.00  0.00    +0.011 A 
ATOM     18  C   UNL     1       0.043  -9.737  -1.454  0.00  0.00    +0.002 A 
ATOM     19  C   UNL     1      -0.788  -9.473  -2.528  0.00  0.00    +0.021 A 
ATOM     20  C   UNL     1      -1.389  -8.233  -2.659  0.00  0.00    +0.060 A 
ATOM     21  C   UNL     1      -1.167  -7.252  -1.711  0.00  0.00    +0.068 A 
ATOM     22 CL   UNL     1      -1.927  -5.699  -1.871  0.00  0.00    -0.081 Cl
ATOM     23 CL   UNL     1      -2.430  -7.912  -4.011  0.00  0.00    -0.082 Cl
ENDBRANCH  15  16
ENDBRANCH   5  14
BRANCH   4  24
ATOM     24  S   UNL     1       2.185  -4.075   2.006  0.00  0.00    -0.138 S 
ATOM     25  H   UNL     1       2.826  -4.133   3.188  0.00  0.00    +0.105 HD
ENDBRANCH   4  24
TORSDOF 4
