REMARK  Name = ZINC43490198
REMARK  4 active torsions:
REMARK  status: ('A' for Active; 'I' for Inactive)
REMARK    1  A    between atoms: C_3  and  O_15
REMARK    2  A    between atoms: C_6  and  C_7
REMARK    3  A    between atoms: C_7  and  C_9
REMARK    4  A    between atoms: C_7  and  O_13
REMARK                            x       y       z     vdW  Elec       q    Type
REMARK                         _______ _______ _______ _____ _____    ______ ____
ROOT
ATOM      1  C   UNL     1      -0.017   1.378   0.010  0.00  0.00    +0.010 A 
ATOM      2  C   UNL     1       1.170   2.087   0.002  0.00  0.00    +0.047 A 
ATOM      3  C   UNL     1       2.380   1.411  -0.013  0.00  0.00    +0.135 A 
ATOM      4  C   UNL     1       2.397   0.022  -0.021  0.00  0.00    +0.083 A 
ATOM      5  C   UNL     1       1.208  -0.682  -0.013  0.00  0.00    +0.030 A 
ATOM      6  C   UNL     1       0.002  -0.004   0.002  0.00  0.00    -0.009 A 
ATOM      7 CL   UNL     1       3.910  -0.828  -0.040  0.00  0.00    -0.080 Cl
ENDROOT
BRANCH   3   8
ATOM      8  O   UNL     1       3.548   2.106  -0.021  0.00  0.00    -0.505 OA
ATOM      9  H   UNL     1       3.895   2.303   0.860  0.00  0.00    +0.292 HD
ENDBRANCH   3   8
BRANCH   6  10
ATOM     10  C   UNL     1      -1.293  -0.774   0.011  0.00  0.00    +0.248 C 
BRANCH  10  11
ATOM     11  C   UNL     1      -1.618  -1.242  -1.409  0.00  0.00    +0.420 C 
ATOM     12  F   UNL     1      -0.589  -2.067  -1.875  0.00  0.00    -0.168 F 
ATOM     13  F   UNL     1      -2.821  -1.957  -1.401  0.00  0.00    -0.168 F 
ATOM     14  F   UNL     1      -1.742  -0.131  -2.250  0.00  0.00    -0.168 F 
ENDBRANCH  10  11
BRANCH  10  15
ATOM     15  O   UNL     1      -1.167  -1.909   0.869  0.00  0.00    -0.379 OA
ATOM     16  H   UNL     1      -0.470  -2.526   0.606  0.00  0.00    +0.211 HD
ENDBRANCH  10  15
ENDBRANCH   6  10
TORSDOF 4
