REMARK  Name = ZINC11694895
REMARK  8 active torsions:
REMARK  status: ('A' for Active; 'I' for Inactive)
REMARK    1  A    between atoms: C_1  and  C_2
REMARK    2  A    between atoms: C_5  and  N_9
REMARK    3  A    between atoms: C_6  and  C_8
REMARK    4  A    between atoms: C_10  and  C_12
REMARK    5  A    between atoms: C_14  and  C_32
REMARK    6  A    between atoms: C_22  and  C_24
REMARK    7  A    between atoms: C_27  and  S_30
REMARK    8  A    between atoms: S_30  and  C_31
REMARK                            x       y       z     vdW  Elec       q    Type
REMARK                         _______ _______ _______ _____ _____    ______ ____
ROOT
ATOM      1  C   UNL     1       5.827   2.138   0.226  0.00  0.00    +0.124 C 
ATOM      2  C   UNL     1       5.950   2.941   1.526  0.00  0.00    +0.084 C 
ATOM      3  N   UNL     1       6.347   2.024   2.611  0.00  0.00    -0.310 N 
ATOM      4  C   UNL     1       7.343   1.106   2.305  0.00  0.00    +0.214 A 
ATOM      5  N   UNL     1       8.045   0.342   3.099  0.00  0.00    -0.202 NA
ATOM      6  C   UNL     1       8.901  -0.387   2.375  0.00  0.00    +0.247 A 
ATOM      7  N   UNL     1       8.751  -0.093   1.107  0.00  0.00    -0.156 NA
ATOM      8  N   UNL     1       7.746   0.872   1.033  0.00  0.00    -0.225 N 
ATOM      9  C   UNL     1       7.189   1.538  -0.143  0.00  0.00    +0.154 C 
ATOM     10  C   UNL     1       4.603   3.583   1.863  0.00  0.00    +0.028 C 
ATOM     11  H   UNL     1       5.935   2.059   3.489  0.00  0.00    +0.149 HD
ENDROOT
BRANCH   9  12
ATOM     12  C   UNL     1       7.015   0.537  -1.256  0.00  0.00    -0.022 A 
ATOM     13  C   UNL     1       6.538  -0.731  -0.975  0.00  0.00    +0.007 A 
ATOM     14  C   UNL     1       6.372  -1.649  -1.992  0.00  0.00    +0.015 A 
ATOM     15  C   UNL     1       6.696  -1.303  -3.299  0.00  0.00    +0.008 A 
ATOM     16  C   UNL     1       7.181  -0.030  -3.577  0.00  0.00    +0.015 A 
ATOM     17  C   UNL     1       7.338   0.885  -2.555  0.00  0.00    +0.007 A 
BRANCH  15  18
ATOM     18  S   UNL     1       6.494  -2.474  -4.599  0.00  0.00    -0.129 S 
ATOM     19  C   UNL     1       5.852  -3.951  -3.764  0.00  0.00    +0.090 C 
ENDBRANCH  15  18
ENDBRANCH   9  12
BRANCH   1  21
ATOM     20  N   UNL     1       3.835   0.853  -0.480  0.00  0.00    -0.285 N 
ATOM     21  C   UNL     1       4.826   1.028   0.417  0.00  0.00    +0.224 C 
ATOM     22  O   UNL     1       4.912   0.291   1.377  0.00  0.00    -0.275 OA
ATOM     23  H   UNL     1       3.815   1.384  -1.291  0.00  0.00    +0.155 HD
BRANCH  20  28
ATOM     24  C   UNL     1      -0.225  -2.989   0.492  0.00  0.00    +0.044 C 
ATOM     25  C   UNL     1       0.854  -1.969   0.234  0.00  0.00    -0.050 A 
ATOM     26  C   UNL     1       2.144  -2.203   0.672  0.00  0.00    +0.005 A 
ATOM     27  C   UNL     1       3.135  -1.269   0.438  0.00  0.00    +0.024 A 
ATOM     28  C   UNL     1       2.833  -0.095  -0.240  0.00  0.00    +0.036 A 
ATOM     29  C   UNL     1       1.537   0.137  -0.680  0.00  0.00    -0.029 A 
ATOM     30  C   UNL     1       0.550  -0.801  -0.441  0.00  0.00    +0.008 A 
ATOM     31  C   UNL     1       1.206   1.409  -1.416  0.00  0.00    +0.045 C 
ENDBRANCH  20  28
ENDBRANCH   1  21
TORSDOF 4
