REMARK  Name = ZINC17402570
REMARK  6 active torsions:
REMARK  status: ('A' for Active; 'I' for Inactive)
REMARK    1  A    between atoms: N_10  and  C_11
REMARK    2  A    between atoms: C_11  and  C_12
REMARK    3  A    between atoms: N_14  and  N_15
REMARK    4  A    between atoms: C_16  and  C_18
REMARK    5  A    between atoms: C_18  and  N_19
REMARK    6  A    between atoms: C_20  and  C_26
REMARK                            x       y       z     vdW  Elec       q    Type
REMARK                         _______ _______ _______ _____ _____    ______ ____
ROOT
ATOM      1  N   UNL     1       4.992   3.229  -0.545  0.00  0.00    -0.233 N 
ATOM      2  C   UNL     1       3.917   4.039  -0.612  0.00  0.00    +0.249 C 
ATOM      3  O   UNL     1       3.573   4.504  -1.677  0.00  0.00    -0.272 OA
ATOM      4  H   UNL     1       5.267   2.857   0.307  0.00  0.00    +0.173 HD
ENDROOT
BRANCH   1   7
ATOM      5  C   UNL     1       6.787   2.114  -1.641  0.00  0.00    +0.246 C 
ATOM      6  O   UNL     1       7.131   1.649  -0.575  0.00  0.00    -0.273 OA
ATOM      7  N   UNL     1       5.712   2.924  -1.708  0.00  0.00    -0.233 N 
ATOM      8  H   UNL     1       5.437   3.296  -2.560  0.00  0.00    +0.173 HD
BRANCH   5   9
ATOM      9  C   UNL     1       7.562   1.787  -2.892  0.00  0.00    +0.202 C 
BRANCH   9  19
ATOM     10  C   UNL     1      11.074   3.136   0.187  0.00  0.00    +0.000 A 
ATOM     11  C   UNL     1      10.359   3.790  -0.800  0.00  0.00    +0.002 A 
ATOM     12  C   UNL     1       9.595   3.067  -1.691  0.00  0.00    +0.023 A 
ATOM     13  C   UNL     1       9.537   1.675  -1.604  0.00  0.00    +0.033 A 
ATOM     14  C   UNL     1      10.249   1.026  -0.611  0.00  0.00    -0.026 A 
ATOM     15  C   UNL     1      11.017   1.760   0.280  0.00  0.00    +0.005 A 
ATOM     16  C   UNL     1      10.222  -0.474  -0.457  0.00  0.00    +0.038 C 
ATOM     17  C   UNL     1       9.656  -1.111  -1.729  0.00  0.00    +0.024 C 
ATOM     18  C   UNL     1       8.381  -0.350  -2.111  0.00  0.00    +0.106 C 
ATOM     19  N   UNL     1       8.752   1.001  -2.538  0.00  0.00    -0.321 N 
ENDBRANCH   9  19
ENDBRANCH   5   9
ENDBRANCH   1   7
BRANCH   2  20
ATOM     20  C   UNL     1       3.142   4.366   0.639  0.00  0.00    +0.223 C 
BRANCH  20  21
ATOM     21  N   UNL     1       2.028   5.258   0.304  0.00  0.00    -0.294 N 
ATOM     22  C   UNL     1       0.754   4.862  -0.057  0.00  0.00    +0.170 A 
ATOM     23  N   UNL     1       0.038   5.929  -0.286  0.00  0.00    -0.153 NA
ATOM     24  N   UNL     1       0.850   7.051  -0.065  0.00  0.00    -0.254 N 
ATOM     25  H   UNL     1       0.583   7.979  -0.158  0.00  0.00    +0.191 HD
ATOM     26  C   UNL     1       2.071   6.605   0.294  0.00  0.00    +0.176 A 
ATOM     27  S   UNL     1       3.430   7.575   0.668  0.00  0.00    -0.011 S 
BRANCH  22  28
ATOM     28  C   UNL     1       0.285   3.470  -0.169  0.00  0.00    +0.056 A 
ATOM     29  C   UNL     1      -0.999   2.994  -0.245  0.00  0.00    +0.019 A 
ATOM     30  C   UNL     1      -1.196   1.636  -0.352  0.00  0.00    +0.008 A 
ATOM     31  C   UNL     1      -0.117   0.810  -0.369  0.00  0.00    +0.046 A 
ATOM     32  S   UNL     1       1.240   1.963  -0.244  0.00  0.00    -0.094 S 
ENDBRANCH  22  28
ENDBRANCH  20  21
ENDBRANCH   2  20
TORSDOF 6
