REMARK  Name = ZINC44226528
REMARK  6 active torsions:
REMARK  status: ('A' for Active; 'I' for Inactive)
REMARK    1  A    between atoms: C_1  and  C_2
REMARK    2  A    between atoms: C_2  and  C_3
REMARK    3  A    between atoms: C_2  and  C_4
REMARK    4  A    between atoms: C_2  and  O_5
REMARK    5  A    between atoms: O_5  and  C_6
REMARK    6  A    between atoms: C_16  and  O_18
REMARK                            x       y       z     vdW  Elec       q    Type
REMARK                         _______ _______ _______ _____ _____    ______ ____
ROOT
ATOM      1  C   UNL     1       1.918  -0.497  -1.425  0.00  0.00    +0.152 C 
ATOM      2  C   UNL     1       2.675  -1.704  -0.859  0.00  0.00    +0.039 C 
ATOM      3  C   UNL     1       4.171  -1.398  -0.904  0.00  0.00    +0.038 C 
ATOM      4  C   UNL     1       4.575  -0.935  -2.279  0.00  0.00    -0.042 A 
ATOM      5  C   UNL     1       5.925  -0.979  -2.605  0.00  0.00    +0.004 A 
ATOM      6  C   UNL     1       6.360  -0.564  -3.846  0.00  0.00    +0.000 A 
ATOM      7  C   UNL     1       5.446  -0.099  -4.774  0.00  0.00    +0.000 A 
ATOM      8  C   UNL     1       4.105  -0.057  -4.453  0.00  0.00    +0.006 A 
ATOM      9  C   UNL     1       3.665  -0.478  -3.205  0.00  0.00    -0.014 A 
ATOM     10  C   UNL     1       2.185  -0.420  -2.927  0.00  0.00    +0.173 C 
ENDROOT
BRANCH  10  11
ATOM     11  O   UNL     1       1.657   0.806  -3.437  0.00  0.00    -0.385 OA
ATOM     12  H   UNL     1       1.790   0.926  -4.387  0.00  0.00    +0.210 HD
ENDBRANCH  10  11
BRANCH   1  13
ATOM     13  O   UNL     1       0.517  -0.656  -1.193  0.00  0.00    -0.368 OA
BRANCH  13  15
ATOM     14  C   UNL     1       0.181   1.664  -0.605  0.00  0.00    +0.041 C 
ATOM     15  C   UNL     1      -0.007   0.206  -0.181  0.00  0.00    +0.062 C 
ATOM     16  C   UNL     1       0.735  -0.042   1.134  0.00  0.00    +0.041 C 
ATOM     17  C   UNL     1      -1.497  -0.080   0.012  0.00  0.00    +0.041 C 
ENDBRANCH  13  15
ENDBRANCH   1  13
TORSDOF 3
