REMARK  Name = ZINC41350033
REMARK  8 active torsions:
REMARK  status: ('A' for Active; 'I' for Inactive)
REMARK    1  A    between atoms: C_1  and  C_2
REMARK    2  A    between atoms: C_6  and  C_7
REMARK    3  A    between atoms: C_14  and  O_18
REMARK    4  A    between atoms: O_18  and  C_19
REMARK    5  A    between atoms: C_19  and  C_21
REMARK    6  A    between atoms: C_21  and  C_23
REMARK    7  A    between atoms: C_21  and  O_24
REMARK    8  A    between atoms: O_24  and  C_25
REMARK                            x       y       z     vdW  Elec       q    Type
REMARK                         _______ _______ _______ _____ _____    ______ ____
ROOT
ATOM      1  C   UNL     1      -0.204  -0.353   2.464  0.00  0.00    +0.065 C 
ATOM      2  C   UNL     1      -0.115  -1.247   3.491  0.00  0.00    +0.177 C 
ATOM      3  C   UNL     1       0.002  -0.920   4.868  0.00  0.00    +0.231 C 
ATOM      4  O   UNL     1       0.043   0.194   5.364  0.00  0.00    -0.283 OA
ATOM      5  C   UNL     1       0.063  -2.215   5.569  0.00  0.00    +0.068 A 
ATOM      6  C   UNL     1       0.178  -2.576   6.911  0.00  0.00    +0.019 A 
ATOM      7  C   UNL     1       0.209  -3.897   7.259  0.00  0.00    +0.047 A 
ATOM      8  C   UNL     1       0.127  -4.883   6.279  0.00  0.00    +0.135 A 
ATOM      9  C   UNL     1       0.013  -4.538   4.942  0.00  0.00    +0.093 A 
ATOM     10  C   UNL     1      -0.021  -3.200   4.572  0.00  0.00    +0.143 A 
ATOM     11  O   UNL     1      -0.130  -2.595   3.370  0.00  0.00    -0.451 OA
ENDROOT
BRANCH   1  17
ATOM     12  C   UNL     1      -0.421   1.427  -0.054  0.00  0.00    +0.045 C 
ATOM     13  C   UNL     1      -0.425  -0.080  -0.044  0.00  0.00    -0.036 A 
ATOM     14  C   UNL     1      -0.523  -0.819  -1.198  0.00  0.00    +0.011 A 
ATOM     15  C   UNL     1      -0.520  -2.173  -1.117  0.00  0.00    +0.046 A 
ATOM     16  S   UNL     1      -0.383  -2.490   0.527  0.00  0.00    -0.097 S 
ATOM     17  C   UNL     1      -0.323  -0.815   1.134  0.00  0.00    +0.019 A 
ENDBRANCH   1  17
BRANCH   8  18
ATOM     18  O   UNL     1       0.159  -6.192   6.637  0.00  0.00    -0.423 OA
BRANCH  18  19
ATOM     19  C   UNL     1       1.244  -6.910   6.305  0.00  0.00    +0.353 C 
ATOM     20  O   UNL     1       2.197  -6.366   5.799  0.00  0.00    -0.246 OA
BRANCH  19  21
ATOM     21  C   UNL     1       1.274  -8.395   6.562  0.00  0.00    +0.279 C 
ATOM     22  C   UNL     1       1.227  -8.651   8.070  0.00  0.00    +0.064 C 
BRANCH  21  23
ATOM     23  O   UNL     1       2.475  -8.948   6.022  0.00  0.00    -0.472 OA
BRANCH  23  24
ATOM     24  C   UNL     1       2.422 -10.238   5.591  0.00  0.00    +0.198 A 
ATOM     25  C   UNL     1       2.707 -11.275   6.469  0.00  0.00    +0.206 A 
ATOM     26  C   UNL     1       2.652 -12.588   6.030  0.00  0.00    +0.200 A 
ATOM     27  C   UNL     1       2.312 -12.866   4.715  0.00  0.00    +0.199 A 
ATOM     28  C   UNL     1       2.027 -11.831   3.838  0.00  0.00    +0.200 A 
ATOM     29  C   UNL     1       2.076 -10.518   4.277  0.00  0.00    +0.206 A 
ATOM     30  F   UNL     1       1.792  -9.509   3.423  0.00  0.00    -0.198 F 
ATOM     31  F   UNL     1       1.696 -12.103   2.557  0.00  0.00    -0.199 F 
ATOM     32  F   UNL     1       2.259 -14.146   4.288  0.00  0.00    -0.199 F 
ATOM     33  F   UNL     1       2.931 -13.597   6.883  0.00  0.00    -0.199 F 
ATOM     34  F   UNL     1       3.040 -11.004   7.750  0.00  0.00    -0.198 F 
ENDBRANCH  23  24
ENDBRANCH  21  23
ENDBRANCH  19  21
ENDBRANCH  18  19
ENDBRANCH   8  18
TORSDOF 6
