REMARK  Name = ZINC04793003
REMARK  8 active torsions:
REMARK  status: ('A' for Active; 'I' for Inactive)
REMARK    1  A    between atoms: C_1  and  N_2
REMARK    2  A    between atoms: C_4  and  C_11
REMARK    3  A    between atoms: C_13  and  C_25
REMARK    4  A    between atoms: N_23  and  C_24
REMARK    5  A    between atoms: N_27  and  C_28
REMARK    6  A    between atoms: C_30  and  N_36
REMARK    7  A    between atoms: C_33  and  O_34
REMARK    8  A    between atoms: O_34  and  C_35
REMARK                            x       y       z     vdW  Elec       q    Type
REMARK                         _______ _______ _______ _____ _____    ______ ____
ROOT
ATOM      1  C   UNL     1      -0.164  -3.296  -1.214  0.00  0.00    +0.124 C 
ATOM      2  C   UNL     1      -1.249  -4.211  -1.775  0.00  0.00    +0.131 C 
ATOM      3  C   UNL     1      -0.821  -4.769  -3.107  0.00  0.00    -0.021 A 
ATOM      4  C   UNL     1      -1.202  -6.035  -3.495  0.00  0.00    +0.005 A 
ATOM      5  C   UNL     1      -0.810  -6.527  -4.728  0.00  0.00    +0.000 A 
ATOM      6  C   UNL     1      -0.038  -5.755  -5.578  0.00  0.00    +0.001 A 
ATOM      7  C   UNL     1       0.354  -4.486  -5.199  0.00  0.00    +0.013 A 
ATOM      8  C   UNL     1      -0.031  -3.990  -3.955  0.00  0.00    +0.041 A 
ATOM      9  C   UNL     1       0.404  -2.651  -3.503  0.00  0.00    +0.247 C 
ATOM     10  O   UNL     1       0.889  -1.865  -4.293  0.00  0.00    -0.270 OA
ATOM     11  N   UNL     1       0.255  -2.312  -2.209  0.00  0.00    -0.292 N 
ATOM     12  C   UNL     1       0.519  -0.932  -1.792  0.00  0.00    +0.133 C 
ENDROOT
BRANCH   1  16
ATOM     13  C   UNL     1      -3.342  -1.451   2.215  0.00  0.00    +0.149 C 
ATOM     14  N   UNL     1      -2.088  -1.757   1.521  0.00  0.00    -0.349 N 
ATOM     15  C   UNL     1      -1.986  -2.484   0.367  0.00  0.00    +0.092 A 
ATOM     16  C   UNL     1      -0.699  -2.579  -0.002  0.00  0.00    -0.001 A 
ATOM     17  C   UNL     1       0.088  -1.852   0.998  0.00  0.00    +0.005 A 
ATOM     18  C   UNL     1      -0.838  -1.350   1.931  0.00  0.00    +0.049 A 
ATOM     19  C   UNL     1      -0.381  -0.601   3.010  0.00  0.00    +0.026 A 
ATOM     20  C   UNL     1       0.968  -0.357   3.150  0.00  0.00    +0.002 A 
ATOM     21  C   UNL     1       1.877  -0.851   2.226  0.00  0.00    +0.001 A 
ATOM     22  C   UNL     1       1.450  -1.597   1.163  0.00  0.00    +0.010 A 
ENDBRANCH   1  16
BRANCH   2  23
ATOM     23  C   UNL     1      -2.523  -3.425  -1.952  0.00  0.00    +0.227 C 
ATOM     24  O   UNL     1      -2.473  -2.239  -2.204  0.00  0.00    -0.275 OA
ATOM     25  N   UNL     1      -3.716  -4.039  -1.831  0.00  0.00    -0.282 N 
ATOM     26  H   UNL     1      -3.757  -4.998  -1.696  0.00  0.00    +0.155 HD
BRANCH  25  27
ATOM     27  C   UNL     1      -4.899  -3.291  -1.900  0.00  0.00    +0.078 A 
ATOM     28  C   UNL     1      -4.962  -2.161  -2.703  0.00  0.00    +0.059 A 
ATOM     29  C   UNL     1      -6.129  -1.425  -2.770  0.00  0.00    +0.128 A 
ATOM     30  C   UNL     1      -7.237  -1.812  -2.038  0.00  0.00    +0.036 A 
ATOM     31  C   UNL     1      -7.182  -2.936  -1.236  0.00  0.00    +0.050 A 
ATOM     32  C   UNL     1      -6.017  -3.683  -1.168  0.00  0.00    +0.141 A 
BRANCH  29  33
ATOM     33  N   UNL     1      -6.194  -0.220  -3.627  0.00  0.00    +0.056 N 
ATOM     34  O   UNL     1      -5.227   0.119  -4.268  0.00  0.00    -0.126 OA
ATOM     35  O   UNL     1      -7.215   0.425  -3.687  0.00  0.00    -0.126 OA
ENDBRANCH  29  33
BRANCH  32  36
ATOM     36  O   UNL     1      -5.964  -4.792  -0.383  0.00  0.00    -0.493 OA
ATOM     37  C   UNL     1      -7.148  -5.133   0.339  0.00  0.00    +0.277 C 
ENDBRANCH  32  36
ENDBRANCH  25  27
ENDBRANCH   2  23
TORSDOF 5
