REMARK  Name = ZINC67251764
REMARK  8 active torsions:
REMARK  status: ('A' for Active; 'I' for Inactive)
REMARK    1  A    between atoms: C_1  and  C_2
REMARK    2  A    between atoms: C_2  and  O_3
REMARK    3  A    between atoms: O_3  and  C_4
REMARK    4  A    between atoms: C_7  and  C_10
REMARK    5  A    between atoms: C_10  and  C_16
REMARK    6  A    between atoms: C_16  and  N_17
REMARK    7  A    between atoms: N_17  and  C_18
REMARK    8  A    between atoms: C_18  and  C_19
REMARK                            x       y       z     vdW  Elec       q    Type
REMARK                         _______ _______ _______ _____ _____    ______ ____
ROOT
ATOM      1  C   UNL     1       1.149  -6.051   1.764  0.00  0.00    -0.015 C 
ATOM      2  C   UNL     1      -0.256  -6.633   1.950  0.00  0.00    +0.038 C 
ATOM      3  C   UNL     1      -0.159  -8.158   2.044  0.00  0.00    +0.160 C 
ATOM      4  O   UNL     1       0.470  -8.668   0.867  0.00  0.00    -0.380 OA
ATOM      5  C   UNL     1       1.803  -8.195   0.666  0.00  0.00    +0.160 C 
ATOM      6  C   UNL     1       1.785  -6.671   0.516  0.00  0.00    +0.038 C 
ENDROOT
BRANCH   1  10
ATOM      7  C   UNL     1       0.886  -1.813   1.278  0.00  0.00    +0.121 A 
ATOM      8  C   UNL     1       0.123  -2.653   0.479  0.00  0.00    +0.046 A 
ATOM      9  C   UNL     1       0.210  -4.022   0.638  0.00  0.00    +0.008 A 
ATOM     10  C   UNL     1       1.056  -4.556   1.592  0.00  0.00    -0.043 A 
ATOM     11  C   UNL     1       1.817  -3.722   2.389  0.00  0.00    +0.008 A 
ATOM     12  C   UNL     1       1.738  -2.352   2.230  0.00  0.00    +0.046 A 
BRANCH   7  13
ATOM     13  O   UNL     1       0.802  -0.466   1.123  0.00  0.00    -0.492 OA
BRANCH  13  15
ATOM     14  C   UNL     1      -0.054   1.547   0.096  0.00  0.00    +0.048 C 
ATOM     15  C   UNL     1      -0.096   0.018   0.123  0.00  0.00    +0.225 C 
ENDBRANCH  13  15
ENDBRANCH   7  13
ENDBRANCH   1  10
BRANCH   1  16
ATOM     16  C   UNL     1       2.005  -6.373   2.989  0.00  0.00    -0.070 C 
BRANCH  16  17
ATOM     17  N   UNL     1       1.321  -5.906   4.202  0.00  0.00    +0.382 N 
ATOM     18  H   UNL     1       1.099  -4.926   4.107  0.00  0.00    -0.085 HD
ATOM     19  H   UNL     1       0.470  -6.432   4.332  0.00  0.00    -0.085 HD
BRANCH  17  20
ATOM     20  C   UNL     1       2.198  -6.098   5.365  0.00  0.00    -0.047 C 
BRANCH  20  21
ATOM     21  C   UNL     1       1.495  -5.619   6.609  0.00  0.00    -0.061 A 
ATOM     22  C   UNL     1       1.626  -4.303   7.012  0.00  0.00    +0.005 A 
ATOM     23  C   UNL     1       0.985  -3.860   8.153  0.00  0.00    +0.049 A 
ATOM     24  C   UNL     1       0.207  -4.735   8.896  0.00  0.00    +0.162 A 
ATOM     25  C   UNL     1       0.073  -6.057   8.490  0.00  0.00    +0.162 A 
ATOM     26  C   UNL     1       0.716  -6.494   7.342  0.00  0.00    +0.051 A 
ATOM     27  O   UNL     1      -0.692  -6.930   9.201  0.00  0.00    -0.485 OA
ATOM     28  C   UNL     1      -1.022  -6.552  10.542  0.00  0.00    +0.270 C 
ATOM     29  C   UNL     1      -1.485  -5.089  10.529  0.00  0.00    +0.270 C 
ATOM     30  O   UNL     1      -0.416  -4.285  10.020  0.00  0.00    -0.485 OA
ENDBRANCH  20  21
ENDBRANCH  17  20
ENDBRANCH  16  17
ENDBRANCH   1  16
TORSDOF 7
