REMARK  Name = ZINC62038730
REMARK  7 active torsions:
REMARK  status: ('A' for Active; 'I' for Inactive)
REMARK    1  A    between atoms: C_1  and  C_2
REMARK    2  A    between atoms: C_2  and  C_4
REMARK    3  A    between atoms: C_2  and  S_16
REMARK    4  A    between atoms: N_6  and  C_7
REMARK    5  A    between atoms: C_9  and  C_14
REMARK    6  A    between atoms: C_12  and  O_13
REMARK    7  A    between atoms: S_16  and  C_17
REMARK                            x       y       z     vdW  Elec       q    Type
REMARK                         _______ _______ _______ _____ _____    ______ ____
ROOT
ATOM      1  C   UNL     1      -0.008   1.543   0.026  0.00  0.00    +0.029 C 
ATOM      2  C   UNL     1       0.007   0.013   0.006  0.00  0.00    +0.137 C 
ENDROOT
BRANCH   2   3
ATOM      3  C   UNL     1       0.733  -0.497   1.225  0.00  0.00    +0.230 C 
ATOM      4  O   UNL     1       1.912  -0.773   1.157  0.00  0.00    -0.274 OA
ATOM      5  N   UNL     1       0.071  -0.647   2.389  0.00  0.00    -0.282 N 
ATOM      6  H   UNL     1      -0.854  -0.366   2.461  0.00  0.00    +0.155 HD
BRANCH   5   7
ATOM      7  C   UNL     1       0.721  -1.210   3.497  0.00  0.00    +0.076 A 
ATOM      8  C   UNL     1       2.066  -0.969   3.705  0.00  0.00    +0.038 A 
ATOM      9  C   UNL     1       2.710  -1.533   4.812  0.00  0.00    +0.016 A 
ATOM     10  C   UNL     1       1.989  -2.337   5.703  0.00  0.00    +0.015 A 
ATOM     11  C   UNL     1       0.650  -2.573   5.488  0.00  0.00    +0.048 A 
ATOM     12  C   UNL     1       0.008  -2.009   4.393  0.00  0.00    +0.138 A 
BRANCH  12  13
ATOM     13  O   UNL     1      -1.314  -2.240   4.190  0.00  0.00    -0.505 OA
ATOM     14  H   UNL     1      -1.498  -3.022   3.651  0.00  0.00    +0.292 HD
ENDBRANCH  12  13
BRANCH   9  15
ATOM     15  C   UNL     1       4.139  -1.281   5.040  0.00  0.00    +0.258 C 
ATOM     16  O   UNL     1       4.696  -1.770   6.000  0.00  0.00    -0.296 OA
ENDBRANCH   9  15
ENDBRANCH   5   7
ENDBRANCH   2   3
BRANCH   2  17
ATOM     17  S   UNL     1       0.856  -0.565  -1.489  0.00  0.00    -0.075 S 
BRANCH  17  18
ATOM     18  C   UNL     1      -0.181  -0.019  -2.805  0.00  0.00    +0.171 A 
ATOM     19  N   UNL     1      -1.279   0.650  -2.524  0.00  0.00    -0.185 NA
ATOM     20  C   UNL     1      -2.111   1.092  -3.472  0.00  0.00    +0.282 A 
ATOM     21  O   UNL     1      -3.120   1.710  -3.170  0.00  0.00    -0.265 OA
ATOM     22  C   UNL     1      -1.792   0.825  -4.894  0.00  0.00    +0.075 A 
ATOM     23  C   UNL     1      -2.557   1.214  -6.089  0.00  0.00    -0.023 A 
ATOM     24  C   UNL     1      -2.051   0.847  -7.279  0.00  0.00    -0.004 A 
ATOM     25  S   UNL     1      -0.550  -0.022  -6.887  0.00  0.00    -0.075 S 
ATOM     26  C   UNL     1      -0.617   0.113  -5.122  0.00  0.00    +0.092 A 
ATOM     27  N   UNL     1       0.175  -0.295  -4.092  0.00  0.00    -0.328 N 
ATOM     28  C   UNL     1      -2.916   1.292  -8.427  0.00  0.00    +0.043 C 
ATOM     29  C   UNL     1      -4.277   1.629  -7.778  0.00  0.00    +0.010 C 
ATOM     30  C   UNL     1      -3.859   1.980  -6.337  0.00  0.00    +0.037 C 
ATOM     31  H   UNL     1       0.992  -0.787  -4.274  0.00  0.00    +0.168 HD
ENDBRANCH  17  18
ENDBRANCH   2  17
TORSDOF 6
