REMARK  Name = ZINC47969408
REMARK  7 active torsions:
REMARK  status: ('A' for Active; 'I' for Inactive)
REMARK    1  A    between atoms: C_4  and  N_7
REMARK    2  A    between atoms: C_9  and  C_12
REMARK    3  A    between atoms: C_12  and  C_13
REMARK    4  A    between atoms: C_13  and  N_14
REMARK    5  A    between atoms: C_15  and  C_17
REMARK    6  A    between atoms: N_19  and  C_20
REMARK    7  A    between atoms: C_21  and  C_25
REMARK                            x       y       z     vdW  Elec       q    Type
REMARK                         _______ _______ _______ _____ _____    ______ ____
ROOT
ATOM      1  N   UNL     1       6.586  -5.385  -1.549  0.00  0.00    -0.307 N 
ATOM      2  C   UNL     1       6.864  -5.984  -2.724  0.00  0.00    +0.299 C 
ATOM      3  O   UNL     1       6.597  -5.425  -3.768  0.00  0.00    -0.265 OA
ATOM      4  H   UNL     1       6.800  -5.831  -0.715  0.00  0.00    +0.149 HD
ENDROOT
BRANCH   2   5
ATOM      5  C   UNL     1       7.500  -7.334  -2.742  0.00  0.00    +0.304 C 
ATOM      6  O   UNL     1       7.767  -7.893  -1.698  0.00  0.00    -0.265 OA
ATOM      7  N   UNL     1       7.777  -7.933  -3.917  0.00  0.00    -0.272 N 
ATOM      8  H   UNL     1       7.564  -7.487  -4.751  0.00  0.00    +0.156 HD
BRANCH   7   9
ATOM      9  C   UNL     1       8.367  -9.185  -3.933  0.00  0.00    +0.084 A 
ATOM     10  C   UNL     1       8.726  -9.944  -5.038  0.00  0.00    +0.065 A 
ATOM     11  C   UNL     1       9.331 -11.229  -4.771  0.00  0.00    +0.022 A 
ATOM     12  C   UNL     1       9.479 -11.548  -3.471  0.00  0.00    +0.048 A 
ATOM     13  S   UNL     1       8.818 -10.130  -2.623  0.00  0.00    -0.081 S 
BRANCH  10  14
ATOM     14  C   UNL     1       8.504  -9.468  -6.407  0.00  0.00    +0.244 C 
ATOM     15  O   UNL     1       7.991  -8.380  -6.597  0.00  0.00    -0.270 OA
ATOM     16  N   UNL     1       8.866 -10.234  -7.455  0.00  0.00    -0.325 N 
ATOM     17  H   UNL     1       9.275 -11.101  -7.304  0.00  0.00    +0.145 HD
ATOM     18  H   UNL     1       8.719  -9.918  -8.361  0.00  0.00    +0.145 HD
ENDBRANCH  10  14
ENDBRANCH   7   9
ENDBRANCH   2   5
BRANCH   1  19
ATOM     19  C   UNL     1       5.962  -4.060  -1.531  0.00  0.00    +0.109 C 
BRANCH  19  20
ATOM     20  C   UNL     1       5.757  -3.612  -0.083  0.00  0.00    +0.057 C 
BRANCH  20  23
ATOM     21  N   UNL     1       3.624  -0.652  -0.037  0.00  0.00    -0.240 N 
ATOM     22  C   UNL     1       3.786  -1.994  -0.052  0.00  0.00    +0.118 A 
ATOM     23  C   UNL     1       5.115  -2.248  -0.065  0.00  0.00    -0.008 A 
ATOM     24  C   UNL     1       5.788  -1.022  -0.059  0.00  0.00    +0.138 A 
ATOM     25  N   UNL     1       4.895  -0.065  -0.048  0.00  0.00    -0.175 NA
BRANCH  21  29
ATOM     26  C   UNL     1      -0.017   1.379   0.010  0.00  0.00    +0.000 A 
ATOM     27  C   UNL     1       1.170   2.089   0.002  0.00  0.00    +0.002 A 
ATOM     28  C   UNL     1       2.377   1.419  -0.013  0.00  0.00    +0.028 A 
ATOM     29  C   UNL     1       2.399   0.031  -0.021  0.00  0.00    +0.065 A 
ATOM     30  C   UNL     1       1.207  -0.680  -0.013  0.00  0.00    +0.028 A 
ATOM     31  C   UNL     1       0.002  -0.004   0.002  0.00  0.00    +0.002 A 
ENDBRANCH  21  29
ENDBRANCH  20  23
ENDBRANCH  19  20
ENDBRANCH   1  19
TORSDOF 7
