REMARK  Name = ZINC11730490
REMARK  8 active torsions:
REMARK  status: ('A' for Active; 'I' for Inactive)
REMARK    1  A    between atoms: C_1  and  C_2
REMARK    2  A    between atoms: C_2  and  C_3
REMARK    3  A    between atoms: C_6  and  S_9
REMARK    4  A    between atoms: S_9  and  C_12
REMARK    5  A    between atoms: C_13  and  C_24
REMARK    6  A    between atoms: N_14  and  C_17
REMARK    7  A    between atoms: C_20  and  N_23
REMARK    8  A    between atoms: C_27  and  C_30
REMARK                            x       y       z     vdW  Elec       q    Type
REMARK                         _______ _______ _______ _____ _____    ______ ____
ROOT
ATOM      1  C   UNL     1      -2.120   2.692   6.636  0.00  0.00    +0.231 A 
ATOM      2  C   UNL     1      -0.957   3.290   7.035  0.00  0.00    +0.120 A 
ATOM      3  N   UNL     1      -0.328   2.379   7.840  0.00  0.00    -0.210 N 
ATOM      4  N   UNL     1      -1.069   1.328   7.905  0.00  0.00    -0.058 NA
ATOM      5  N   UNL     1      -2.138   1.486   7.209  0.00  0.00    -0.109 NA
ENDROOT
BRANCH   2   6
ATOM      6  C   UNL     1      -0.478   4.642   6.673  0.00  0.00    +0.004 A 
ATOM      7  C   UNL     1      -0.291   4.983   5.333  0.00  0.00    +0.010 A 
ATOM      8  C   UNL     1       0.151   6.247   5.001  0.00  0.00    +0.004 A 
ATOM      9  C   UNL     1       0.419   7.173   5.994  0.00  0.00    -0.050 A 
ATOM     10  C   UNL     1       0.241   6.839   7.325  0.00  0.00    +0.004 A 
ATOM     11  C   UNL     1      -0.206   5.580   7.669  0.00  0.00    +0.010 A 
ATOM     12  C   UNL     1       0.908   8.549   5.625  0.00  0.00    +0.044 C 
ENDBRANCH   2   6
BRANCH   3  13
ATOM     13  C   UNL     1       0.906   2.558   8.482  0.00  0.00    +0.068 A 
ATOM     14  C   UNL     1       1.913   3.283   7.858  0.00  0.00    +0.029 A 
ATOM     15  C   UNL     1       3.126   3.464   8.491  0.00  0.00    +0.025 A 
ATOM     16  C   UNL     1       3.343   2.912   9.748  0.00  0.00    +0.025 A 
ATOM     17  C   UNL     1       2.337   2.183  10.369  0.00  0.00    +0.025 A 
ATOM     18  C   UNL     1       1.122   2.007   9.737  0.00  0.00    +0.029 A 
BRANCH  16  19
ATOM     19  N   UNL     1       4.574   3.090  10.386  0.00  0.00    -0.358 N 
ATOM     20  H   UNL     1       4.725   2.705  11.263  0.00  0.00    +0.142 HD
ATOM     21  H   UNL     1       5.276   3.600   9.953  0.00  0.00    +0.142 HD
ENDBRANCH  16  19
ENDBRANCH   3  13
BRANCH   1  22
ATOM     22  S   UNL     1      -3.353   3.379   5.583  0.00  0.00    +0.046 S 
ATOM     23  O   UNL     1      -4.111   2.287   5.078  0.00  0.00    -0.163 OA
ATOM     24  O   UNL     1      -2.691   4.304   4.732  0.00  0.00    -0.163 OA
BRANCH  22  28
ATOM     25  C   UNL     1      -6.152   5.796   8.193  0.00  0.00    -0.048 A 
ATOM     26  C   UNL     1      -6.338   4.433   8.057  0.00  0.00    +0.005 A 
ATOM     27  C   UNL     1      -5.486   3.696   7.256  0.00  0.00    +0.028 A 
ATOM     28  C   UNL     1      -4.442   4.320   6.599  0.00  0.00    +0.095 A 
ATOM     29  C   UNL     1      -4.252   5.682   6.740  0.00  0.00    +0.028 A 
ATOM     30  C   UNL     1      -5.107   6.420   7.537  0.00  0.00    +0.005 A 
BRANCH  25  32
ATOM     31  C   UNL     1      -8.255   7.111   8.219  0.00  0.00    +0.009 C 
ATOM     32  C   UNL     1      -7.084   6.601   9.062  0.00  0.00    +0.032 C 
ENDBRANCH  25  32
ENDBRANCH  22  28
ENDBRANCH   1  22
TORSDOF 6
