REMARK  Name = ZINC57364103
REMARK  8 active torsions:
REMARK  status: ('A' for Active; 'I' for Inactive)
REMARK    1  A    between atoms: C_1  and  C_2
REMARK    2  A    between atoms: C_2  and  N_3
REMARK    3  A    between atoms: N_3  and  C_4
REMARK    4  A    between atoms: N_3  and  C_20
REMARK    5  A    between atoms: C_4  and  C_5
REMARK    6  A    between atoms: N_7  and  C_8
REMARK    7  A    between atoms: C_9  and  C_17
REMARK    8  A    between atoms: C_25  and  C_26
REMARK                            x       y       z     vdW  Elec       q    Type
REMARK                         _______ _______ _______ _____ _____    ______ ____
ROOT
ATOM      1  C   UNL     1      -0.867  -1.836   0.836  0.00  0.00    +0.235 C 
ATOM      2  O   UNL     1      -0.396  -2.107  -0.248  0.00  0.00    -0.274 OA
ATOM      3  N   UNL     1      -1.960  -2.489   1.278  0.00  0.00    -0.278 N 
ATOM      4  H   UNL     1      -2.337  -2.273   2.146  0.00  0.00    +0.155 HD
ENDROOT
BRANCH   3   5
ATOM      5  C   UNL     1      -2.546  -3.471   0.493  0.00  0.00    +0.084 A 
ATOM      6  C   UNL     1      -3.666  -4.235   0.780  0.00  0.00    +0.068 A 
ATOM      7  C   UNL     1      -4.081  -5.205  -0.218  0.00  0.00    -0.023 A 
ATOM      8  C   UNL     1      -3.300  -5.234  -1.319  0.00  0.00    -0.004 A 
ATOM      9  S   UNL     1      -2.066  -4.001  -1.026  0.00  0.00    -0.077 S 
ATOM     10  C   UNL     1      -3.464  -6.119  -2.516  0.00  0.00    +0.043 C 
ATOM     11  C   UNL     1      -4.429  -7.255  -2.147  0.00  0.00    +0.005 C 
ATOM     12  C   UNL     1      -5.661  -6.655  -1.463  0.00  0.00    +0.005 C 
ATOM     13  C   UNL     1      -5.283  -6.128  -0.077  0.00  0.00    +0.037 C 
BRANCH   6  14
ATOM     14  C   UNL     1      -4.401  -4.071   2.038  0.00  0.00    +0.244 C 
ATOM     15  O   UNL     1      -5.319  -3.275   2.107  0.00  0.00    -0.270 OA
ATOM     16  N   UNL     1      -4.060  -4.802   3.118  0.00  0.00    -0.325 N 
ATOM     17  H   UNL     1      -3.328  -5.436   3.063  0.00  0.00    +0.145 HD
ATOM     18  H   UNL     1      -4.546  -4.694   3.950  0.00  0.00    +0.145 HD
ENDBRANCH   6  14
ENDBRANCH   3   5
BRANCH   1  19
ATOM     19  C   UNL     1      -0.230  -0.769   1.689  0.00  0.00    +0.201 C 
BRANCH  19  20
ATOM     20  N   UNL     1       0.868  -0.143   0.949  0.00  0.00    -0.321 N 
BRANCH  20  21
ATOM     21  C   UNL     1       2.178  -0.592   1.130  0.00  0.00    +0.033 A 
ATOM     22  C   UNL     1       2.746  -1.470   0.215  0.00  0.00    +0.023 A 
ATOM     23  C   UNL     1       4.042  -1.911   0.397  0.00  0.00    +0.002 A 
ATOM     24  C   UNL     1       4.774  -1.481   1.489  0.00  0.00    +0.000 A 
ATOM     25  C   UNL     1       4.211  -0.608   2.402  0.00  0.00    +0.005 A 
ATOM     26  C   UNL     1       2.918  -0.158   2.223  0.00  0.00    -0.029 A 
ATOM     27  C   UNL     1       2.308   0.799   3.214  0.00  0.00    +0.045 C 
ENDBRANCH  20  21
BRANCH  20  29
ATOM     28  C   UNL     1       0.674   2.288   0.764  0.00  0.00    +0.024 C 
ATOM     29  C   UNL     1       0.592   0.954   0.018  0.00  0.00    +0.102 C 
ENDBRANCH  20  29
ENDBRANCH  19  20
ENDBRANCH   1  19
TORSDOF 6
