REMARK  Name = ZINC24766952
REMARK  8 active torsions:
REMARK  status: ('A' for Active; 'I' for Inactive)
REMARK    1  A    between atoms: C_1  and  C_2
REMARK    2  A    between atoms: C_2  and  O_3
REMARK    3  A    between atoms: O_3  and  C_4
REMARK    4  A    between atoms: C_4  and  C_6
REMARK    5  A    between atoms: C_7  and  C_32
REMARK    6  A    between atoms: C_9  and  N_11
REMARK    7  A    between atoms: C_12  and  C_14
REMARK    8  A    between atoms: C_14  and  N_15
REMARK                            x       y       z     vdW  Elec       q    Type
REMARK                         _______ _______ _______ _____ _____    ______ ____
ROOT
ATOM      1  N   UNL     1      -3.259  -0.120  -1.811  0.00  0.00    -0.215 N 
ATOM      2  C   UNL     1      -3.322   1.066  -1.161  0.00  0.00    +0.251 C 
ATOM      3  O   UNL     1      -3.952   2.031  -1.540  0.00  0.00    -0.272 OA
ATOM      4  C   UNL     1      -2.482   0.902   0.071  0.00  0.00    +0.138 C 
ATOM      5  C   UNL     1      -3.259   1.158   1.357  0.00  0.00    +0.040 C 
ATOM      6  C   UNL     1      -4.080   2.429   1.294  0.00  0.00    +0.003 C 
ATOM      7  C   UNL     1      -3.261   3.704   1.338  0.00  0.00    +0.005 C 
ATOM      8  C   UNL     1      -2.525   3.925   0.019  0.00  0.00    +0.035 C 
ATOM      9  C   UNL     1      -1.246   3.114   0.021  0.00  0.00    -0.042 A 
ATOM     10  C   UNL     1      -1.231   1.750   0.029  0.00  0.00    -0.012 A 
ATOM     11  C   UNL     1      -0.013   1.076   0.008  0.00  0.00    +0.006 A 
ATOM     12  C   UNL     1       1.175   1.779   0.000  0.00  0.00    +0.000 A 
ATOM     13  C   UNL     1       1.157   3.161   0.002  0.00  0.00    +0.000 A 
ATOM     14  C   UNL     1      -0.052   3.827   0.008  0.00  0.00    +0.004 A 
ATOM     15  N   UNL     1      -2.083  -0.520   0.037  0.00  0.00    -0.281 N 
ATOM     16  C   UNL     1      -2.551  -1.020  -1.120  0.00  0.00    +0.310 C 
ATOM     17  O   UNL     1      -2.353  -2.160  -1.496  0.00  0.00    -0.252 OA
ATOM     18  H   UNL     1      -1.512  -0.952   0.872  0.00  0.00    +0.152 HD
ENDROOT
BRANCH   1  19
ATOM     19  C   UNL     1      -3.889  -0.379  -3.107  0.00  0.00    +0.214 C 
BRANCH  19  21
ATOM     20  N   UNL     1      -3.285  -0.204  -5.500  0.00  0.00    -0.279 N 
ATOM     21  C   UNL     1      -2.920  -0.043  -4.212  0.00  0.00    +0.236 C 
ATOM     22  O   UNL     1      -1.813   0.371  -3.943  0.00  0.00    -0.274 OA
ATOM     23  H   UNL     1      -4.289  -0.580  -5.744  0.00  0.00    +0.155 HD
BRANCH  20  27
ATOM     24  C   UNL     1      -0.382   0.818  -8.123  0.00  0.00    +0.101 A 
ATOM     25  C   UNL     1      -1.557   0.371  -8.714  0.00  0.00    -0.028 A 
ATOM     26  C   UNL     1      -2.580   0.009  -7.881  0.00  0.00    +0.035 A 
ATOM     27  C   UNL     1      -2.393   0.105  -6.518  0.00  0.00    +0.073 A 
ATOM     28  S   UNL     1      -0.775   0.714  -6.386  0.00  0.00    -0.067 S 
ATOM     29  C   UNL     1      -1.698   0.289 -10.212  0.00  0.00    +0.045 C 
BRANCH  24  30
ATOM     30  C   UNL     1       0.818   1.249  -8.740  0.00  0.00    +0.346 C 
ATOM     31  O   UNL     1       0.908   1.259  -9.954  0.00  0.00    -0.244 OA
BRANCH  30  32
ATOM     32  O   UNL     1       1.860   1.650  -7.982  0.00  0.00    -0.461 OA
BRANCH  32  34
ATOM     33  C   UNL     1       4.103   2.487  -7.654  0.00  0.00    +0.048 C 
ATOM     34  C   UNL     1       3.038   2.073  -8.672  0.00  0.00    +0.229 C 
ENDBRANCH  32  34
ENDBRANCH  30  32
ENDBRANCH  24  30
ENDBRANCH  20  27
ENDBRANCH  19  21
ENDBRANCH   1  19
TORSDOF 6
