REMARK  Name = ZINC36528687
REMARK  11 active torsions:
REMARK  status: ('A' for Active; 'I' for Inactive)
REMARK    1  A    between atoms: C_1  and  C_2
REMARK    2  A    between atoms: C_2  and  C_3
REMARK    3  A    between atoms: C_2  and  C_4
REMARK    4  A    between atoms: C_2  and  N_5
REMARK    5  A    between atoms: C_6  and  C_8
REMARK    6  A    between atoms: C_8  and  C_10
REMARK    7  A    between atoms: C_8  and  N_20
REMARK    8  A    between atoms: C_12  and  N_17
REMARK    9  A    between atoms: N_20  and  C_21
REMARK   10  A    between atoms: C_22  and  C_24
REMARK   11  A    between atoms: C_29  and  O_30
REMARK                            x       y       z     vdW  Elec       q    Type
REMARK                         _______ _______ _______ _____ _____    ______ ____
ROOT
ATOM      1  C   UNL     1       3.155  -0.806  -2.856  0.00  0.00    +0.194 C 
ENDROOT
BRANCH   1   2
ATOM      2  C   UNL     1       3.438  -2.269  -3.079  0.00  0.00    +0.002 A 
ATOM      3  C   UNL     1       3.557  -3.123  -1.999  0.00  0.00    +0.040 A 
ATOM      4  C   UNL     1       3.817  -4.465  -2.203  0.00  0.00    +0.127 A 
ATOM      5  C   UNL     1       3.959  -4.954  -3.489  0.00  0.00    +0.034 A 
ATOM      6  C   UNL     1       3.841  -4.101  -4.570  0.00  0.00    +0.022 A 
ATOM      7  C   UNL     1       3.575  -2.759  -4.366  0.00  0.00    +0.047 A 
ATOM      8 CL   UNL     1       3.419  -1.688  -5.723  0.00  0.00    -0.083 Cl
BRANCH   4   9
ATOM      9  N   UNL     1       3.944  -5.379  -1.046  0.00  0.00    +0.056 N 
ATOM     10  O   UNL     1       3.820  -4.951   0.078  0.00  0.00    -0.126 OA
ATOM     11  O   UNL     1       4.172  -6.553  -1.225  0.00  0.00    -0.126 OA
ENDBRANCH   4   9
ENDBRANCH   1   2
BRANCH   1  13
ATOM     12  N   UNL     1       1.540  -1.216  -1.028  0.00  0.00    -0.309 N 
ATOM     13  C   UNL     1       2.663  -0.599  -1.447  0.00  0.00    +0.239 C 
ATOM     14  O   UNL     1       3.277   0.122  -0.690  0.00  0.00    -0.273 OA
ATOM     15  H   UNL     1       1.049  -1.793  -1.633  0.00  0.00    +0.149 HD
BRANCH  12  17
ATOM     16  C   UNL     1       0.773   0.471   0.569  0.00  0.00    +0.031 C 
ATOM     17  C   UNL     1       1.061  -1.014   0.342  0.00  0.00    +0.026 C 
ATOM     18  C   UNL     1       2.131  -1.483   1.330  0.00  0.00    +0.031 C 
ATOM     19  C   UNL     1      -0.221  -1.821   0.558  0.00  0.00    +0.031 C 
ENDBRANCH  12  17
ENDBRANCH   1  13
BRANCH   1  20
ATOM     20  N   UNL     1       4.383  -0.034  -3.063  0.00  0.00    -0.285 N 
ATOM     21  C   UNL     1       5.602  -0.387  -2.332  0.00  0.00    +0.133 C 
ATOM     22  C   UNL     1       4.390   1.002  -3.925  0.00  0.00    +0.251 C 
ATOM     23  O   UNL     1       3.402   1.246  -4.590  0.00  0.00    -0.270 OA
BRANCH  22  24
ATOM     24  C   UNL     1       5.597   1.839  -4.062  0.00  0.00    +0.078 A 
ATOM     25  C   UNL     1       6.852   1.244  -4.217  0.00  0.00    +0.017 A 
ATOM     26  C   UNL     1       7.975   2.032  -4.345  0.00  0.00    +0.001 A 
ATOM     27  C   UNL     1       7.867   3.413  -4.319  0.00  0.00    +0.004 A 
ATOM     28  C   UNL     1       6.634   4.014  -4.167  0.00  0.00    +0.046 A 
ATOM     29  C   UNL     1       5.492   3.236  -4.042  0.00  0.00    +0.129 A 
BRANCH  29  30
ATOM     30  O   UNL     1       4.279   3.826  -3.897  0.00  0.00    -0.506 OA
ATOM     31  H   UNL     1       4.030   3.993  -2.978  0.00  0.00    +0.292 HD
ENDBRANCH  29  30
ENDBRANCH  22  24
ENDBRANCH   1  20
TORSDOF 7
