REMARK  Name = ZINC09669638
REMARK  7 active torsions:
REMARK  status: ('A' for Active; 'I' for Inactive)
REMARK    1  A    between atoms: C_1  and  N_2
REMARK    2  A    between atoms: C_3  and  N_14
REMARK    3  A    between atoms: C_5  and  C_7
REMARK    4  A    between atoms: C_15  and  C_17
REMARK    5  A    between atoms: C_17  and  S_18
REMARK    6  A    between atoms: S_18  and  C_19
REMARK    7  A    between atoms: C_22  and  C_25
REMARK                            x       y       z     vdW  Elec       q    Type
REMARK                         _______ _______ _______ _____ _____    ______ ____
ROOT
ATOM      1  N   UNL     1       1.469   4.750   0.013  0.00  0.00    -0.270 N 
ATOM      2  C   UNL     1       2.812   4.634  -0.000  0.00  0.00    +0.229 C 
ATOM      3  O   UNL     1       3.325   3.535  -0.011  0.00  0.00    -0.275 OA
ATOM      4  H   UNL     1       1.058   5.629   0.021  0.00  0.00    +0.156 HD
ENDROOT
BRANCH   1   7
ATOM      5  C   UNL     1      -1.574   4.745   0.040  0.00  0.00    +0.174 C 
ATOM      6  N   UNL     1      -0.689   3.578   0.026  0.00  0.00    -0.253 N 
ATOM      7  C   UNL     1       0.670   3.607   0.014  0.00  0.00    +0.123 A 
ATOM      8  C   UNL     1       1.110   2.321   0.004  0.00  0.00    +0.073 A 
ATOM      9  C   UNL     1      -0.018   1.480   0.010  0.00  0.00    +0.095 A 
ATOM     10  N   UNL     1      -1.094   2.238   0.019  0.00  0.00    -0.170 NA
BRANCH   9  11
ATOM     11  C   UNL     1       0.002  -0.004   0.002  0.00  0.00    +0.002 A 
ATOM     12  C   UNL     1       1.217  -0.686  -0.019  0.00  0.00    +0.011 A 
ATOM     13  C   UNL     1       1.230  -2.066  -0.021  0.00  0.00    +0.020 A 
ATOM     14  C   UNL     1       0.040  -2.773  -0.014  0.00  0.00    +0.041 A 
ATOM     15  C   UNL     1      -1.170  -2.099   0.002  0.00  0.00    +0.020 A 
ATOM     16  C   UNL     1      -1.194  -0.719   0.010  0.00  0.00    +0.011 A 
ATOM     17 CL   UNL     1       0.063  -4.508  -0.024  0.00  0.00    -0.084 Cl
ENDBRANCH   9  11
ENDBRANCH   1   7
BRANCH   2  18
ATOM     18  C   UNL     1       3.675   5.869  -0.002  0.00  0.00    +0.173 C 
BRANCH  18  19
ATOM     19  S   UNL     1       5.419   5.386  -0.020  0.00  0.00    -0.077 S 
BRANCH  19  20
ATOM     20  C   UNL     1       6.177   6.977  -0.019  0.00  0.00    +0.190 A 
ATOM     21  N   UNL     1       7.519   7.235  -0.030  0.00  0.00    -0.316 N 
ATOM     22  H   UNL     1       8.241   6.587  -0.039  0.00  0.00    +0.169 HD
ATOM     23  C   UNL     1       7.633   8.608  -0.024  0.00  0.00    +0.169 A 
ATOM     24  N   UNL     1       6.412   9.095  -0.011  0.00  0.00    -0.128 NA
ATOM     25  N   UNL     1       5.557   8.135  -0.013  0.00  0.00    -0.122 NA
BRANCH  23  26
ATOM     26  C   UNL     1       8.884   9.383  -0.032  0.00  0.00    +0.056 A 
ATOM     27  C   UNL     1       9.058  10.744  -0.033  0.00  0.00    +0.019 A 
ATOM     28  C   UNL     1      10.340  11.246  -0.036  0.00  0.00    +0.008 A 
ATOM     29  C   UNL     1      11.389  10.383  -0.050  0.00  0.00    +0.046 A 
ATOM     30  S   UNL     1      10.570   8.797  -0.051  0.00  0.00    -0.094 S 
ENDBRANCH  23  26
ENDBRANCH  19  20
ENDBRANCH  18  19
ENDBRANCH   2  18
TORSDOF 6
