REMARK  Name = ZINC06816501
REMARK  3 active torsions:
REMARK  status: ('A' for Active; 'I' for Inactive)
REMARK    1  A    between atoms: C_1  and  C_2
REMARK    2  A    between atoms: C_14  and  C_16
REMARK    3  A    between atoms: C_21  and  C_24
REMARK                            x       y       z     vdW  Elec       q    Type
REMARK                         _______ _______ _______ _____ _____    ______ ____
ROOT
ATOM      1  C   UNL     1       3.855   4.170  12.301  0.00  0.00    +0.047 C 
ATOM      2  C   UNL     1       2.387   4.459  12.481  0.00  0.00    -0.008 A 
ATOM      3  C   UNL     1       1.916   4.896  13.682  0.00  0.00    +0.008 A 
ATOM      4  C   UNL     1       0.545   5.160  13.832  0.00  0.00    +0.019 A 
ATOM      5  C   UNL     1      -0.299   4.984  12.794  0.00  0.00    +0.096 A 
ATOM      6  N   UNL     1       0.159   4.545  11.583  0.00  0.00    -0.267 N 
ATOM      7  C   UNL     1       1.491   4.279  11.410  0.00  0.00    +0.144 A 
ATOM      8  N   UNL     1       1.954   3.852  10.237  0.00  0.00    -0.222 NA
ATOM      9  C   UNL     1       1.146   3.672   9.213  0.00  0.00    +0.116 A 
ATOM     10  C   UNL     1      -0.247   3.922   9.300  0.00  0.00    +0.073 A 
ATOM     11  C   UNL     1      -0.716   4.381  10.572  0.00  0.00    +0.267 A 
ATOM     12  O   UNL     1      -1.899   4.622  10.739  0.00  0.00    -0.267 OA
ATOM     13  C   UNL     1      -0.977   3.688   8.130  0.00  0.00    +0.036 A 
ATOM     14  C   UNL     1      -0.340   3.247   7.008  0.00  0.00    +0.077 A 
ATOM     15  S   UNL     1       1.360   3.126   7.537  0.00  0.00    -0.064 S 
ENDROOT
BRANCH  14  16
ATOM     16  C   UNL     1      -0.911   2.943   5.694  0.00  0.00    +0.256 C 
ATOM     17  O   UNL     1      -2.106   3.077   5.504  0.00  0.00    -0.269 OA
ATOM     18  N   UNL     1      -0.114   2.515   4.696  0.00  0.00    -0.260 N 
ATOM     19  C   UNL     1      -0.656   2.226   3.450  0.00  0.00    +0.165 A 
ATOM     20  N   UNL     1      -0.047   1.800   2.360  0.00  0.00    -0.230 NA
ATOM     21  C   UNL     1      -0.718   1.572   1.248  0.00  0.00    +0.047 A 
ATOM     22  C   UNL     1      -2.056   1.790   1.244  0.00  0.00    +0.071 A 
ATOM     23  S   UNL     1      -2.309   2.332   2.928  0.00  0.00    -0.060 S 
ATOM     24  C   UNL     1      -0.013   1.086   0.008  0.00  0.00    +0.066 C 
ATOM     25  H   UNL     1       0.838   2.408   4.847  0.00  0.00    +0.157 HD
ENDBRANCH  14  16
TORSDOF 1
