REMARK  Name = ZINC12917056
REMARK  4 active torsions:
REMARK  status: ('A' for Active; 'I' for Inactive)
REMARK    1  A    between atoms: C_8  and  C_25
REMARK    2  A    between atoms: N_10  and  C_12
REMARK    3  A    between atoms: C_12  and  C_13
REMARK    4  A    between atoms: C_15  and  C_18
REMARK                            x       y       z     vdW  Elec       q    Type
REMARK                         _______ _______ _______ _____ _____    ______ ____
ROOT
ATOM      1  C   UNL     1       0.543   1.559   0.693  0.00  0.00    +0.000 A 
ATOM      2  C   UNL     1       1.709   2.169   0.268  0.00  0.00    +0.000 A 
ATOM      3  C   UNL     1       2.785   1.398  -0.122  0.00  0.00    +0.005 A 
ATOM      4  C   UNL     1       2.706   0.014  -0.089  0.00  0.00    -0.030 A 
ATOM      5  C   UNL     1       1.545  -0.594   0.338  0.00  0.00    -0.041 A 
ATOM      6  C   UNL     1       0.463   0.181   0.728  0.00  0.00    +0.004 A 
ATOM      7  C   UNL     1       1.414  -2.094   0.403  0.00  0.00    +0.063 C 
ATOM      8  C   UNL     1       2.513  -2.750  -0.435  0.00  0.00    +0.148 C 
ATOM      9  N   UNL     1       3.807  -2.166  -0.048  0.00  0.00    -0.278 NA
ATOM     10  C   UNL     1       3.905  -0.784  -0.530  0.00  0.00    +0.121 C 
ENDROOT
BRANCH   8  11
ATOM     11  C   UNL     1       2.526  -4.235  -0.179  0.00  0.00    +0.228 C 
ATOM     12  O   UNL     1       3.146  -4.682   0.763  0.00  0.00    -0.274 OA
ATOM     13  N   UNL     1       1.849  -5.066  -0.996  0.00  0.00    -0.328 N 
ATOM     14  H   UNL     1       1.353  -4.708  -1.749  0.00  0.00    +0.145 HD
ATOM     15  H   UNL     1       1.858  -6.021  -0.831  0.00  0.00    +0.145 HD
ENDBRANCH   8  11
BRANCH   9  16
ATOM     16  C   UNL     1       4.922  -2.979  -0.551  0.00  0.00    +0.184 C 
BRANCH  16  17
ATOM     17  C   UNL     1       6.191  -2.584   0.160  0.00  0.00    +0.242 A 
ATOM     18  N   UNL     1       6.643  -3.113   1.261  0.00  0.00    -0.190 NA
ATOM     19  C   UNL     1       7.799  -2.523   1.615  0.00  0.00    +0.202 A 
ATOM     20  N   UNL     1       8.090  -1.605   0.727  0.00  0.00    -0.056 NA
ATOM     21  O   UNL     1       7.048  -1.635  -0.238  0.00  0.00    -0.336 OA
BRANCH  19  22
ATOM     22  C   UNL     1       8.610  -2.857   2.812  0.00  0.00    +0.023 A 
ATOM     23  C   UNL     1       8.192  -3.863   3.681  0.00  0.00    +0.013 A 
ATOM     24  C   UNL     1       8.950  -4.169   4.793  0.00  0.00    +0.021 A 
ATOM     25  C   UNL     1      10.123  -3.479   5.046  0.00  0.00    +0.041 A 
ATOM     26  C   UNL     1      10.542  -2.478   4.186  0.00  0.00    +0.021 A 
ATOM     27  C   UNL     1       9.794  -2.169   3.068  0.00  0.00    +0.013 A 
ATOM     28 CL   UNL     1      11.071  -3.869   6.447  0.00  0.00    -0.084 Cl
ENDBRANCH  19  22
ENDBRANCH  16  17
ENDBRANCH   9  16
TORSDOF 4
