REMARK  Name = ZINC12554625
REMARK  7 active torsions:
REMARK  status: ('A' for Active; 'I' for Inactive)
REMARK    1  A    between atoms: C_1  and  C_2
REMARK    2  A    between atoms: C_5  and  N_8
REMARK    3  A    between atoms: C_9  and  C_22
REMARK    4  A    between atoms: N_11  and  C_14
REMARK    5  A    between atoms: C_14  and  N_49
REMARK    6  A    between atoms: C_15  and  N_49
REMARK    7  A    between atoms: C_16  and  N_49
REMARK                            x       y       z     vdW  Elec       q    Type
REMARK                         _______ _______ _______ _____ _____    ______ ____
ROOT
ATOM      1  N   UNL     1       2.049   0.720  -0.014  0.00  0.00    -0.275 N 
ATOM      2  C   UNL     1       1.237  -0.390  -0.012  0.00  0.00    +0.133 A 
ATOM      3  N   UNL     1       0.002  -0.004   0.002  0.00  0.00    -0.158 NA
ATOM      4  N   UNL     1      -0.017   1.397   0.010  0.00  0.00    -0.257 N 
ATOM      5  C   UNL     1       1.266   1.817  -0.000  0.00  0.00    +0.181 A 
ATOM      6  S   UNL     1       1.800   3.443   0.003  0.00  0.00    -0.011 S 
ATOM      7  C   UNL     1       1.709  -1.822  -0.023  0.00  0.00    +0.088 C 
ENDROOT
BRANCH   1  12
ATOM      8  C   UNL     1       7.723   0.689  -0.066  0.00  0.00    +0.044 C 
ATOM      9  C   UNL     1       6.216   0.697  -0.052  0.00  0.00    -0.050 A 
ATOM     10  C   UNL     1       5.519   1.212  -1.129  0.00  0.00    +0.005 A 
ATOM     11  C   UNL     1       4.138   1.221  -1.119  0.00  0.00    +0.026 A 
ATOM     12  C   UNL     1       3.450   0.712  -0.027  0.00  0.00    +0.050 A 
ATOM     13  C   UNL     1       4.153   0.200   1.056  0.00  0.00    +0.026 A 
ATOM     14  C   UNL     1       5.534   0.189   1.038  0.00  0.00    +0.005 A 
ENDBRANCH   1  12
BRANCH   4  15
ATOM     15  C   UNL     1      -1.209   2.249   0.020  0.00  0.00    +0.072 C 
BRANCH  15  17
ATOM     16  C   UNL     1      -0.583   3.340   2.090  0.00  0.00    -0.093 C 
ATOM     17  N   UNL     1      -1.602   2.502   1.423  0.00  0.00    +0.393 N 
ATOM     18  H   UNL     1      -1.671   1.604   1.917  0.00  0.00    -0.079 HD
BRANCH  17  19
ATOM     19  C   UNL     1      -2.917   3.175   1.465  0.00  0.00    -0.066 C 
ATOM     20  C   UNL     1      -2.836   4.553   0.804  0.00  0.00    -0.015 C 
ATOM     21  C   UNL     1      -4.207   5.228   0.862  0.00  0.00    -0.002 C 
ATOM     22  C   UNL     1      -4.635   5.388   2.323  0.00  0.00    -0.000 C 
ATOM     23  C   UNL     1      -4.716   4.011   2.984  0.00  0.00    -0.002 C 
ATOM     24  C   UNL     1      -3.345   3.335   2.925  0.00  0.00    -0.015 C 
ENDBRANCH  17  19
ENDBRANCH  15  17
ENDBRANCH   4  15
TORSDOF 4
