REMARK  Name = ZINC67104174
REMARK  8 active torsions:
REMARK  status: ('A' for Active; 'I' for Inactive)
REMARK    1  A    between atoms: C_1  and  C_2
REMARK    2  A    between atoms: C_5  and  C_7
REMARK    3  A    between atoms: N_17  and  N_18
REMARK    4  A    between atoms: C_19  and  C_21
REMARK    5  A    between atoms: C_21  and  C_22
REMARK    6  A    between atoms: C_22  and  C_23
REMARK    7  A    between atoms: C_23  and  C_24
REMARK    8  A    between atoms: C_23  and  C_25
REMARK                            x       y       z     vdW  Elec       q    Type
REMARK                         _______ _______ _______ _____ _____    ______ ____
ROOT
ATOM      1  C   UNL     1       1.661  -3.220  -0.060  0.00  0.00    +0.282 C 
ATOM      2  O   UNL     1       1.222  -4.346   0.078  0.00  0.00    -0.267 OA
ATOM      3  N   UNL     1       2.990  -3.022  -0.159  0.00  0.00    -0.292 N 
ATOM      4  C   UNL     1       3.547  -1.662  -0.154  0.00  0.00    +0.127 C 
ATOM      5  C   UNL     1       4.591  -1.564   0.965  0.00  0.00    +0.128 C 
ATOM      6  N   UNL     1       5.511  -2.705   0.850  0.00  0.00    -0.281 N 
ATOM      7  C   UNL     1       4.954  -4.065   0.845  0.00  0.00    +0.128 C 
ATOM      8  C   UNL     1       3.910  -4.163  -0.269  0.00  0.00    +0.127 C 
ATOM      9  C   UNL     1       6.840  -2.507   0.751  0.00  0.00    +0.319 C 
ATOM     10  O   UNL     1       7.297  -1.386   0.855  0.00  0.00    -0.251 OA
ATOM     11  N   UNL     1       7.663  -3.553   0.537  0.00  0.00    -0.218 N 
ATOM     12  H   UNL     1       7.308  -4.456   0.532  0.00  0.00    +0.174 HD
ENDROOT
BRANCH   1  17
ATOM     13  C   UNL     1      -0.054   1.450  -0.629  0.00  0.00    +0.086 C 
ATOM     14  C   UNL     1      -0.014  -0.033  -0.366  0.00  0.00    +0.103 A 
ATOM     15  C   UNL     1      -1.077  -0.806  -0.054  0.00  0.00    +0.045 A 
ATOM     16  C   UNL     1      -0.603  -2.117   0.107  0.00  0.00    +0.055 A 
ATOM     17  C   UNL     1       0.743  -2.077  -0.119  0.00  0.00    +0.190 A 
ATOM     18  O   UNL     1       1.081  -0.804  -0.410  0.00  0.00    -0.455 OA
ENDBRANCH   1  17
BRANCH  11  19
ATOM     19  N   UNL     1       9.030  -3.337   0.321  0.00  0.00    -0.233 N 
ATOM     20  C   UNL     1       9.834  -4.370   0.004  0.00  0.00    +0.229 C 
ATOM     21  O   UNL     1       9.375  -5.488  -0.095  0.00  0.00    -0.274 OA
ATOM     22  H   UNL     1       9.398  -2.442   0.400  0.00  0.00    +0.173 HD
BRANCH  20  23
ATOM     23  C   UNL     1      11.305  -4.137  -0.228  0.00  0.00    +0.097 C 
BRANCH  23  24
ATOM     24  C   UNL     1      11.984  -5.465  -0.570  0.00  0.00    +0.012 C 
BRANCH  24  25
ATOM     25  C   UNL     1      13.477  -5.228  -0.806  0.00  0.00    -0.017 C 
ATOM     26  C   UNL     1      14.178  -6.570  -1.025  0.00  0.00    +0.007 C 
ATOM     27  C   UNL     1      13.665  -4.347  -2.043  0.00  0.00    +0.007 C 
ENDBRANCH  24  25
ENDBRANCH  23  24
ENDBRANCH  20  23
ENDBRANCH  11  19
TORSDOF 5
