REMARK  Name = ZINC35829378
REMARK  12 active torsions:
REMARK  status: ('A' for Active; 'I' for Inactive)
REMARK    1  A    between atoms: C_1  and  C_2
REMARK    2  A    between atoms: C_2  and  C_3
REMARK    3  A    between atoms: C_3  and  N_4
REMARK    4  A    between atoms: N_4  and  C_5
REMARK    5  A    between atoms: C_5  and  C_6
REMARK    6  A    between atoms: N_10  and  C_11
REMARK    7  A    between atoms: C_11  and  C_12
REMARK    8  A    between atoms: C_15  and  C_17
REMARK    9  A    between atoms: N_22  and  C_25
REMARK   10  A    between atoms: C_30  and  O_31
REMARK   11  A    between atoms: O_31  and  C_32
REMARK   12  A    between atoms: C_33  and  C_35
REMARK                            x       y       z     vdW  Elec       q    Type
REMARK                         _______ _______ _______ _____ _____    ______ ____
ROOT
ATOM      1  C   UNL     1      -3.086   0.685   2.493  0.00  0.00    +0.126 A 
ATOM      2  C   UNL     1      -4.198   1.450   2.423  0.00  0.00    +0.047 A 
ATOM      3  C   UNL     1      -3.994   2.382   1.393  0.00  0.00    +0.055 A 
ATOM      4  C   UNL     1      -2.752   2.136   0.882  0.00  0.00    +0.190 A 
ATOM      5  O   UNL     1      -2.215   1.105   1.566  0.00  0.00    -0.453 OA
ENDROOT
BRANCH   4   6
ATOM      6  C   UNL     1      -2.112   2.867  -0.217  0.00  0.00    +0.282 C 
ATOM      7  O   UNL     1      -2.632   3.873  -0.662  0.00  0.00    -0.267 OA
ATOM      8  N   UNL     1      -0.948   2.425  -0.733  0.00  0.00    -0.292 N 
ATOM      9  C   UNL     1      -0.389   1.132  -0.316  0.00  0.00    +0.127 C 
ATOM     10  C   UNL     1      -0.154   0.274  -1.565  0.00  0.00    +0.124 C 
ATOM     11  N   UNL     1       0.578   1.076  -2.556  0.00  0.00    -0.324 N 
ATOM     12  C   UNL     1       0.018   2.369  -2.972  0.00  0.00    +0.124 C 
ATOM     13  C   UNL     1      -0.219   3.225  -1.727  0.00  0.00    +0.127 C 
BRANCH  11  14
ATOM     14  C   UNL     1       1.787   0.617  -3.092  0.00  0.00    +0.072 A 
ATOM     15  C   UNL     1       1.788  -0.152  -4.247  0.00  0.00    +0.027 A 
ATOM     16  C   UNL     1       2.983  -0.604  -4.774  0.00  0.00    +0.002 A 
ATOM     17  C   UNL     1       4.178  -0.292  -4.154  0.00  0.00    +0.004 A 
ATOM     18  C   UNL     1       4.185   0.474  -3.002  0.00  0.00    +0.047 A 
ATOM     19  C   UNL     1       2.992   0.935  -2.470  0.00  0.00    +0.141 A 
BRANCH  19  20
ATOM     20  O   UNL     1       2.997   1.693  -1.341  0.00  0.00    -0.493 OA
ATOM     21  C   UNL     1       4.270   1.980  -0.758  0.00  0.00    +0.277 C 
ENDBRANCH  19  20
ENDBRANCH  11  14
ENDBRANCH   4   6
BRANCH   1  22
ATOM     22  C   UNL     1      -2.861  -0.449   3.460  0.00  0.00    +0.195 C 
BRANCH  22  27
ATOM     23  C   UNL     1      -4.255  -2.526   3.188  0.00  0.00    +0.037 A 
ATOM     24  C   UNL     1      -4.271  -3.591   2.361  0.00  0.00    +0.024 A 
ATOM     25  C   UNL     1      -3.207  -3.435   1.451  0.00  0.00    +0.019 A 
ATOM     26  C   UNL     1      -2.580  -2.281   1.757  0.00  0.00    +0.086 A 
ATOM     27  N   UNL     1      -3.222  -1.716   2.819  0.00  0.00    -0.342 N 
BRANCH  23  28
ATOM     28  C   UNL     1      -5.215  -2.273   4.322  0.00  0.00    +0.161 C 
BRANCH  28  29
ATOM     29  N   UNL     1      -4.651  -2.801   5.567  0.00  0.00    -0.289 N 
ATOM     30  C   UNL     1      -4.969  -4.046   5.975  0.00  0.00    +0.282 C 
ATOM     31  O   UNL     1      -5.646  -4.766   5.265  0.00  0.00    -0.267 OA
BRANCH  30  32
ATOM     32  C   UNL     1      -4.497  -4.534   7.276  0.00  0.00    +0.189 A 
ATOM     33  C   UNL     1      -4.653  -5.800   7.762  0.00  0.00    +0.054 A 
ATOM     34  C   UNL     1      -4.053  -5.821   9.031  0.00  0.00    +0.042 A 
ATOM     35  C   UNL     1      -3.564  -4.582   9.261  0.00  0.00    +0.196 A 
ATOM     36  O   UNL     1      -3.830  -3.811   8.198  0.00  0.00    -0.458 OA
ENDBRANCH  30  32
BRANCH  29  37
ATOM     37  C   UNL     1      -3.743  -1.977   6.368  0.00  0.00    +0.108 C 
BRANCH  37  39
ATOM     38  C   UNL     1      -3.614  -0.277   8.194  0.00  0.00    +0.005 C 
ATOM     39  C   UNL     1      -4.543  -1.226   7.434  0.00  0.00    +0.016 C 
ENDBRANCH  37  39
ENDBRANCH  29  37
ENDBRANCH  28  29
ENDBRANCH  23  28
ENDBRANCH  22  27
ENDBRANCH   1  22
TORSDOF 10
