REMARK  Name = ZINC34792811
REMARK  6 active torsions:
REMARK  status: ('A' for Active; 'I' for Inactive)
REMARK    1  A    between atoms: C_1  and  N_2
REMARK    2  A    between atoms: C_5  and  C_10
REMARK    3  A    between atoms: N_19  and  C_21
REMARK    4  A    between atoms: C_21  and  C_22
REMARK    5  A    between atoms: N_24  and  C_25
REMARK    6  A    between atoms: C_25  and  C_26
REMARK                            x       y       z     vdW  Elec       q    Type
REMARK                         _______ _______ _______ _____ _____    ______ ____
ROOT
ATOM      1  C   UNL     1      -0.018   1.461   0.010  0.00  0.00    +0.139 C 
ATOM      2  N   UNL     1       0.002  -0.004   0.002  0.00  0.00    -0.260 N 
ATOM      3  C   UNL     1      -1.193  -0.666   0.004  0.00  0.00    +0.042 C 
ATOM      4  C   UNL     1      -1.245  -2.013  -0.003  0.00  0.00    +0.058 C 
ATOM      5  C   UNL     1       0.068  -2.769  -0.014  0.00  0.00    +0.143 C 
ATOM      6  N   UNL     1       1.301  -1.964  -0.016  0.00  0.00    -0.288 N 
ATOM      7  C   UNL     1       1.191  -0.621  -0.013  0.00  0.00    +0.307 C 
ATOM      8  O   UNL     1       2.203   0.052  -0.018  0.00  0.00    -0.252 OA
ATOM      9  C   UNL     1      -2.585  -2.452   0.002  0.00  0.00    +0.247 C 
ATOM     10  O   UNL     1      -2.927  -3.620  -0.003  0.00  0.00    -0.270 OA
ATOM     11  N   UNL     1      -3.437  -1.411   0.012  0.00  0.00    -0.283 N 
ATOM     12  C   UNL     1      -2.626  -0.184   0.015  0.00  0.00    +0.160 C 
ATOM     13  H   UNL     1       2.172  -2.391  -0.023  0.00  0.00    +0.151 HD
ENDROOT
BRANCH   5  14
ATOM     14  C   UNL     1       0.100  -3.664   1.198  0.00  0.00    -0.004 A 
ATOM     15  C   UNL     1       0.712  -3.232   2.360  0.00  0.00    +0.007 A 
ATOM     16  C   UNL     1       0.741  -4.052   3.472  0.00  0.00    +0.000 A 
ATOM     17  C   UNL     1       0.157  -5.305   3.424  0.00  0.00    +0.001 A 
ATOM     18  C   UNL     1      -0.455  -5.737   2.263  0.00  0.00    +0.020 A 
ATOM     19  C   UNL     1      -0.490  -4.915   1.151  0.00  0.00    +0.046 A 
ATOM     20 CL   UNL     1      -1.265  -5.455  -0.305  0.00  0.00    -0.083 Cl
ENDBRANCH   5  14
BRANCH  11  21
ATOM     21  C   UNL     1      -4.900  -1.485   0.019  0.00  0.00    +0.204 C 
BRANCH  21  22
ATOM     22  C   UNL     1      -5.394  -1.519   1.442  0.00  0.00    +0.230 C 
ATOM     23  O   UNL     1      -4.603  -1.484   2.360  0.00  0.00    -0.274 OA
ATOM     24  N   UNL     1      -6.717  -1.587   1.695  0.00  0.00    -0.314 N 
ATOM     25  H   UNL     1      -7.350  -1.615   0.961  0.00  0.00    +0.149 HD
BRANCH  24  26
ATOM     26  C   UNL     1      -7.197  -1.620   3.079  0.00  0.00    +0.107 C 
BRANCH  26  27
ATOM     27  C   UNL     1      -8.725  -1.698   3.086  0.00  0.00    +0.006 C 
ATOM     28  C   UNL     1      -9.489  -0.522   3.700  0.00  0.00    +0.005 C 
ATOM     29  C   UNL     1      -9.418  -1.859   4.441  0.00  0.00    +0.005 C 
ENDBRANCH  26  27
ENDBRANCH  24  26
ENDBRANCH  21  22
ENDBRANCH  11  21
TORSDOF 5
