REMARK  Name = ZINC64600087
REMARK  9 active torsions:
REMARK  status: ('A' for Active; 'I' for Inactive)
REMARK    1  A    between atoms: C_1  and  C_2
REMARK    2  A    between atoms: C_7  and  C_8
REMARK    3  A    between atoms: C_8  and  N_9
REMARK    4  A    between atoms: C_10  and  C_12
REMARK    5  A    between atoms: C_12  and  C_13
REMARK    6  A    between atoms: C_12  and  N_14
REMARK    7  A    between atoms: N_14  and  C_15
REMARK    8  A    between atoms: N_21  and  C_26
REMARK    9  A    between atoms: N_24  and  C_25
REMARK                            x       y       z     vdW  Elec       q    Type
REMARK                         _______ _______ _______ _____ _____    ______ ____
ROOT
ATOM      1  C   UNL     1      -2.982   1.611   4.282  0.00  0.00    +0.154 C 
ATOM      2  C   UNL     1      -3.891   0.386   4.395  0.00  0.00    +0.038 C 
ENDROOT
BRANCH   1   4
ATOM      3  N   UNL     1      -1.338   0.477   2.823  0.00  0.00    -0.310 N 
ATOM      4  C   UNL     1      -1.579   1.167   3.955  0.00  0.00    +0.233 C 
ATOM      5  O   UNL     1      -0.668   1.431   4.710  0.00  0.00    -0.274 OA
ATOM      6  H   UNL     1      -2.067   0.266   2.219  0.00  0.00    +0.149 HD
BRANCH   3   7
ATOM      7  C   UNL     1       0.025   0.045   2.504  0.00  0.00    +0.139 C 
BRANCH   7  14
ATOM      8  C   UNL     1      -0.018   1.503   0.010  0.00  0.00    +0.044 C 
ATOM      9  C   UNL     1       0.002  -0.004   0.002  0.00  0.00    -0.046 A 
ATOM     10  C   UNL     1       0.006  -0.689  -1.199  0.00  0.00    +0.003 A 
ATOM     11  C   UNL     1       0.025  -2.071  -1.207  0.00  0.00    +0.000 A 
ATOM     12  C   UNL     1       0.040  -2.768  -0.013  0.00  0.00    +0.000 A 
ATOM     13  C   UNL     1       0.037  -2.084   1.188  0.00  0.00    +0.005 A 
ATOM     14  C   UNL     1       0.023  -0.702   1.195  0.00  0.00    -0.027 A 
ENDBRANCH   7  14
ENDBRANCH   3   7
ENDBRANCH   1   4
BRANCH   1  15
ATOM     15  N   UNL     1      -2.979   2.337   5.555  0.00  0.00    -0.333 N 
ATOM     16  H   UNL     1      -2.283   2.168   6.208  0.00  0.00    +0.147 HD
BRANCH  15  17
ATOM     17  C   UNL     1      -3.982   3.273   5.828  0.00  0.00    +0.030 A 
ATOM     18  C   UNL     1      -4.983   3.510   4.893  0.00  0.00    +0.025 A 
ATOM     19  C   UNL     1      -5.976   4.433   5.157  0.00  0.00    +0.030 A 
ATOM     20  C   UNL     1      -5.975   5.126   6.358  0.00  0.00    +0.070 A 
ATOM     21  C   UNL     1      -4.971   4.891   7.299  0.00  0.00    +0.071 A 
ATOM     22  C   UNL     1      -3.978   3.959   7.033  0.00  0.00    +0.051 A 
ATOM     23  N   UNL     1      -5.234   5.722   8.385  0.00  0.00    -0.295 N 
ATOM     24  C   UNL     1      -6.346   6.431   8.118  0.00  0.00    +0.330 A 
ATOM     25  O   UNL     1      -6.849   7.252   8.863  0.00  0.00    -0.246 OA
ATOM     26  N   UNL     1      -6.818   6.095   6.903  0.00  0.00    -0.295 N 
ATOM     27  C   UNL     1      -8.012   6.652   6.262  0.00  0.00    +0.154 C 
ATOM     28  C   UNL     1      -4.435   5.809   9.610  0.00  0.00    +0.154 C 
ENDBRANCH  15  17
ENDBRANCH   1  15
TORSDOF 5
