REMARK  Name = ZINC28048629
REMARK  4 active torsions:
REMARK  status: ('A' for Active; 'I' for Inactive)
REMARK    1  A    between atoms: C_8  and  N_12
REMARK    2  A    between atoms: C_9  and  O_10
REMARK    3  A    between atoms: N_15  and  C_16
REMARK    4  A    between atoms: N_23  and  C_24
REMARK                            x       y       z     vdW  Elec       q    Type
REMARK                         _______ _______ _______ _____ _____    ______ ____
ROOT
ATOM      1  C   UNL     1       1.332   4.812   4.212  0.00  0.00    +0.001 A 
ATOM      2  C   UNL     1       2.256   5.802   4.513  0.00  0.00    +0.004 A 
ATOM      3  C   UNL     1       3.308   6.065   3.661  0.00  0.00    +0.047 A 
ATOM      4  C   UNL     1       3.450   5.335   2.488  0.00  0.00    +0.141 A 
ATOM      5  C   UNL     1       2.513   4.336   2.179  0.00  0.00    +0.042 A 
ATOM      6  C   UNL     1       1.455   4.077   3.053  0.00  0.00    +0.013 A 
ATOM      7  C   UNL     1       2.676   3.564   0.937  0.00  0.00    +0.075 A 
ATOM      8  C   UNL     1       3.751   3.872   0.121  0.00  0.00    +0.140 A 
ATOM      9  C   UNL     1       4.640   4.892   0.504  0.00  0.00    +0.309 A 
ATOM     10  O   UNL     1       4.476   5.582   1.645  0.00  0.00    -0.424 OA
ATOM     11  N   UNL     1       1.782   2.569   0.593  0.00  0.00    -0.380 N 
ATOM     12  H   UNL     1       0.959   2.785  -0.104  0.00  0.00    +0.160 HD
ENDROOT
BRANCH   8  13
ATOM     13  N   UNL     1       3.952   3.170  -1.081  0.00  0.00    -0.262 N 
ATOM     14  C   UNL     1       5.168   2.669  -1.373  0.00  0.00    +0.308 C 
ATOM     15  O   UNL     1       6.117   2.914  -0.652  0.00  0.00    -0.252 OA
ATOM     16  N   UNL     1       5.334   1.895  -2.464  0.00  0.00    -0.269 N 
ATOM     17  H   UNL     1       3.117   3.030  -1.783  0.00  0.00    +0.157 HD
ATOM     18  H   UNL     1       4.496   1.735  -3.157  0.00  0.00    +0.156 HD
BRANCH  16  19
ATOM     19  C   UNL     1       6.574   1.295  -2.714  0.00  0.00    +0.035 A 
ATOM     20  C   UNL     1       7.007   1.114  -4.021  0.00  0.00    +0.024 A 
ATOM     21  C   UNL     1       8.234   0.527  -4.265  0.00  0.00    +0.017 A 
ATOM     22  C   UNL     1       9.025   0.109  -3.210  0.00  0.00    +0.018 A 
ATOM     23  C   UNL     1       8.592   0.283  -1.907  0.00  0.00    +0.017 A 
ATOM     24  C   UNL     1       7.370   0.875  -1.657  0.00  0.00    +0.024 A 
ATOM     25 BR   UNL     1      10.700  -0.700  -3.548  0.00  0.00    -0.050 Br
ENDBRANCH  16  19
ENDBRANCH   8  13
BRANCH  11  26
ATOM     26  C   UNL     1       2.113   1.307   1.269  0.00  0.00    +0.079 C 
ATOM     27  C   UNL     1       0.835   0.496   1.490  0.00  0.00    +0.024 C 
ATOM     28  C   UNL     1       1.180  -0.818   2.194  0.00  0.00    +0.002 C 
ATOM     29  C   UNL     1       2.150  -1.622   1.326  0.00  0.00    +0.000 C 
ATOM     30  C   UNL     1       3.429  -0.811   1.105  0.00  0.00    +0.002 C 
ATOM     31  C   UNL     1       3.083   0.503   0.401  0.00  0.00    +0.024 C 
ENDBRANCH  11  26
BRANCH   9  32
ATOM     32  O   UNL     1       5.585   5.158  -0.218  0.00  0.00    -0.479 OA
ATOM     33  H   UNL     1       6.289   5.953   0.067  0.00  0.00    +0.295 HD
ENDBRANCH   9  32
TORSDOF 4
