REMARK  Name = ZINC20238909
REMARK  9 active torsions:
REMARK  status: ('A' for Active; 'I' for Inactive)
REMARK    1  A    between atoms: C_1  and  C_2
REMARK    2  A    between atoms: C_2  and  C_3
REMARK    3  A    between atoms: C_3  and  C_5
REMARK    4  A    between atoms: C_3  and  C_11
REMARK    5  A    between atoms: C_17  and  C_18
REMARK    6  A    between atoms: C_21  and  C_23
REMARK    7  A    between atoms: C_26  and  O_32
REMARK    8  A    between atoms: C_28  and  N_29
REMARK    9  A    between atoms: O_32  and  C_33
REMARK                            x       y       z     vdW  Elec       q    Type
REMARK                         _______ _______ _______ _____ _____    ______ ____
ROOT
ATOM      1  C   UNL     1      -1.284   0.192  -1.520  0.00  0.00    +0.107 C 
ATOM      2  N   UNL     1      -1.729  -0.586  -2.465  0.00  0.00    -0.169 NA
ATOM      3  N   UNL     1      -2.310  -0.068  -3.603  0.00  0.00    -0.152 N 
ATOM      4  C   UNL     1      -2.903  -0.817  -4.642  0.00  0.00    +0.153 C 
ATOM      5  N   UNL     1      -3.351  -2.036  -4.484  0.00  0.00    -0.283 NA
ATOM      6  C   UNL     1      -2.968  -0.084  -5.934  0.00  0.00    +0.084 C 
ATOM      7  C   UNL     1      -2.856  -0.740  -7.152  0.00  0.00    +0.063 C 
ATOM      8  C   UNL     1      -3.160   1.382  -5.854  0.00  0.00    +0.273 C 
ATOM      9  O   UNL     1      -3.668   2.001  -6.776  0.00  0.00    -0.268 OA
ATOM     10  N   UNL     1      -2.756   2.014  -4.733  0.00  0.00    -0.152 NA
ATOM     11  C   UNL     1      -2.336   1.306  -3.716  0.00  0.00    +0.181 C 
ATOM     12  S   UNL     1      -1.651   1.819  -2.163  0.00  0.00    -0.037 S 
ATOM     13  H   UNL     1      -3.894  -2.446  -5.174  0.00  0.00    +0.188 HD
ENDROOT
BRANCH   7  14
ATOM     14  C   UNL     1      -2.363  -2.053  -7.199  0.00  0.00    +0.129 A 
ATOM     15  C   UNL     1      -2.329  -2.870  -8.321  0.00  0.00    +0.050 A 
ATOM     16  C   UNL     1      -1.763  -4.079  -7.921  0.00  0.00    +0.050 A 
ATOM     17  C   UNL     1      -1.471  -3.964  -6.577  0.00  0.00    +0.138 A 
ATOM     18  O   UNL     1      -1.834  -2.738  -6.163  0.00  0.00    -0.455 OA
BRANCH  17  19
ATOM     19  C   UNL     1      -0.858  -5.010  -5.738  0.00  0.00    +0.048 A 
ATOM     20  C   UNL     1      -1.376  -6.309  -5.746  0.00  0.00    +0.017 A 
ATOM     21  C   UNL     1      -0.800  -7.282  -4.960  0.00  0.00    +0.046 A 
ATOM     22  C   UNL     1       0.293  -6.976  -4.160  0.00  0.00    +0.122 A 
ATOM     23  C   UNL     1       0.811  -5.686  -4.148  0.00  0.00    +0.079 A 
ATOM     24  C   UNL     1       0.246  -4.707  -4.936  0.00  0.00    +0.140 A 
BRANCH  24  25
ATOM     25  N   UNL     1       0.803  -3.335  -4.927  0.00  0.00    +0.057 N 
ATOM     26  O   UNL     1       1.758  -3.075  -4.233  0.00  0.00    -0.126 OA
ATOM     27  O   UNL     1       0.303  -2.476  -5.615  0.00  0.00    -0.126 OA
ENDBRANCH  24  25
BRANCH  22  28
ATOM     28  O   UNL     1       0.858  -7.939  -3.387  0.00  0.00    -0.495 OA
ATOM     29  C   UNL     1       0.275  -9.242  -3.446  0.00  0.00    +0.277 C 
ENDBRANCH  22  28
ENDBRANCH  17  19
ENDBRANCH   7  14
BRANCH   1  30
ATOM     30  C   UNL     1      -0.631  -0.185  -0.215  0.00  0.00    +0.076 C 
BRANCH  30  31
ATOM     31  C   UNL     1      -1.063  -1.574   0.180  0.00  0.00    -0.038 A 
ATOM     32  C   UNL     1      -0.785  -2.645  -0.648  0.00  0.00    +0.004 A 
ATOM     33  C   UNL     1      -1.181  -3.919  -0.285  0.00  0.00    +0.000 A 
ATOM     34  C   UNL     1      -1.854  -4.122   0.905  0.00  0.00    +0.000 A 
ATOM     35  C   UNL     1      -2.130  -3.050   1.734  0.00  0.00    +0.000 A 
ATOM     36  C   UNL     1      -1.731  -1.777   1.373  0.00  0.00    +0.004 A 
ENDBRANCH  30  31
BRANCH  30  38
ATOM     37  C   UNL     1       1.341   1.285  -0.655  0.00  0.00    +0.005 C 
ATOM     38  C   UNL     1       0.890  -0.150  -0.377  0.00  0.00    +0.011 C 
ENDBRANCH  30  38
ENDBRANCH   1  30
TORSDOF 7
