REMARK  Name = ZINC56733556
REMARK  8 active torsions:
REMARK  status: ('A' for Active; 'I' for Inactive)
REMARK    1  A    between atoms: C_1  and  C_2
REMARK    2  A    between atoms: C_5  and  C_7
REMARK    3  A    between atoms: C_7  and  C_9
REMARK    4  A    between atoms: C_7  and  N_10
REMARK    5  A    between atoms: N_10  and  C_11
REMARK    6  A    between atoms: N_14  and  C_15
REMARK    7  A    between atoms: C_20  and  C_21
REMARK    8  A    between atoms: C_21  and  N_22
REMARK                            x       y       z     vdW  Elec       q    Type
REMARK                         _______ _______ _______ _____ _____    ______ ____
ROOT
ATOM      1  N   UNL     1       2.090  -4.140  -0.896  0.00  0.00    -0.281 N 
ATOM      2  C   UNL     1       3.314  -3.378  -0.637  0.00  0.00    +0.134 C 
ATOM      3  C   UNL     1       1.992  -4.901  -2.004  0.00  0.00    +0.307 C 
ATOM      4  O   UNL     1       0.976  -5.534  -2.219  0.00  0.00    -0.252 OA
ATOM      5  N   UNL     1       3.020  -4.961  -2.874  0.00  0.00    -0.269 N 
ATOM      6  H   UNL     1       3.796  -4.393  -2.747  0.00  0.00    +0.156 HD
ENDROOT
BRANCH   5   7
ATOM      7  C   UNL     1       2.967  -5.843  -3.959  0.00  0.00    +0.040 A 
ATOM      8  C   UNL     1       2.173  -6.980  -3.894  0.00  0.00    +0.024 A 
ATOM      9  C   UNL     1       2.123  -7.848  -4.966  0.00  0.00    +0.002 A 
ATOM     10  C   UNL     1       2.864  -7.587  -6.105  0.00  0.00    +0.000 A 
ATOM     11  C   UNL     1       3.656  -6.456  -6.172  0.00  0.00    +0.007 A 
ATOM     12  C   UNL     1       3.706  -5.580  -5.105  0.00  0.00    -0.005 A 
BRANCH  12  13
ATOM     13  C   UNL     1       4.565  -4.344  -5.182  0.00  0.00    +0.182 C 
BRANCH  13  14
ATOM     14  N   UNL     1       5.870  -4.618  -4.575  0.00  0.00    -0.248 N 
ATOM     15  C   UNL     1       7.075  -4.450  -5.145  0.00  0.00    +0.219 A 
ATOM     16  N   UNL     1       7.988  -4.805  -4.278  0.00  0.00    -0.223 NA
ATOM     17  C   UNL     1       7.406  -5.204  -3.147  0.00  0.00    +0.245 A 
ATOM     18  N   UNL     1       6.109  -5.103  -3.279  0.00  0.00    -0.158 NA
ENDBRANCH  13  14
ENDBRANCH  12  13
ENDBRANCH   5   7
BRANCH   1  19
ATOM     19  C   UNL     1       0.973  -4.075   0.050  0.00  0.00    +0.111 C 
ATOM     20  C   UNL     1       1.470  -4.433   1.452  0.00  0.00    +0.034 C 
BRANCH  19  25
ATOM     21  C   UNL     1      -0.221   1.462   0.122  0.00  0.00    +0.051 C 
ATOM     22  C   UNL     1      -0.164  -0.043   0.095  0.00  0.00    -0.013 A 
ATOM     23  C   UNL     1      -1.184  -0.935   0.045  0.00  0.00    +0.011 A 
ATOM     24  C   UNL     1      -0.892  -2.286   0.027  0.00  0.00    +0.013 A 
ATOM     25  C   UNL     1       0.404  -2.679   0.060  0.00  0.00    +0.010 A 
ATOM     26  S   UNL     1       1.263  -1.115   0.111  0.00  0.00    -0.097 S 
ENDBRANCH  19  25
ENDBRANCH   1  19
TORSDOF 5
