REMARK  Name = ZINC40428557
REMARK  8 active torsions:
REMARK  status: ('A' for Active; 'I' for Inactive)
REMARK    1  A    between atoms: C_1  and  C_2
REMARK    2  A    between atoms: C_4  and  O_10
REMARK    3  A    between atoms: C_5  and  N_9
REMARK    4  A    between atoms: O_10  and  C_11
REMARK    5  A    between atoms: C_13  and  C_23
REMARK    6  A    between atoms: N_15  and  C_16
REMARK    7  A    between atoms: C_23  and  C_24
REMARK    8  A    between atoms: C_23  and  C_25
REMARK                            x       y       z     vdW  Elec       q    Type
REMARK                         _______ _______ _______ _____ _____    ______ ____
ROOT
ATOM      1  C   UNL     1       0.215  -1.861  -3.523  0.00  0.00    +0.226 A 
ATOM      2  C   UNL     1       0.012  -2.313  -4.789  0.00  0.00    +0.093 A 
ATOM      3  C   UNL     1       0.063  -1.213  -5.651  0.00  0.00    +0.070 A 
ATOM      4  N   UNL     1       0.286  -0.139  -4.939  0.00  0.00    -0.168 NA
ATOM      5  N   UNL     1       0.382  -0.513  -3.592  0.00  0.00    -0.200 N 
ENDROOT
BRANCH   5   6
ATOM      6  C   UNL     1       0.612   0.348  -2.509  0.00  0.00    +0.069 A 
ATOM      7  C   UNL     1      -0.064   0.155  -1.312  0.00  0.00    +0.031 A 
ATOM      8  C   UNL     1       0.163   1.004  -0.247  0.00  0.00    +0.040 A 
ATOM      9  C   UNL     1       1.065   2.047  -0.372  0.00  0.00    +0.124 A 
ATOM     10  C   UNL     1       1.740   2.241  -1.566  0.00  0.00    +0.040 A 
ATOM     11  C   UNL     1       1.520   1.391  -2.631  0.00  0.00    +0.031 A 
ATOM     12  F   UNL     1       1.286   2.877   0.671  0.00  0.00    -0.205 F 
ENDBRANCH   5   6
BRANCH   3  13
ATOM     13  C   UNL     1      -0.111  -1.258  -7.147  0.00  0.00    +0.033 C 
ATOM     14  C   UNL     1       1.230  -1.587  -7.807  0.00  0.00    +0.014 C 
ATOM     15  C   UNL     1      -1.135  -2.335  -7.510  0.00  0.00    +0.014 C 
ENDBRANCH   3  13
BRANCH   1  16
ATOM     16  O   UNL     1       0.240  -2.616  -2.395  0.00  0.00    -0.418 OA
BRANCH  16  20
ATOM     17  C   UNL     1       0.215  -6.426  -5.255  0.00  0.00    +0.088 C 
ATOM     18  C   UNL     1       0.164  -5.834  -3.871  0.00  0.00    +0.132 A 
ATOM     19  N   UNL     1       0.222  -4.524  -3.733  0.00  0.00    -0.196 NA
ATOM     20  C   UNL     1       0.180  -3.964  -2.530  0.00  0.00    +0.248 A 
ATOM     21  C   UNL     1       0.073  -4.787  -1.404  0.00  0.00    +0.125 A 
ATOM     22  C   UNL     1       0.016  -6.162  -1.598  0.00  0.00    +0.157 A 
ATOM     23  N   UNL     1       0.059  -6.640  -2.834  0.00  0.00    -0.219 NA
ATOM     24 CL   UNL     1      -0.116  -7.238  -0.242  0.00  0.00    -0.060 Cl
BRANCH  21  25
ATOM     25  N   UNL     1       0.026  -4.240  -0.115  0.00  0.00    -0.351 N 
ATOM     26  H   UNL     1       0.067  -3.279   0.005  0.00  0.00    +0.143 HD
ATOM     27  H   UNL     1      -0.048  -4.823   0.656  0.00  0.00    +0.143 HD
ENDBRANCH  21  25
ENDBRANCH  16  20
ENDBRANCH   1  16
TORSDOF 5
