REMARK  Name = ZINC65383409
REMARK  4 active torsions:
REMARK  status: ('A' for Active; 'I' for Inactive)
REMARK    1  A    between atoms: C_1  and  C_2
REMARK    2  A    between atoms: C_4  and  C_9
REMARK    3  A    between atoms: C_5  and  C_8
REMARK    4  A    between atoms: C_14  and  C_22
REMARK                            x       y       z     vdW  Elec       q    Type
REMARK                         _______ _______ _______ _____ _____    ______ ____
ROOT
ATOM      1  C   UNL     1      -3.399   0.077  -0.388  0.00  0.00    +0.252 C 
ATOM      2  N   UNL     1      -4.444  -0.703   0.288  0.00  0.00    -0.255 NA
ATOM      3  C   UNL     1      -4.801  -1.644  -0.511  0.00  0.00    +0.069 C 
ATOM      4  C   UNL     1      -6.018  -2.532  -0.352  0.00  0.00    +0.067 C 
ATOM      5  C   UNL     1      -5.601  -4.018  -0.163  0.00  0.00    +0.042 C 
ATOM      6  C   UNL     1      -4.279  -4.178  -0.893  0.00  0.00    +0.113 C 
ATOM      7  N   UNL     1      -4.374  -3.850  -2.297  0.00  0.00    -0.309 N 
ATOM      8  C   UNL     1      -3.914  -2.697  -2.762  0.00  0.00    +0.264 C 
ATOM      9  O   UNL     1      -3.507  -2.541  -3.895  0.00  0.00    -0.268 OA
ATOM     10  C   UNL     1      -3.954  -1.605  -1.731  0.00  0.00    +0.144 C 
ATOM     11  N   UNL     1      -3.175  -0.575  -1.685  0.00  0.00    -0.246 NA
ATOM     12  H   UNL     1      -4.781  -4.483  -2.909  0.00  0.00    +0.149 HD
ENDROOT
BRANCH   1  15
ATOM     13  C   UNL     1      -0.840  -1.975  -0.270  0.00  0.00    +0.039 C 
ATOM     14  C   UNL     1      -1.348  -1.147   0.912  0.00  0.00    +0.156 C 
ATOM     15  C   UNL     1      -2.131   0.059   0.427  0.00  0.00    +0.024 C 
ATOM     16  C   UNL     1      -1.435   1.101   0.888  0.00  0.00    +0.065 C 
ATOM     17  N   UNL     1      -0.350   0.686   1.579  0.00  0.00    -0.159 NA
ATOM     18  N   UNL     1      -0.223  -0.543   1.646  0.00  0.00    -0.180 NA
ATOM     19  C   UNL     1      -1.809   2.544   0.669  0.00  0.00    +0.067 C 
ENDBRANCH   1  15
BRANCH   5  20
ATOM     20  C   UNL     1      -5.427  -4.325   1.303  0.00  0.00    -0.042 A 
ATOM     21  C   UNL     1      -4.439  -3.687   2.030  0.00  0.00    +0.005 A 
ATOM     22  C   UNL     1      -4.279  -3.969   3.374  0.00  0.00    +0.020 A 
ATOM     23  C   UNL     1      -5.108  -4.889   3.991  0.00  0.00    +0.041 A 
ATOM     24  C   UNL     1      -6.096  -5.527   3.262  0.00  0.00    +0.020 A 
ATOM     25  C   UNL     1      -6.258  -5.240   1.920  0.00  0.00    +0.005 A 
ATOM     26 CL   UNL     1      -4.907  -5.244   5.678  0.00  0.00    -0.084 Cl
ENDBRANCH   5  20
TORSDOF 2
