REMARK  Name = ZINC40172272
REMARK  7 active torsions:
REMARK  status: ('A' for Active; 'I' for Inactive)
REMARK    1  A    between atoms: C_1  and  C_2
REMARK    2  A    between atoms: C_2  and  S_3
REMARK    3  A    between atoms: S_3  and  C_4
REMARK    4  A    between atoms: N_8  and  C_9
REMARK    5  A    between atoms: C_9  and  C_11
REMARK    6  A    between atoms: C_9  and  C_12
REMARK    7  A    between atoms: C_17  and  C_20
REMARK                            x       y       z     vdW  Elec       q    Type
REMARK                         _______ _______ _______ _____ _____    ______ ____
ROOT
ATOM      1  C   UNL     1      -4.579  -3.604   1.256  0.00  0.00    +0.241 C 
ATOM      2  O   UNL     1      -3.894  -4.219   2.045  0.00  0.00    -0.273 OA
ATOM      3  N   UNL     1      -5.899  -3.456   1.482  0.00  0.00    -0.263 N 
ATOM      4  C   UNL     1      -6.476  -4.008   2.619  0.00  0.00    +0.165 A 
ATOM      5  N   UNL     1      -7.735  -3.981   3.015  0.00  0.00    -0.225 NA
ATOM      6  C   UNL     1      -8.115  -4.567   4.140  0.00  0.00    +0.080 A 
ATOM      7  C   UNL     1      -7.186  -5.214   4.907  0.00  0.00    +0.076 A 
ATOM      8  S   UNL     1      -5.711  -4.952   3.931  0.00  0.00    -0.060 S 
ATOM      9  H   UNL     1      -6.447  -2.963   0.851  0.00  0.00    +0.157 HD
ENDROOT
BRANCH   6  10
ATOM     10  C   UNL     1      -9.535  -4.522   4.565  0.00  0.00    +0.001 A 
ATOM     11  C   UNL     1      -9.930  -5.136   5.753  0.00  0.00    +0.011 A 
ATOM     12  C   UNL     1     -11.253  -5.091   6.143  0.00  0.00    +0.020 A 
ATOM     13  C   UNL     1     -12.187  -4.439   5.357  0.00  0.00    +0.041 A 
ATOM     14  C   UNL     1     -11.801  -3.829   4.176  0.00  0.00    +0.020 A 
ATOM     15  C   UNL     1     -10.479  -3.862   3.780  0.00  0.00    +0.011 A 
ATOM     16 CL   UNL     1     -13.850  -4.387   5.854  0.00  0.00    -0.084 Cl
ENDBRANCH   6  10
BRANCH   1  17
ATOM     17  C   UNL     1      -3.954  -3.005   0.023  0.00  0.00    +0.175 C 
ATOM     18  C   UNL     1      -4.611  -3.601  -1.223  0.00  0.00    +0.041 C 
BRANCH  17  23
ATOM     19  C   UNL     1      -1.508  -2.383   0.004  0.00  0.00    +0.194 A 
ATOM     20  N   UNL     1      -0.370  -3.034  -0.005  0.00  0.00    -0.121 NA
ATOM     21  N   UNL     1      -0.656  -4.406  -0.011  0.00  0.00    -0.113 NA
ATOM     22  C   UNL     1      -1.958  -4.548  -0.006  0.00  0.00    +0.216 A 
ATOM     23  N   UNL     1      -2.519  -3.303   0.008  0.00  0.00    -0.279 N 
ATOM     24  N   UNL     1      -2.648  -5.754  -0.009  0.00  0.00    -0.328 N 
ATOM     25  H   UNL     1      -2.159  -6.592  -0.016  0.00  0.00    +0.145 HD
ATOM     26  H   UNL     1      -3.618  -5.758  -0.005  0.00  0.00    +0.145 HD
BRANCH  19  27
ATOM     27  S   UNL     1      -1.700  -0.632   0.015  0.00  0.00    -0.086 S 
BRANCH  27  29
ATOM     28  C   UNL     1      -0.019   1.526   0.010  0.00  0.00    +0.016 C 
ATOM     29  C   UNL     1       0.002  -0.004   0.002  0.00  0.00    +0.074 C 
ENDBRANCH  27  29
ENDBRANCH  19  27
ENDBRANCH  17  23
ENDBRANCH   1  17
TORSDOF 5
