REMARK  Name = ZINC32964469
REMARK  4 active torsions:
REMARK  status: ('A' for Active; 'I' for Inactive)
REMARK    1  A    between atoms: C_3  and  C_16
REMARK    2  A    between atoms: N_4  and  C_6
REMARK    3  A    between atoms: C_8  and  N_13
REMARK    4  A    between atoms: C_26  and  C_28
REMARK                            x       y       z     vdW  Elec       q    Type
REMARK                         _______ _______ _______ _____ _____    ______ ____
ROOT
ATOM      1  C   UNL     1       2.743   0.647  -0.219  0.00  0.00    +0.042 C 
ATOM      2  C   UNL     1       3.309  -0.614  -0.128  0.00  0.00    +0.082 C 
ATOM      3  C   UNL     1       2.476  -1.847  -0.109  0.00  0.00    +0.153 C 
ATOM      4  N   UNL     1       1.346  -1.960  -0.757  0.00  0.00    -0.283 NA
ATOM      5  N   UNL     1       3.026  -2.882   0.677  0.00  0.00    -0.152 N 
ATOM      6  C   UNL     1       4.386  -2.858   0.899  0.00  0.00    +0.181 C 
ATOM      7  N   UNL     1       5.236  -1.928   0.544  0.00  0.00    -0.152 NA
ATOM      8  C   UNL     1       4.775  -0.806  -0.051  0.00  0.00    +0.273 C 
ATOM      9  O   UNL     1       5.543   0.025  -0.509  0.00  0.00    -0.268 OA
ATOM     10  S   UNL     1       4.644  -4.371   1.786  0.00  0.00    -0.038 S 
ATOM     11  C   UNL     1       2.932  -4.877   1.890  0.00  0.00    +0.103 C 
ATOM     12  N   UNL     1       2.324  -3.928   1.238  0.00  0.00    -0.169 NA
ATOM     13  H   UNL     1       0.878  -2.809  -0.771  0.00  0.00    +0.188 HD
ENDROOT
BRANCH  11  14
ATOM     14  C   UNL     1       2.344  -6.092   2.559  0.00  0.00    +0.046 C 
ATOM     15  C   UNL     1       1.044  -6.484   1.853  0.00  0.00    +0.010 C 
ATOM     16  C   UNL     1       0.446  -7.717   2.533  0.00  0.00    +0.001 C 
ATOM     17  C   UNL     1       0.154  -7.400   4.001  0.00  0.00    +0.000 C 
ATOM     18  C   UNL     1       1.454  -7.008   4.707  0.00  0.00    +0.001 C 
ATOM     19  C   UNL     1       2.052  -5.774   4.027  0.00  0.00    +0.010 C 
ENDBRANCH  11  14
BRANCH   1  22
ATOM     20  C   UNL     1      -0.712   0.499   0.809  0.00  0.00    +0.020 A 
ATOM     21  C   UNL     1       0.538  -0.105   0.673  0.00  0.00    +0.027 A 
ATOM     22  C   UNL     1       1.384   0.833   0.097  0.00  0.00    +0.047 A 
ATOM     23  N   UNL     1       0.646   1.983  -0.107  0.00  0.00    -0.315 N 
ATOM     24  C   UNL     1      -0.621   1.766   0.328  0.00  0.00    +0.092 A 
BRANCH  23  25
ATOM     25  C   UNL     1       1.126   3.173  -0.670  0.00  0.00    +0.067 A 
ATOM     26  C   UNL     1       1.203   4.325   0.102  0.00  0.00    +0.060 A 
ATOM     27  C   UNL     1       1.676   5.497  -0.456  0.00  0.00    +0.128 A 
ATOM     28  C   UNL     1       2.072   5.525  -1.780  0.00  0.00    +0.034 A 
ATOM     29  C   UNL     1       1.996   4.380  -2.552  0.00  0.00    +0.024 A 
ATOM     30  C   UNL     1       1.530   3.202  -1.999  0.00  0.00    +0.065 A 
ATOM     31 CL   UNL     1       1.442   1.763  -2.966  0.00  0.00    -0.081 Cl
BRANCH  27  32
ATOM     32  N   UNL     1       1.758   6.726   0.366  0.00  0.00    +0.056 N 
ATOM     33  O   UNL     1       1.411   6.702   1.524  0.00  0.00    -0.126 OA
ATOM     34  O   UNL     1       2.171   7.752  -0.121  0.00  0.00    -0.126 OA
ENDBRANCH  27  32
ENDBRANCH  23  25
ENDBRANCH   1  22
TORSDOF 4
