REMARK  Name = ZINC20109505
REMARK  9 active torsions:
REMARK  status: ('A' for Active; 'I' for Inactive)
REMARK    1  A    between atoms: C_3  and  C_8
REMARK    2  A    between atoms: C_8  and  N_9
REMARK    3  A    between atoms: C_11  and  N_30
REMARK    4  A    between atoms: C_14  and  C_16
REMARK    5  A    between atoms: N_18  and  C_19
REMARK    6  A    between atoms: C_19  and  C_20
REMARK    7  A    between atoms: C_20  and  C_21
REMARK    8  A    between atoms: N_30  and  C_31
REMARK    9  A    between atoms: C_31  and  C_32
REMARK                            x       y       z     vdW  Elec       q    Type
REMARK                         _______ _______ _______ _____ _____    ______ ____
ROOT
ATOM      1  N   UNL     1      -2.928   0.722   1.405  0.00  0.00    -0.289 NA
ATOM      2  C   UNL     1      -3.355   1.971   2.072  0.00  0.00    +0.070 C 
ATOM      3  C   UNL     1      -2.943   1.857   3.551  0.00  0.00    -0.056 C 
ATOM      4  C   UNL     1      -2.233   0.488   3.668  0.00  0.00    +0.014 C 
ATOM      5  C   UNL     1      -1.794   0.200   2.211  0.00  0.00    +0.142 C 
ENDROOT
BRANCH   5   6
ATOM      6  C   UNL     1      -1.623  -1.281   1.990  0.00  0.00    +0.230 C 
ATOM      7  O   UNL     1      -2.365  -1.872   1.235  0.00  0.00    -0.274 OA
ATOM      8  N   UNL     1      -0.644  -1.949   2.633  0.00  0.00    -0.314 N 
ATOM      9  H   UNL     1       0.029  -1.414   3.318  0.00  0.00    +0.149 HD
BRANCH   8  10
ATOM     10  C   UNL     1      -0.478  -3.389   2.419  0.00  0.00    +0.109 C 
BRANCH  10  11
ATOM     11  C   UNL     1       0.695  -3.897   3.260  0.00  0.00    +0.054 C 
BRANCH  11  12
ATOM     12  C   UNL     1       0.866  -5.378   3.040  0.00  0.00    -0.042 A 
ATOM     13  C   UNL     1       1.693  -5.834   2.030  0.00  0.00    +0.007 A 
ATOM     14  C   UNL     1       1.854  -7.191   1.824  0.00  0.00    +0.050 A 
ATOM     15  C   UNL     1       1.186  -8.099   2.630  0.00  0.00    +0.166 A 
ATOM     16  C   UNL     1       0.353  -7.640   3.647  0.00  0.00    +0.166 A 
ATOM     17  C   UNL     1       0.201  -6.278   3.851  0.00  0.00    +0.053 A 
ATOM     18  O   UNL     1      -0.183  -8.717   4.291  0.00  0.00    -0.453 OA
ATOM     19  C   UNL     1       0.008  -9.832   3.400  0.00  0.00    +0.466 C 
ATOM     20  O   UNL     1       1.172  -9.464   2.637  0.00  0.00    -0.453 OA
ENDBRANCH  11  12
ENDBRANCH  10  11
ENDBRANCH   8  10
ENDBRANCH   5   6
BRANCH   3  21
ATOM     21  N   UNL     1      -4.130   1.893   4.415  0.00  0.00    +0.382 N 
ATOM     22  H   UNL     1      -4.973   1.408   3.901  0.00  0.00    -0.085 HD
ATOM     23  H   UNL     1      -3.917   1.361   5.354  0.00  0.00    -0.085 HD
BRANCH  21  24
ATOM     24  C   UNL     1      -4.507   3.277   4.734  0.00  0.00    -0.079 C 
BRANCH  24  25
ATOM     25  C   UNL     1      -5.744   3.274   5.634  0.00  0.00    -0.028 C 
ATOM     26  C   UNL     1      -6.934   2.699   4.863  0.00  0.00    +0.002 C 
ATOM     27  C   UNL     1      -8.171   2.696   5.763  0.00  0.00    +0.000 C 
ATOM     28  C   UNL     1      -8.490   4.128   6.196  0.00  0.00    +0.000 C 
ATOM     29  C   UNL     1      -7.300   4.704   6.967  0.00  0.00    +0.000 C 
ATOM     30  C   UNL     1      -6.063   4.707   6.068  0.00  0.00    +0.002 C 
ENDBRANCH  24  25
ENDBRANCH  21  24
ENDBRANCH   3  21
BRANCH   1  31
ATOM     31  C   UNL     1      -2.514   0.980   0.019  0.00  0.00    +0.120 C 
BRANCH  31  34
ATOM     32  C   UNL     1      -0.050   3.841   0.022  0.00  0.00    +0.002 A 
ATOM     33  C   UNL     1      -1.238   3.133   0.030  0.00  0.00    +0.005 A 
ATOM     34  C   UNL     1      -1.219   1.751   0.017  0.00  0.00    -0.032 A 
ATOM     35  C   UNL     1      -0.013   1.076   0.008  0.00  0.00    +0.025 A 
ATOM     36  C   UNL     1       1.176   1.784   0.000  0.00  0.00    +0.041 A 
ATOM     37  C   UNL     1       1.156   3.167   0.007  0.00  0.00    +0.020 A 
ATOM     38 CL   UNL     1       2.691   0.937  -0.019  0.00  0.00    -0.084 Cl
ENDBRANCH  31  34
ENDBRANCH   1  31
TORSDOF 9
