REMARK  Name = ZINC64337860
REMARK  7 active torsions:
REMARK  status: ('A' for Active; 'I' for Inactive)
REMARK    1  A    between atoms: C_1  and  C_2
REMARK    2  A    between atoms: C_4  and  C_32
REMARK    3  A    between atoms: C_9  and  S_11
REMARK    4  A    between atoms: S_11  and  C_12
REMARK    5  A    between atoms: C_12  and  C_14
REMARK    6  A    between atoms: C_12  and  C_15
REMARK    7  A    between atoms: C_23  and  C_31
REMARK                            x       y       z     vdW  Elec       q    Type
REMARK                         _______ _______ _______ _____ _____    ______ ____
ROOT
ATOM      1  C   UNL     1       5.370  -6.096   0.064  0.00  0.00    +0.137 C 
ATOM      2  N   UNL     1       6.559  -5.877   0.571  0.00  0.00    -0.160 NA
ATOM      3  C   UNL     1       7.476  -6.840   0.709  0.00  0.00    +0.271 C 
ATOM      4  O   UNL     1       8.571  -6.602   1.189  0.00  0.00    -0.268 OA
ATOM      5  C   UNL     1       7.115  -8.221   0.256  0.00  0.00    +0.071 C 
ATOM      6  C   UNL     1       7.895  -9.318   0.240  0.00  0.00    -0.042 C 
ATOM      7  C   UNL     1       9.391  -9.303   0.544  0.00  0.00    +0.033 C 
ATOM      8  C   UNL     1      10.092  -9.944  -0.661  0.00  0.00    +0.008 C 
ATOM      9  C   UNL     1       9.481 -11.310  -0.964  0.00  0.00    -0.012 C 
ATOM     10  C   UNL     1       8.010 -11.171  -1.368  0.00  0.00    +0.022 C 
ATOM     11  C   UNL     1       7.225 -10.624  -0.173  0.00  0.00    +0.080 C 
ATOM     12  S   UNL     1       5.573 -10.049  -0.719  0.00  0.00    -0.097 S 
ATOM     13  C   UNL     1       5.745  -8.336  -0.287  0.00  0.00    +0.112 C 
ATOM     14  N   UNL     1       4.962  -7.286  -0.350  0.00  0.00    -0.226 NA
ATOM     15  C   UNL     1       9.579 -12.192   0.283  0.00  0.00    +0.007 C 
ENDROOT
BRANCH   1  16
ATOM     16  C   UNL     1       4.416  -4.935  -0.049  0.00  0.00    +0.117 C 
ATOM     17  C   UNL     1       4.682  -4.180  -1.353  0.00  0.00    +0.027 C 
BRANCH  16  18
ATOM     18  S   UNL     1       2.710  -5.551  -0.044  0.00  0.00    -0.074 S 
BRANCH  18  27
ATOM     19  C   UNL     1      -0.018   1.503   0.010  0.00  0.00    +0.066 C 
ATOM     20  C   UNL     1       0.002  -0.004   0.002  0.00  0.00    +0.044 A 
ATOM     21  C   UNL     1      -1.202  -0.717   0.004  0.00  0.00    +0.046 A 
ATOM     22  C   UNL     1      -1.169  -2.075  -0.004  0.00  0.00    +0.045 A 
ATOM     23  N   UNL     1       0.035  -2.706  -0.014  0.00  0.00    -0.200 N 
ATOM     24  C   UNL     1       1.192  -1.980  -0.015  0.00  0.00    +0.254 A 
ATOM     25  N   UNL     1       1.151  -0.643  -0.012  0.00  0.00    -0.216 NA
ATOM     26  N   UNL     1       2.202  -2.844  -0.025  0.00  0.00    -0.183 NA
ATOM     27  C   UNL     1       1.728  -4.088  -0.030  0.00  0.00    +0.212 A 
ATOM     28  N   UNL     1       0.410  -4.055  -0.023  0.00  0.00    -0.137 NA
ATOM     29  C   UNL     1      -2.449  -2.871  -0.002  0.00  0.00    +0.066 C 
ENDBRANCH  18  27
ENDBRANCH  16  18
ENDBRANCH   1  16
TORSDOF 3
