REMARK  Name = ZINC08267255
REMARK  8 active torsions:
REMARK  status: ('A' for Active; 'I' for Inactive)
REMARK    1  A    between atoms: C_1  and  C_2
REMARK    2  A    between atoms: C_5  and  N_24
REMARK    3  A    between atoms: C_7  and  N_8
REMARK    4  A    between atoms: C_9  and  C_11
REMARK    5  A    between atoms: C_13  and  S_18
REMARK    6  A    between atoms: S_18  and  N_21
REMARK    7  A    between atoms: N_21  and  C_22
REMARK    8  A    between atoms: N_21  and  C_23
REMARK                            x       y       z     vdW  Elec       q    Type
REMARK                         _______ _______ _______ _____ _____    ______ ____
ROOT
ATOM      1  N   UNL     1      -1.198  -0.721   0.010  0.00  0.00    -0.281 N 
ATOM      2  C   UNL     1      -1.182  -2.064  -0.099  0.00  0.00    +0.250 C 
ATOM      3  O   UNL     1      -0.122  -2.660  -0.113  0.00  0.00    -0.270 OA
ATOM      4  H   UNL     1      -2.044  -0.251   0.087  0.00  0.00    +0.155 HD
ENDROOT
BRANCH   1  11
ATOM      5  C   UNL     1      -1.161   1.842  -1.224  0.00  0.00    +0.045 C 
ATOM      6  C   UNL     1       0.065   1.251  -0.576  0.00  0.00    -0.029 A 
ATOM      7  C   UNL     1       1.252   1.956  -0.572  0.00  0.00    +0.007 A 
ATOM      8  C   UNL     1       2.379   1.413   0.017  0.00  0.00    +0.033 A 
ATOM      9  C   UNL     1       2.320   0.162   0.604  0.00  0.00    +0.128 A 
ATOM     10  C   UNL     1       1.136  -0.548   0.604  0.00  0.00    +0.056 A 
ATOM     11  C   UNL     1       0.003  -0.005   0.012  0.00  0.00    +0.039 A 
BRANCH   9  12
ATOM     12  N   UNL     1       3.529  -0.416   1.234  0.00  0.00    +0.056 N 
ATOM     13  O   UNL     1       3.478  -1.518   1.751  0.00  0.00    -0.126 OA
ATOM     14  O   UNL     1       4.574   0.209   1.235  0.00  0.00    -0.126 OA
ENDBRANCH   9  12
ENDBRANCH   1  11
BRANCH   2  15
ATOM     15  C   UNL     1      -2.451  -2.813  -0.202  0.00  0.00    +0.057 A 
ATOM     16  C   UNL     1      -3.670  -2.132  -0.186  0.00  0.00    +0.043 A 
ATOM     17  C   UNL     1      -4.852  -2.837  -0.282  0.00  0.00    +0.106 A 
ATOM     18  C   UNL     1      -4.832  -4.217  -0.394  0.00  0.00    +0.030 A 
ATOM     19  C   UNL     1      -3.629  -4.899  -0.410  0.00  0.00    +0.022 A 
ATOM     20  C   UNL     1      -2.438  -4.205  -0.321  0.00  0.00    +0.053 A 
ATOM     21 CL   UNL     1      -0.928  -5.061  -0.348  0.00  0.00    -0.083 Cl
BRANCH  17  22
ATOM     22  S   UNL     1      -6.391  -1.979  -0.263  0.00  0.00    +0.060 S 
ATOM     23  O   UNL     1      -7.369  -2.909   0.182  0.00  0.00    -0.153 OA
ATOM     24  O   UNL     1      -6.158  -0.743   0.398  0.00  0.00    -0.153 OA
BRANCH  22  25
ATOM     25  N   UNL     1      -6.766  -1.613  -1.834  0.00  0.00    -0.183 NA
ATOM     26  C   UNL     1      -7.549  -2.554  -2.639  0.00  0.00    +0.131 C 
ATOM     27  C   UNL     1      -6.316  -0.347  -2.419  0.00  0.00    +0.131 C 
ENDBRANCH  22  25
ENDBRANCH  17  22
ENDBRANCH   2  15
TORSDOF 5
