REMARK  Name = ZINC09545786
REMARK  8 active torsions:
REMARK  status: ('A' for Active; 'I' for Inactive)
REMARK    1  A    between atoms: C_1  and  C_2
REMARK    2  A    between atoms: C_8  and  N_10
REMARK    3  A    between atoms: C_11  and  C_13
REMARK    4  A    between atoms: C_13  and  S_14
REMARK    5  A    between atoms: S_14  and  C_15
REMARK    6  A    between atoms: C_18  and  C_26
REMARK    7  A    between atoms: N_19  and  C_20
REMARK    8  A    between atoms: C_20  and  C_21
REMARK                            x       y       z     vdW  Elec       q    Type
REMARK                         _______ _______ _______ _____ _____    ______ ____
ROOT
ATOM      1  C   UNL     1       2.080   2.477   1.068  0.00  0.00    +0.193 A 
ATOM      2  N   UNL     1       3.305   2.670   0.634  0.00  0.00    -0.122 NA
ATOM      3  N   UNL     1       3.351   2.518  -0.641  0.00  0.00    -0.128 NA
ATOM      4  C   UNL     1       2.159   2.214  -1.099  0.00  0.00    +0.165 A 
ATOM      5  N   UNL     1       1.309   2.175  -0.018  0.00  0.00    -0.295 N 
ENDROOT
BRANCH   4   6
ATOM      6  C   UNL     1       1.798   1.961  -2.510  0.00  0.00    +0.019 A 
ATOM      7  C   UNL     1       0.625   1.270  -2.820  0.00  0.00    +0.013 A 
ATOM      8  C   UNL     1       0.290   1.042  -4.138  0.00  0.00    +0.021 A 
ATOM      9  C   UNL     1       1.121   1.486  -5.153  0.00  0.00    +0.041 A 
ATOM     10  C   UNL     1       2.288   2.167  -4.852  0.00  0.00    +0.021 A 
ATOM     11  C   UNL     1       2.631   2.406  -3.537  0.00  0.00    +0.013 A 
ATOM     12 CL   UNL     1       0.697   1.189  -6.810  0.00  0.00    -0.084 Cl
ENDBRANCH   4   6
BRANCH   1  13
ATOM     13  S   UNL     1       1.534   2.585   2.740  0.00  0.00    -0.077 S 
BRANCH  13  14
ATOM     14  C   UNL     1       3.094   3.014   3.553  0.00  0.00    +0.173 C 
BRANCH  14  16
ATOM     15  N   UNL     1       3.891   3.481   5.847  0.00  0.00    -0.312 N 
ATOM     16  C   UNL     1       2.864   3.162   5.035  0.00  0.00    +0.224 C 
ATOM     17  O   UNL     1       1.755   2.994   5.496  0.00  0.00    -0.275 OA
ATOM     18  H   UNL     1       4.778   3.615   5.478  0.00  0.00    +0.149 HD
BRANCH  15  25
ATOM     19  C   UNL     1       4.644   5.923   7.210  0.00  0.00    +0.009 C 
ATOM     20  C   UNL     1       4.733   4.550   7.880  0.00  0.00    +0.006 C 
ATOM     21  C   UNL     1       6.120   3.952   7.636  0.00  0.00    +0.005 C 
ATOM     22  C   UNL     1       6.208   2.579   8.305  0.00  0.00    +0.000 C 
ATOM     23  C   UNL     1       5.143   1.654   7.714  0.00  0.00    +0.002 C 
ATOM     24  C   UNL     1       3.756   2.252   7.957  0.00  0.00    +0.022 C 
ATOM     25  C   UNL     1       3.667   3.625   7.288  0.00  0.00    +0.076 C 
ENDBRANCH  15  25
ENDBRANCH  14  16
ENDBRANCH  13  14
ENDBRANCH   1  13
BRANCH   5  26
ATOM     26  C   UNL     1      -0.126   1.877  -0.029  0.00  0.00    +0.200 C 
BRANCH  26  27
ATOM     27  C   UNL     1      -0.339   0.418   0.278  0.00  0.00    +0.125 A 
ATOM     28  C   UNL     1      -0.507  -0.112   1.504  0.00  0.00    +0.046 A 
ATOM     29  C   UNL     1      -0.672  -1.505   1.329  0.00  0.00    +0.041 A 
ATOM     30  C   UNL     1      -0.595  -1.744   0.007  0.00  0.00    +0.195 A 
ATOM     31  O   UNL     1      -0.398  -0.575  -0.625  0.00  0.00    -0.466 OA
ENDBRANCH  26  27
ENDBRANCH   5  26
TORSDOF 7
