REMARK  Name = ZINC36151773
REMARK  2 active torsions:
REMARK  status: ('A' for Active; 'I' for Inactive)
REMARK    1  A    between atoms: C_1  and  C_2
REMARK    2  A    between atoms: C_5  and  C_8
REMARK                            x       y       z     vdW  Elec       q    Type
REMARK                         _______ _______ _______ _____ _____    ______ ____
ROOT
ATOM      1  C   UNL     1       0.058  -4.251  -0.021  0.00  0.00    +0.182 A 
ATOM      2  N   UNL     1      -0.205  -5.029  -1.048  0.00  0.00    -0.127 NA
ATOM      3  N   UNL     1      -0.116  -6.267  -0.699  0.00  0.00    -0.121 NA
ATOM      4  C   UNL     1       0.200  -6.341   0.561  0.00  0.00    +0.209 A 
ATOM      5  N   UNL     1       0.361  -5.069   1.042  0.00  0.00    -0.221 N 
ATOM      6  N   UNL     1       0.767  -4.722   2.275  0.00  0.00    -0.277 N 
ATOM      7  C   UNL     1       0.573  -5.658   3.384  0.00  0.00    +0.101 C 
ATOM      8  C   UNL     1       1.575  -5.167   4.478  0.00  0.00    +0.025 C 
ATOM      9  C   UNL     1       2.919  -5.848   4.149  0.00  0.00    +0.003 C 
ATOM     10  C   UNL     1       2.651  -6.804   2.959  0.00  0.00    +0.016 C 
ATOM     11  C   UNL     1       1.125  -7.067   3.070  0.00  0.00    +0.076 C 
ATOM     12  S   UNL     1       0.409  -7.763   1.584  0.00  0.00    -0.079 S 
ATOM     13  H   UNL     1       1.714  -4.373   2.258  0.00  0.00    +0.167 HD
ENDROOT
BRANCH   1  18
ATOM     14  C   UNL     1      -0.018   1.503   0.010  0.00  0.00    +0.044 C 
ATOM     15  C   UNL     1       0.002  -0.004   0.002  0.00  0.00    -0.050 A 
ATOM     16  C   UNL     1       0.006  -0.686  -1.202  0.00  0.00    +0.004 A 
ATOM     17  C   UNL     1       0.024  -2.066  -1.216  0.00  0.00    +0.012 A 
ATOM     18  C   UNL     1       0.039  -2.773  -0.013  0.00  0.00    +0.021 A 
ATOM     19  C   UNL     1       0.036  -2.079   1.198  0.00  0.00    +0.012 A 
ATOM     20  C   UNL     1       0.023  -0.699   1.198  0.00  0.00    +0.004 A 
ENDBRANCH   1  18
TORSDOF 1
