REMARK  Name = ZINC19126967
REMARK  7 active torsions:
REMARK  status: ('A' for Active; 'I' for Inactive)
REMARK    1  A    between atoms: C_1  and  C_2
REMARK    2  A    between atoms: N_13  and  C_16
REMARK    3  A    between atoms: C_16  and  C_17
REMARK    4  A    between atoms: C_17  and  N_18
REMARK    5  A    between atoms: C_19  and  C_21
REMARK    6  A    between atoms: C_21  and  C_22
REMARK    7  A    between atoms: C_22  and  C_23
REMARK                            x       y       z     vdW  Elec       q    Type
REMARK                         _______ _______ _______ _____ _____    ______ ____
ROOT
ATOM      1  C   UNL     1       6.482   0.912   1.388  0.00  0.00    +0.127 C 
ENDROOT
BRANCH   1   2
ATOM      2  N   UNL     1       7.947   0.941   1.374  0.00  0.00    -0.314 N 
ATOM      3  C   UNL     1       8.631   0.948   2.535  0.00  0.00    +0.213 C 
ATOM      4  O   UNL     1       8.035   0.931   3.591  0.00  0.00    -0.276 OA
ATOM      5  H   UNL     1       8.423   0.955   0.529  0.00  0.00    +0.149 HD
BRANCH   3   6
ATOM      6  C   UNL     1      10.138   0.978   2.521  0.00  0.00    +0.102 C 
BRANCH   6   7
ATOM      7  C   UNL     1      10.662   0.981   3.958  0.00  0.00    +0.072 C 
BRANCH   7   8
ATOM      8  C   UNL     1      12.168   1.011   3.944  0.00  0.00    +0.127 A 
ATOM      9  C   UNL     1      12.879   2.296   3.944  0.00  0.00    +0.359 A 
ATOM     10  O   UNL     1      12.259   3.342   3.954  0.00  0.00    -0.243 OA
ATOM     11  O   UNL     1      14.226   2.303   3.931  0.00  0.00    -0.419 OA
ATOM     12  C   UNL     1      14.896   1.127   3.919  0.00  0.00    +0.157 A 
ATOM     13  C   UNL     1      16.285   1.117   3.905  0.00  0.00    +0.048 A 
ATOM     14  C   UNL     1      16.964  -0.083   3.894  0.00  0.00    +0.004 A 
ATOM     15  C   UNL     1      16.269  -1.285   3.895  0.00  0.00    +0.002 A 
ATOM     16  C   UNL     1      14.905  -1.298   3.908  0.00  0.00    +0.031 A 
ATOM     17  C   UNL     1      14.192  -0.089   3.920  0.00  0.00    +0.107 A 
ATOM     18  N   UNL     1      12.844  -0.103   3.938  0.00  0.00    -0.241 NA
ENDBRANCH   7   8
ENDBRANCH   6   7
ENDBRANCH   3   6
ENDBRANCH   1   2
BRANCH   1  19
ATOM     19  C   UNL     1       5.958   0.909  -0.050  0.00  0.00    +0.167 C 
BRANCH  19  32
ATOM     20  C   UNL     1       1.226  -2.155  -0.022  0.00  0.00    +0.047 C 
ATOM     21  C   UNL     1       1.187  -0.649  -0.013  0.00  0.00    -0.005 A 
ATOM     22  C   UNL     1       0.002  -0.004   0.002  0.00  0.00    +0.017 A 
ATOM     23  C   UNL     1      -0.018   1.464   0.010  0.00  0.00    -0.001 A 
ATOM     24  C   UNL     1      -1.233   2.155   0.031  0.00  0.00    +0.010 A 
ATOM     25  C   UNL     1      -1.236   3.533   0.034  0.00  0.00    +0.001 A 
ATOM     26  C   UNL     1      -0.041   4.236   0.026  0.00  0.00    +0.002 A 
ATOM     27  C   UNL     1       1.166   3.567   0.011  0.00  0.00    +0.027 A 
ATOM     28  C   UNL     1       1.190   2.178   0.002  0.00  0.00    +0.060 A 
ATOM     29  N   UNL     1       2.404   1.500  -0.013  0.00  0.00    -0.243 N 
ATOM     30  C   UNL     1       2.435   0.118  -0.021  0.00  0.00    +0.165 A 
ATOM     31  N   UNL     1       3.689  -0.267  -0.035  0.00  0.00    -0.148 NA
ATOM     32  N   UNL     1       4.494   0.880  -0.036  0.00  0.00    -0.211 N 
ATOM     33  C   UNL     1       3.676   1.951  -0.022  0.00  0.00    +0.352 A 
ATOM     34  O   UNL     1       4.023   3.119  -0.019  0.00  0.00    -0.244 OA
ENDBRANCH  19  32
ENDBRANCH   1  19
TORSDOF 6
