REMARK  Name = ZINC49776710
REMARK  3 active torsions:
REMARK  status: ('A' for Active; 'I' for Inactive)
REMARK    1  A    between atoms: C_1  and  C_2
REMARK    2  A    between atoms: C_5  and  N_9
REMARK    3  A    between atoms: C_14  and  C_16
REMARK                            x       y       z     vdW  Elec       q    Type
REMARK                         _______ _______ _______ _____ _____    ______ ____
ROOT
ATOM      1  C   UNL     1      -0.013   1.086   0.008  0.00  0.00    +0.085 C 
ATOM      2  C   UNL     1      -0.742   1.585  -1.213  0.00  0.00    +0.102 C 
ATOM      3  N   UNL     1      -1.256   0.800  -2.106  0.00  0.00    -0.245 NA
ATOM      4  C   UNL     1      -1.871   1.672  -3.123  0.00  0.00    +0.239 C 
ATOM      5  C   UNL     1      -1.584   3.066  -2.598  0.00  0.00    +0.111 C 
ATOM      6  N   UNL     1      -0.927   2.882  -1.480  0.00  0.00    -0.333 N 
ATOM      7  N   UNL     1      -1.938   4.250  -3.163  0.00  0.00    -0.345 N 
ATOM      8  H   UNL     1      -2.431   4.261  -3.998  0.00  0.00    +0.143 HD
ATOM      9  H   UNL     1      -1.696   5.085  -2.731  0.00  0.00    +0.143 HD
ATOM     10  H   UNL     1      -0.609   3.602  -0.913  0.00  0.00    +0.168 HD
ENDROOT
BRANCH   4  11
ATOM     11  N   UNL     1      -1.240   1.467  -4.434  0.00  0.00    -0.268 NA
ATOM     12  C   UNL     1       0.208   1.708  -4.364  0.00  0.00    +0.115 C 
ATOM     13  C   UNL     1       0.816   1.543  -5.760  0.00  0.00    +0.175 C 
ATOM     14  O   UNL     1       0.507   0.237  -6.256  0.00  0.00    -0.377 OA
ATOM     15  C   UNL     1      -0.895  -0.032  -6.338  0.00  0.00    +0.178 C 
ATOM     16  C   UNL     1      -1.519   0.118  -4.948  0.00  0.00    +0.082 C 
ATOM     17  C   UNL     1      -3.032  -0.089  -5.042  0.00  0.00    +0.026 C 
ENDBRANCH   4  11
TORSDOF 1
