REMARK  Name = ZINC47873482
REMARK  8 active torsions:
REMARK  status: ('A' for Active; 'I' for Inactive)
REMARK    1  A    between atoms: C_1  and  C_2
REMARK    2  A    between atoms: C_2  and  C_3
REMARK    3  A    between atoms: C_3  and  N_4
REMARK    4  A    between atoms: C_5  and  N_24
REMARK    5  A    between atoms: C_6  and  N_13
REMARK    6  A    between atoms: N_13  and  C_14
REMARK    7  A    between atoms: C_20  and  C_22
REMARK    8  A    between atoms: C_22  and  C_23
REMARK                            x       y       z     vdW  Elec       q    Type
REMARK                         _______ _______ _______ _____ _____    ______ ____
ROOT
ATOM      1  N   UNL     1      -1.636  -2.019   0.016  0.00  0.00    -0.281 N 
ATOM      2  C   UNL     1      -1.515  -2.687  -1.182  0.00  0.00    +0.127 A 
ATOM      3  C   UNL     1      -1.510  -4.055  -1.190  0.00  0.00    +0.131 A 
ATOM      4  C   UNL     1      -1.628  -4.745   0.030  0.00  0.00    +0.277 A 
ATOM      5  O   UNL     1      -1.625  -5.965   0.048  0.00  0.00    -0.266 OA
ATOM      6  N   UNL     1      -1.744  -4.050   1.179  0.00  0.00    -0.273 N 
ATOM      7  H   UNL     1      -1.826  -4.525   2.021  0.00  0.00    +0.173 HD
ATOM      8  C   UNL     1      -1.742  -2.705   1.169  0.00  0.00    +0.331 A 
ATOM      9  O   UNL     1      -1.844  -2.099   2.219  0.00  0.00    -0.246 OA
ENDROOT
BRANCH   2  10
ATOM     10  N   UNL     1      -1.401  -1.984  -2.360  0.00  0.00    -0.343 N 
ATOM     11  H   UNL     1      -1.405  -1.015  -2.349  0.00  0.00    +0.144 HD
ATOM     12  H   UNL     1      -1.316  -2.459  -3.201  0.00  0.00    +0.144 HD
ENDBRANCH   2  10
BRANCH   3  13
ATOM     13  N   UNL     1      -1.387  -4.765  -2.407  0.00  0.00    -0.334 N 
ATOM     14  H   UNL     1      -1.390  -4.286  -3.250  0.00  0.00    +0.147 HD
BRANCH  13  15
ATOM     15  C   UNL     1      -1.256  -6.224  -2.394  0.00  0.00    +0.074 C 
ATOM     16  C   UNL     1      -2.646  -6.860  -2.317  0.00  0.00    +0.022 C 
ATOM     17  C   UNL     1      -2.509  -8.384  -2.304  0.00  0.00    +0.002 C 
ATOM     18  C   UNL     1      -1.806  -8.845  -3.583  0.00  0.00    +0.000 C 
ATOM     19  C   UNL     1      -0.417  -8.209  -3.659  0.00  0.00    +0.005 C 
ATOM     20  C   UNL     1      -0.554  -6.685  -3.672  0.00  0.00    +0.009 C 
BRANCH  20  21
ATOM     21  C   UNL     1       0.836  -6.049  -3.749  0.00  0.00    +0.002 C 
ATOM     22  C   UNL     1       1.489  -6.409  -5.085  0.00  0.00    +0.004 C 
ENDBRANCH  20  21
ENDBRANCH  13  15
ENDBRANCH   3  13
BRANCH   1  23
ATOM     23  C   UNL     1      -1.642  -0.555   0.036  0.00  0.00    +0.128 C 
BRANCH  23  25
ATOM     24  C   UNL     1      -0.215   1.489   0.200  0.00  0.00    +0.005 C 
ATOM     25  C   UNL     1      -0.208  -0.040   0.179  0.00  0.00    +0.018 C 
ENDBRANCH  23  25
ENDBRANCH   1  23
TORSDOF 6
