REMARK  Name = ZINC04691167
REMARK  8 active torsions:
REMARK  status: ('A' for Active; 'I' for Inactive)
REMARK    1  A    between atoms: C_1  and  C_2
REMARK    2  A    between atoms: C_5  and  N_8
REMARK    3  A    between atoms: C_9  and  C_11
REMARK    4  A    between atoms: N_13  and  N_14
REMARK    5  A    between atoms: C_15  and  C_16
REMARK    6  A    between atoms: C_15  and  C_17
REMARK    7  A    between atoms: C_17  and  C_18
REMARK    8  A    between atoms: N_20  and  C_21
REMARK                            x       y       z     vdW  Elec       q    Type
REMARK                         _______ _______ _______ _____ _____    ______ ____
ROOT
ATOM      1  N   UNL     1      -1.136   2.128   0.032  0.00  0.00    -0.189 NA
ATOM      2  C   UNL     1      -0.018   1.503   0.021  0.00  0.00    +0.043 C 
ATOM      3  C   UNL     1       0.002  -0.003   0.002  0.00  0.00    +0.063 C 
ENDROOT
BRANCH   1   6
ATOM      4  C   UNL     1      -3.515   2.069   0.037  0.00  0.00    +0.318 C 
ATOM      5  O   UNL     1      -3.532   3.283   0.052  0.00  0.00    -0.263 OA
ATOM      6  N   UNL     1      -2.339   1.411   0.025  0.00  0.00    -0.199 N 
ATOM      7  H   UNL     1      -2.326   0.441   0.013  0.00  0.00    +0.178 HD
BRANCH   4   9
ATOM      8  N   UNL     1      -5.973   1.963   0.041  0.00  0.00    -0.278 N 
ATOM      9  C   UNL     1      -4.797   1.306   0.030  0.00  0.00    +0.305 C 
ATOM     10  O   UNL     1      -4.781   0.092   0.015  0.00  0.00    -0.265 OA
ATOM     11  H   UNL     1      -5.988   2.930   0.121  0.00  0.00    +0.155 HD
BRANCH   8  16
ATOM     12  C   UNL     1     -10.839  -0.920  -0.380  0.00  0.00    +0.044 C 
ATOM     13  C   UNL     1      -9.546  -0.154  -0.268  0.00  0.00    -0.050 A 
ATOM     14  C   UNL     1      -8.477  -0.701   0.418  0.00  0.00    +0.005 A 
ATOM     15  C   UNL     1      -7.291  -0.002   0.523  0.00  0.00    +0.023 A 
ATOM     16  C   UNL     1      -7.172   1.253  -0.063  0.00  0.00    +0.034 A 
ATOM     17  C   UNL     1      -8.250   1.802  -0.746  0.00  0.00    +0.023 A 
ATOM     18  C   UNL     1      -9.431   1.094  -0.852  0.00  0.00    +0.005 A 
ENDBRANCH   8  16
ENDBRANCH   4   9
ENDBRANCH   1   6
BRANCH   2  19
ATOM     19  C   UNL     1       1.276   2.275   0.022  0.00  0.00    +0.147 C 
BRANCH  19  20
ATOM     20  C   UNL     1       2.025   2.000   1.301  0.00  0.00    +0.219 C 
ATOM     21  O   UNL     1       1.553   1.251   2.130  0.00  0.00    -0.275 OA
ATOM     22  N   UNL     1       3.218   2.586   1.523  0.00  0.00    -0.312 N 
ATOM     23  H   UNL     1       3.595   3.184   0.859  0.00  0.00    +0.149 HD
BRANCH  22  24
ATOM     24  C   UNL     1       3.945   2.318   2.766  0.00  0.00    +0.079 C 
ATOM     25  C   UNL     1       3.443   3.260   3.863  0.00  0.00    +0.010 C 
ATOM     26  C   UNL     1       4.203   2.981   5.161  0.00  0.00    +0.009 C 
ATOM     27  C   UNL     1       5.699   3.211   4.936  0.00  0.00    -0.010 C 
ATOM     28  C   UNL     1       5.934   4.661   4.510  0.00  0.00    +0.007 C 
ATOM     29  C   UNL     1       5.174   4.940   3.212  0.00  0.00    -0.010 C 
ATOM     30  C   UNL     1       3.678   4.711   3.436  0.00  0.00    +0.009 C 
ATOM     31  C   UNL     1       5.676   3.998   2.115  0.00  0.00    +0.009 C 
ATOM     32  C   UNL     1       5.441   2.548   2.541  0.00  0.00    +0.010 C 
ATOM     33  C   UNL     1       6.200   2.269   3.840  0.00  0.00    +0.009 C 
ENDBRANCH  22  24
ENDBRANCH  19  20
ENDBRANCH   2  19
TORSDOF 6
