REMARK  Name = ZINC45314338
REMARK  6 active torsions:
REMARK  status: ('A' for Active; 'I' for Inactive)
REMARK    1  A    between atoms: C_1  and  N_2
REMARK    2  A    between atoms: C_3  and  N_26
REMARK    3  A    between atoms: C_4  and  C_11
REMARK    4  A    between atoms: N_7  and  C_10
REMARK    5  A    between atoms: C_11  and  C_13
REMARK    6  A    between atoms: C_13  and  N_14
REMARK                            x       y       z     vdW  Elec       q    Type
REMARK                         _______ _______ _______ _____ _____    ______ ____
ROOT
ATOM      1  C   UNL     1      -2.480  -2.605   0.022  0.00  0.00    +0.155 C 
ATOM      2  O   UNL     1      -3.493  -1.938  -0.055  0.00  0.00    -0.294 OA
ENDROOT
BRANCH   1   6
ATOM      3  C   UNL     1       0.265   1.450   0.033  0.00  0.00    +0.155 C 
ATOM      4  N   UNL     1       0.138  -0.010   0.013  0.00  0.00    -0.284 N 
ATOM      5  C   UNL     1      -1.106  -0.574   0.028  0.00  0.00    +0.116 A 
ATOM      6  C   UNL     1      -1.218  -1.975   0.008  0.00  0.00    +0.118 A 
ATOM      7  C   UNL     1       0.022  -2.762  -0.028  0.00  0.00    +0.269 A 
ATOM      8  O   UNL     1      -0.015  -3.978  -0.047  0.00  0.00    -0.267 OA
ATOM      9  N   UNL     1       1.202  -2.108  -0.040  0.00  0.00    -0.263 N 
ATOM     10  C   UNL     1       1.246  -0.766  -0.025  0.00  0.00    +0.333 A 
ATOM     11  O   UNL     1       2.330  -0.216  -0.042  0.00  0.00    -0.246 OA
ATOM     12  C   UNL     1       2.451  -2.872  -0.076  0.00  0.00    +0.157 C 
BRANCH   5  13
ATOM     13  N   UNL     1      -2.219   0.208   0.062  0.00  0.00    -0.344 N 
ATOM     14  H   UNL     1      -2.134   1.170   0.156  0.00  0.00    +0.144 HD
ATOM     15  H   UNL     1      -3.098  -0.196  -0.009  0.00  0.00    +0.144 HD
ENDBRANCH   5  13
ENDBRANCH   1   6
BRANCH   1  16
ATOM     16  C   UNL     1      -2.572  -4.105   0.134  0.00  0.00    +0.002 C 
BRANCH  16  17
ATOM     17  N   UNL     1      -3.984  -4.511   0.128  0.00  0.00    +0.385 N 
ATOM     18  C   UNL     1      -4.649  -3.977   1.321  0.00  0.00    -0.078 C 
ATOM     19  C   UNL     1      -6.138  -4.333   1.290  0.00  0.00    -0.015 C 
ATOM     20  C   UNL     1      -6.285  -5.856   1.254  0.00  0.00    -0.011 C 
ATOM     21  C   UNL     1      -7.762  -6.239   1.152  0.00  0.00    +0.004 C 
ATOM     22  C   UNL     1      -7.885  -7.764   1.122  0.00  0.00    +0.000 C 
ATOM     23  C   UNL     1      -7.124  -8.320  -0.083  0.00  0.00    +0.000 C 
ATOM     24  C   UNL     1      -5.649  -7.923   0.011  0.00  0.00    +0.002 C 
ATOM     25  C   UNL     1      -5.537  -6.399   0.033  0.00  0.00    -0.025 C 
ATOM     26  C   UNL     1      -4.070  -5.977   0.116  0.00  0.00    -0.075 C 
ATOM     27  H   UNL     1      -4.434  -4.143  -0.697  0.00  0.00    -0.081 HD
ENDBRANCH  16  17
ENDBRANCH   1  16
TORSDOF 4
