REMARK  Name = ZINC11563464
REMARK  6 active torsions:
REMARK  status: ('A' for Active; 'I' for Inactive)
REMARK    1  A    between atoms: C_5  and  C_7
REMARK    2  A    between atoms: C_7  and  C_9
REMARK    3  A    between atoms: C_7  and  N_53
REMARK    4  A    between atoms: C_9  and  N_10
REMARK    5  A    between atoms: C_11  and  C_13
REMARK    6  A    between atoms: C_13  and  C_14
REMARK                            x       y       z     vdW  Elec       q    Type
REMARK                         _______ _______ _______ _____ _____    ______ ____
ROOT
ATOM      1  N   UNL     1       1.270   1.540   0.384  0.00  0.00    -0.316 N 
ATOM      2  C   UNL     1       0.303   0.751   0.893  0.00  0.00    +0.215 C 
ATOM      3  O   UNL     1       0.576  -0.360   1.295  0.00  0.00    -0.276 OA
ATOM      4  H   UNL     1       1.052   2.429   0.062  0.00  0.00    +0.149 HD
ENDROOT
BRANCH   1   5
ATOM      5  C   UNL     1       2.650   1.054   0.314  0.00  0.00    +0.093 C 
BRANCH   5   6
ATOM      6  C   UNL     1       3.567   2.189  -0.146  0.00  0.00    -0.019 C 
BRANCH   6  11
ATOM      7  C   UNL     1       7.144   1.258   0.625  0.00  0.00    +0.000 A 
ATOM      8  C   UNL     1       7.553   0.712  -0.578  0.00  0.00    +0.001 A 
ATOM      9  C   UNL     1       6.673   0.643  -1.641  0.00  0.00    +0.020 A 
ATOM     10  C   UNL     1       5.380   1.117  -1.500  0.00  0.00    +0.043 A 
ATOM     11  C   UNL     1       4.973   1.668  -0.298  0.00  0.00    -0.041 A 
ATOM     12  C   UNL     1       5.855   1.736   0.764  0.00  0.00    +0.003 A 
ATOM     13 CL   UNL     1       4.271   1.023  -2.832  0.00  0.00    -0.083 Cl
ENDBRANCH   6  11
BRANCH   6  18
ATOM     14  C   UNL     1       4.574   4.298   0.538  0.00  0.00    -0.078 C 
ATOM     15  C   UNL     1       4.076   5.540   1.319  0.00  0.00    -0.020 C 
ATOM     16  C   UNL     1       2.540   5.453   1.165  0.00  0.00    -0.020 C 
ATOM     17  C   UNL     1       2.251   3.975   0.845  0.00  0.00    -0.078 C 
ATOM     18  N   UNL     1       3.547   3.294   0.859  0.00  0.00    +0.385 N 
ATOM     19  H   UNL     1       3.723   2.904   1.792  0.00  0.00    -0.081 HD
ENDBRANCH   6  18
ENDBRANCH   5   6
ENDBRANCH   1   5
BRANCH   2  20
ATOM     20  C   UNL     1      -1.118   1.248   0.959  0.00  0.00    +0.119 C 
BRANCH  20  21
ATOM     21  C   UNL     1      -2.010   0.165   1.569  0.00  0.00    +0.146 C 
ATOM     22  C   UNL     1      -3.407   0.700   1.750  0.00  0.00    +0.231 C 
ATOM     23  O   UNL     1      -3.732   1.105   2.845  0.00  0.00    -0.274 OA
ATOM     24  N   UNL     1      -4.300   0.749   0.766  0.00  0.00    -0.284 N 
ATOM     25  C   UNL     1      -4.152   0.234  -0.518  0.00  0.00    +0.048 A 
ATOM     26  C   UNL     1      -5.027   0.642  -1.520  0.00  0.00    +0.044 A 
ATOM     27  C   UNL     1      -4.896   0.148  -2.804  0.00  0.00    +0.043 A 
ATOM     28  C   UNL     1      -3.900  -0.764  -3.105  0.00  0.00    +0.021 A 
ATOM     29  C   UNL     1      -3.035  -1.191  -2.115  0.00  0.00    +0.018 A 
ATOM     30  C   UNL     1      -3.165  -0.702  -0.826  0.00  0.00    +0.030 A 
ATOM     31  S   UNL     1      -2.084  -1.269   0.451  0.00  0.00    -0.110 S 
ATOM     32 CL   UNL     1      -5.989   0.675  -4.046  0.00  0.00    -0.083 Cl
ATOM     33  H   UNL     1      -5.141   1.189   0.965  0.00  0.00    +0.155 HD
ENDBRANCH  20  21
ENDBRANCH   2  20
TORSDOF 6
