REMARK  Name = ZINC13127167
REMARK  3 active torsions:
REMARK  status: ('A' for Active; 'I' for Inactive)
REMARK    1  A    between atoms: C_1  and  C_2
REMARK    2  A    between atoms: C_5  and  C_21
REMARK    3  A    between atoms: C_13  and  C_15
REMARK                            x       y       z     vdW  Elec       q    Type
REMARK                         _______ _______ _______ _____ _____    ______ ____
ROOT
ATOM      1  C   UNL     1      -0.019   1.526   0.010  0.00  0.00    +0.028 C 
ATOM      2  C   UNL     1       0.002  -0.004   0.002  0.00  0.00    +0.072 C 
ATOM      3  C   UNL     1       0.727  -0.502  -1.254  0.00  0.00    +0.053 C 
ATOM      4  C   UNL     1       2.145   0.079  -1.297  0.00  0.00    +0.142 C 
ATOM      5  N   UNL     1       2.783  -0.135   0.001  0.00  0.00    -0.224 N 
ATOM      6  C   UNL     1       2.111  -0.403   1.147  0.00  0.00    +0.216 A 
ATOM      7  N   UNL     1       2.984  -0.539   2.109  0.00  0.00    -0.180 NA
ATOM      8  C   UNL     1       4.220  -0.363   1.619  0.00  0.00    +0.242 A 
ATOM      9  N   UNL     1       4.139  -0.113   0.331  0.00  0.00    -0.131 NA
ATOM     10  N   UNL     1       5.404  -0.434   2.358  0.00  0.00    -0.249 N 
ATOM     11  C   UNL     1       5.358  -0.700   3.679  0.00  0.00    +0.257 C 
ATOM     12  O   UNL     1       4.286  -0.877   4.227  0.00  0.00    -0.269 OA
ATOM     13  N   UNL     1       0.723  -0.496   1.192  0.00  0.00    -0.311 N 
ATOM     14  H   UNL     1       6.258  -0.293   1.921  0.00  0.00    +0.158 HD
ATOM     15  H   UNL     1       0.255  -0.864   1.958  0.00  0.00    +0.149 HD
ENDROOT
BRANCH   4  16
ATOM     16  C   UNL     1       2.942  -0.613  -2.374  0.00  0.00    -0.023 A 
ATOM     17  C   UNL     1       3.139  -1.980  -2.317  0.00  0.00    +0.006 A 
ATOM     18  C   UNL     1       3.869  -2.614  -3.305  0.00  0.00    +0.000 A 
ATOM     19  C   UNL     1       4.402  -1.882  -4.349  0.00  0.00    +0.000 A 
ATOM     20  C   UNL     1       4.203  -0.515  -4.406  0.00  0.00    +0.000 A 
ATOM     21  C   UNL     1       3.470   0.119  -3.421  0.00  0.00    +0.006 A 
ENDBRANCH   4  16
BRANCH  11  22
ATOM     22  C   UNL     1       6.599  -0.774   4.454  0.00  0.00    +0.074 A 
ATOM     23  C   UNL     1       6.772  -1.037   5.805  0.00  0.00    +0.021 A 
ATOM     24  C   UNL     1       8.072  -1.041   6.251  0.00  0.00    +0.008 A 
ATOM     25  C   UNL     1       9.072  -0.795   5.369  0.00  0.00    +0.046 A 
ATOM     26  S   UNL     1       8.282  -0.558   3.906  0.00  0.00    -0.092 S 
ENDBRANCH  11  22
TORSDOF 2
