REMARK  Name = ZINC36202517
REMARK  11 active torsions:
REMARK  status: ('A' for Active; 'I' for Inactive)
REMARK    1  A    between atoms: C_1  and  C_2
REMARK    2  A    between atoms: C_5  and  C_7
REMARK    3  A    between atoms: C_7  and  N_8
REMARK    4  A    between atoms: N_8  and  C_9
REMARK    5  A    between atoms: N_8  and  C_31
REMARK    6  A    between atoms: C_9  and  C_10
REMARK    7  A    between atoms: C_13  and  C_15
REMARK    8  A    between atoms: C_15  and  C_16
REMARK    9  A    between atoms: C_15  and  C_23
REMARK   10  A    between atoms: C_15  and  O_30
REMARK   11  A    between atoms: C_31  and  C_32
REMARK                            x       y       z     vdW  Elec       q    Type
REMARK                         _______ _______ _______ _____ _____    ______ ____
ROOT
ATOM      1  C   UNL     1       3.863  -4.187  -3.502  0.00  0.00    +0.089 A 
ATOM      2  C   UNL     1       4.403  -3.915  -4.704  0.00  0.00    +0.043 A 
ATOM      3  C   UNL     1       3.773  -4.770  -5.638  0.00  0.00    +0.048 A 
ATOM      4  C   UNL     1       2.886  -5.512  -4.950  0.00  0.00    +0.146 A 
ATOM      5  O   UNL     1       2.950  -5.159  -3.656  0.00  0.00    -0.463 OA
ENDROOT
BRANCH   1   6
ATOM      6  C   UNL     1       4.227  -3.518  -2.201  0.00  0.00    -0.002 C 
BRANCH   6   7
ATOM      7  N   UNL     1       3.366  -2.345  -1.996  0.00  0.00    +0.391 N 
ATOM      8  H   UNL     1       3.435  -1.734  -2.796  0.00  0.00    -0.080 HD
BRANCH   7   9
ATOM      9  C   UNL     1       3.799  -1.625  -0.791  0.00  0.00    -0.002 C 
BRANCH   9  14
ATOM     10  C   UNL     1       8.817  -1.118  -0.769  0.00  0.00    +0.086 C 
ATOM     11  C   UNL     1       7.357  -0.831  -1.005  0.00  0.00    +0.102 A 
ATOM     12  C   UNL     1       6.857   0.261  -1.611  0.00  0.00    +0.044 A 
ATOM     13  C   UNL     1       5.451   0.119  -1.617  0.00  0.00    +0.043 A 
ATOM     14  C   UNL     1       5.175  -1.052  -1.015  0.00  0.00    +0.089 A 
ATOM     15  O   UNL     1       6.333  -1.626  -0.652  0.00  0.00    -0.467 OA
ENDBRANCH   9  14
ENDBRANCH   7   9
BRANCH   7  16
ATOM     16  C   UNL     1       1.974  -2.783  -1.832  0.00  0.00    -0.046 C 
BRANCH  16  17
ATOM     17  C   UNL     1       1.057  -1.559  -1.782  0.00  0.00    +0.102 C 
ATOM     18  C   UNL     1      -0.405  -2.008  -1.572  0.00  0.00    +0.032 C 
ATOM     19  C   UNL     1      -1.185  -1.030  -2.493  0.00  0.00    +0.030 C 
ATOM     20  C   UNL     1      -0.174  -0.849  -3.653  0.00  0.00    +0.160 C 
ATOM     21  O   UNL     1       1.121  -0.853  -3.027  0.00  0.00    -0.378 OA
ENDBRANCH  16  17
ENDBRANCH   7  16
ENDBRANCH   6   7
ENDBRANCH   1   6
BRANCH   4  22
ATOM     22  C   UNL     1       1.980  -6.566  -5.533  0.00  0.00    +0.174 C 
BRANCH  22  23
ATOM     23  C   UNL     1       1.711  -7.626  -4.496  0.00  0.00    -0.002 A 
ATOM     24  C   UNL     1       2.104  -8.932  -4.726  0.00  0.00    +0.007 A 
ATOM     25  C   UNL     1       1.858  -9.906  -3.776  0.00  0.00    +0.003 A 
ATOM     26  C   UNL     1       1.219  -9.575  -2.596  0.00  0.00    +0.038 A 
ATOM     27  C   UNL     1       0.826  -8.268  -2.365  0.00  0.00    +0.124 A 
ATOM     28  C   UNL     1       1.078  -7.292  -3.315  0.00  0.00    +0.045 A 
ATOM     29  F   UNL     1       0.201  -7.944  -1.212  0.00  0.00    -0.205 F 
ENDBRANCH  22  23
BRANCH  22  30
ATOM     30  C   UNL     1       0.678  -5.933  -5.953  0.00  0.00    -0.002 A 
ATOM     31  C   UNL     1       0.074  -4.992  -5.140  0.00  0.00    +0.007 A 
ATOM     32  C   UNL     1      -1.120  -4.410  -5.524  0.00  0.00    +0.003 A 
ATOM     33  C   UNL     1      -1.711  -4.769  -6.720  0.00  0.00    +0.038 A 
ATOM     34  C   UNL     1      -1.107  -5.711  -7.535  0.00  0.00    +0.124 A 
ATOM     35  C   UNL     1       0.092  -6.289  -7.152  0.00  0.00    +0.045 A 
ATOM     36  F   UNL     1      -1.684  -6.064  -8.704  0.00  0.00    -0.205 F 
ENDBRANCH  22  30
BRANCH  22  37
ATOM     37  O   UNL     1       2.609  -7.160  -6.670  0.00  0.00    -0.372 OA
ATOM     38  H   UNL     1       3.454  -7.587  -6.473  0.00  0.00    +0.212 HD
ENDBRANCH  22  37
ENDBRANCH   4  22
TORSDOF 10
