REMARK  Name = ZINC40123865
REMARK  11 active torsions:
REMARK  status: ('A' for Active; 'I' for Inactive)
REMARK    1  A    between atoms: C_1  and  C_2
REMARK    2  A    between atoms: C_4  and  C_12
REMARK    3  A    between atoms: C_7  and  O_8
REMARK    4  A    between atoms: O_8  and  C_9
REMARK    5  A    between atoms: C_9  and  C_10
REMARK    6  A    between atoms: C_12  and  C_14
REMARK    7  A    between atoms: C_19  and  C_21
REMARK    8  A    between atoms: C_24  and  C_27
REMARK    9  A    between atoms: C_27  and  C_28
REMARK   10  A    between atoms: C_27  and  C_29
REMARK   11  A    between atoms: C_27  and  C_30
REMARK                            x       y       z     vdW  Elec       q    Type
REMARK                         _______ _______ _______ _____ _____    ______ ____
ROOT
ATOM      1  C   UNL     1       0.111  -4.286  -2.396  0.00  0.00    +0.076 C 
ATOM      2  C   UNL     1       0.202  -5.160  -3.425  0.00  0.00    +0.249 C 
ATOM      3  C   UNL     1       0.249  -6.537  -2.889  0.00  0.00    +0.285 C 
ATOM      4  O   UNL     1       0.331  -7.545  -3.562  0.00  0.00    -0.267 OA
ATOM      5  N   UNL     1       0.188  -6.509  -1.545  0.00  0.00    -0.298 N 
ATOM      6  C   UNL     1       0.104  -5.105  -1.127  0.00  0.00    +0.142 C 
ATOM      7  O   UNL     1       0.242  -4.828  -4.736  0.00  0.00    -0.282 OA
ATOM      8  H   UNL     1       0.202  -7.280  -0.957  0.00  0.00    +0.150 HD
ENDROOT
BRANCH   6   9
ATOM      9  C   UNL     1       1.290  -4.744  -0.270  0.00  0.00    -0.023 A 
ATOM     10  C   UNL     1       2.554  -5.178  -0.622  0.00  0.00    +0.006 A 
ATOM     11  C   UNL     1       3.642  -4.847   0.163  0.00  0.00    +0.004 A 
ATOM     12  C   UNL     1       3.466  -4.081   1.300  0.00  0.00    -0.042 A 
ATOM     13  C   UNL     1       2.202  -3.645   1.652  0.00  0.00    +0.004 A 
ATOM     14  C   UNL     1       1.115  -3.973   0.864  0.00  0.00    +0.006 A 
BRANCH  12  15
ATOM     15  C   UNL     1       4.653  -3.720   2.157  0.00  0.00    -0.013 C 
ATOM     16  C   UNL     1       5.659  -2.922   1.326  0.00  0.00    +0.015 C 
ATOM     17  C   UNL     1       4.187  -2.874   3.344  0.00  0.00    +0.015 C 
ATOM     18  C   UNL     1       5.317  -4.999   2.672  0.00  0.00    +0.015 C 
ENDBRANCH  12  15
ENDBRANCH   6   9
BRANCH   1  19
ATOM     19  C   UNL     1       0.040  -2.824  -2.495  0.00  0.00    +0.195 C 
ATOM     20  O   UNL     1       0.991  -2.196  -2.921  0.00  0.00    -0.287 OA
BRANCH  19  24
ATOM     21  C   UNL     1      -2.421   1.446  -1.730  0.00  0.00    +0.047 C 
ATOM     22  C   UNL     1      -2.373  -0.060  -1.707  0.00  0.00    -0.008 A 
ATOM     23  C   UNL     1      -1.229  -0.718  -2.098  0.00  0.00    +0.018 A 
ATOM     24  C   UNL     1      -1.185  -2.115  -2.076  0.00  0.00    +0.023 A 
ATOM     25  C   UNL     1      -2.306  -2.839  -1.658  0.00  0.00    +0.015 A 
ATOM     26  C   UNL     1      -3.447  -2.174  -1.269  0.00  0.00    +0.046 A 
ATOM     27  C   UNL     1      -3.484  -0.784  -1.286  0.00  0.00    +0.124 A 
BRANCH  27  28
ATOM     28  O   UNL     1      -4.608  -0.132  -0.897  0.00  0.00    -0.488 OA
BRANCH  28  29
ATOM     29  C   UNL     1      -5.712  -0.936  -0.476  0.00  0.00    +0.256 C 
BRANCH  29  30
ATOM     30  C   UNL     1      -6.862  -0.045  -0.084  0.00  0.00    +0.006 C 
ATOM     31  C   UNL     1      -8.076  -0.325  -0.490  0.00  0.00    +0.007 C 
ENDBRANCH  29  30
ENDBRANCH  28  29
ENDBRANCH  27  28
ENDBRANCH  19  24
ENDBRANCH   1  19
TORSDOF 7
