REMARK  Name = ZINC64502958
REMARK  5 active torsions:
REMARK  status: ('A' for Active; 'I' for Inactive)
REMARK    1  A    between atoms: C_1  and  C_2
REMARK    2  A    between atoms: C_5  and  N_9
REMARK    3  A    between atoms: C_7  and  C_8
REMARK    4  A    between atoms: C_14  and  N_17
REMARK    5  A    between atoms: C_23  and  C_25
REMARK                            x       y       z     vdW  Elec       q    Type
REMARK                         _______ _______ _______ _____ _____    ______ ____
ROOT
ATOM      1  N   UNL     1      -0.762  -6.802  -2.361  0.00  0.00    -0.280 NA
ATOM      2  C   UNL     1      -1.589  -8.014  -2.309  0.00  0.00    +0.105 C 
ATOM      3  C   UNL     1      -1.330  -8.859  -3.561  0.00  0.00    +0.123 C 
ATOM      4  N   UNL     1      -1.539  -8.014  -4.746  0.00  0.00    -0.297 N 
ATOM      5  C   UNL     1      -0.848  -6.717  -4.806  0.00  0.00    +0.123 C 
ATOM      6  C   UNL     1      -1.126  -5.957  -3.506  0.00  0.00    +0.105 C 
ATOM      7  C   UNL     1      -2.341  -8.418  -5.751  0.00  0.00    +0.242 C 
ATOM      8  O   UNL     1      -2.903  -9.490  -5.685  0.00  0.00    -0.273 OA
ENDROOT
BRANCH   7   9
ATOM      9  C   UNL     1      -2.541  -7.535  -6.956  0.00  0.00    +0.190 C 
ATOM     10  C   UNL     1      -3.190  -6.232  -6.547  0.00  0.00    +0.016 C 
ATOM     11  C   UNL     1      -4.365  -6.174  -7.213  0.00  0.00    -0.002 A 
ATOM     12  C   UNL     1      -5.441  -5.176  -7.245  0.00  0.00    +0.029 A 
ATOM     13  C   UNL     1      -6.522  -5.401  -8.028  0.00  0.00    +0.042 A 
ATOM     14  C   UNL     1      -6.639  -6.561  -8.807  0.00  0.00    +0.022 A 
ATOM     15  C   UNL     1      -5.692  -7.523  -8.830  0.00  0.00    +0.027 A 
ATOM     16  C   UNL     1      -4.514  -7.390  -8.045  0.00  0.00    +0.043 A 
ATOM     17  N   UNL     1      -3.469  -8.170  -7.899  0.00  0.00    -0.370 N 
ATOM     18 CL   UNL     1      -7.797  -4.223  -8.068  0.00  0.00    -0.084 Cl
ATOM     19  H   UNL     1      -3.332  -9.023  -8.340  0.00  0.00    +0.161 HD
ENDBRANCH   7   9
BRANCH   1  25
ATOM     20  N   UNL     1       0.059  -4.169  -0.021  0.00  0.00    -0.200 N 
ATOM     21  C   UNL     1       0.171  -4.840   1.143  0.00  0.00    +0.257 C 
ATOM     22  O   UNL     1       0.294  -4.239   2.194  0.00  0.00    -0.269 OA
ATOM     23  C   UNL     1       0.141  -6.315   1.121  0.00  0.00    +0.068 C 
ATOM     24  C   UNL     1      -0.353  -6.911   0.032  0.00  0.00    +0.014 C 
ATOM     25  C   UNL     1      -0.850  -6.050  -1.102  0.00  0.00    +0.166 C 
ATOM     26  N   UNL     1      -0.041  -4.836  -1.204  0.00  0.00    -0.212 NA
ATOM     27  H   UNL     1       0.872  -5.045  -1.579  0.00  0.00    +0.147 HD
BRANCH  20  32
ATOM     28  C   UNL     1      -0.017   1.503   0.011  0.00  0.00    +0.044 C 
ATOM     29  C   UNL     1       0.004  -0.004   0.003  0.00  0.00    -0.047 A 
ATOM     30  C   UNL     1      -0.808  -0.710   0.872  0.00  0.00    +0.005 A 
ATOM     31  C   UNL     1      -0.792  -2.091   0.867  0.00  0.00    +0.025 A 
ATOM     32  C   UNL     1       0.041  -2.771  -0.013  0.00  0.00    +0.053 A 
ATOM     33  C   UNL     1       0.854  -2.059  -0.885  0.00  0.00    +0.028 A 
ATOM     34  C   UNL     1       0.830  -0.678  -0.878  0.00  0.00    -0.046 A 
ATOM     35  C   UNL     1       1.708   0.095  -1.827  0.00  0.00    +0.044 C 
ENDBRANCH  20  32
ENDBRANCH   1  25
TORSDOF 3
