REMARK  Name = ZINC63110579
REMARK  7 active torsions:
REMARK  status: ('A' for Active; 'I' for Inactive)
REMARK    1  A    between atoms: C_1  and  C_2
REMARK    2  A    between atoms: C_2  and  N_23
REMARK    3  A    between atoms: C_4  and  C_19
REMARK    4  A    between atoms: N_6  and  C_9
REMARK    5  A    between atoms: N_23  and  C_24
REMARK    6  A    between atoms: C_24  and  C_25
REMARK    7  A    between atoms: C_25  and  C_26
REMARK                            x       y       z     vdW  Elec       q    Type
REMARK                         _______ _______ _______ _____ _____    ______ ____
ROOT
ATOM      1  C   UNL     1      -0.018   1.503   0.010  0.00  0.00    +0.061 C 
ATOM      2  C   UNL     1       0.002  -0.004   0.002  0.00  0.00    +0.015 C 
ATOM      3  C   UNL     1       0.023  -0.703   1.197  0.00  0.00    +0.086 C 
ATOM      4  C   UNL     1       0.051  -2.161   1.382  0.00  0.00    +0.175 C 
ATOM      5  N   UNL     1       0.064  -2.395   2.658  0.00  0.00    -0.170 NA
ATOM      6  N   UNL     1       0.048  -1.208   3.391  0.00  0.00    -0.157 N 
ATOM      7  C   UNL     1       0.029  -0.149   2.557  0.00  0.00    +0.272 C 
ATOM      8  O   UNL     1       0.016   1.030   2.869  0.00  0.00    -0.268 OA
ENDROOT
BRANCH   6   9
ATOM      9  C   UNL     1       0.057  -1.125   4.853  0.00  0.00    +0.249 C 
ATOM     10  N   UNL     1      -1.070  -1.869   5.432  0.00  0.00    -0.315 N 
ATOM     11  C   UNL     1      -0.771  -2.946   6.266  0.00  0.00    +0.043 A 
ATOM     12  C   UNL     1      -1.712  -3.771   6.907  0.00  0.00    +0.024 A 
ATOM     13  C   UNL     1      -1.315  -4.812   7.713  0.00  0.00    +0.002 A 
ATOM     14  C   UNL     1       0.025  -5.084   7.920  0.00  0.00    +0.001 A 
ATOM     15  C   UNL     1       0.974  -4.288   7.301  0.00  0.00    +0.016 A 
ATOM     16  C   UNL     1       0.576  -3.246   6.495  0.00  0.00    +0.032 A 
ATOM     17  S   UNL     1       1.487  -2.038   5.559  0.00  0.00    -0.080 S 
ATOM     18  H   UNL     1      -1.988  -1.620   5.242  0.00  0.00    +0.149 HD
ENDBRANCH   6   9
BRANCH   4  19
ATOM     19  C   UNL     1       0.061  -3.197   0.287  0.00  0.00    +0.436 C 
ATOM     20  F   UNL     1       0.088  -4.476   0.855  0.00  0.00    -0.164 F 
ATOM     21  F   UNL     1      -1.090  -3.059  -0.496  0.00  0.00    -0.164 F 
ATOM     22  F   UNL     1       1.194  -3.018  -0.514  0.00  0.00    -0.164 F 
ENDBRANCH   4  19
BRANCH   2  23
ATOM     23  N   UNL     1       0.000  -0.672  -1.169  0.00  0.00    -0.346 N 
ATOM     24  H   UNL     1       0.013  -1.642  -1.175  0.00  0.00    +0.146 HD
BRANCH  23  25
ATOM     25  C   UNL     1      -0.022   0.067  -2.434  0.00  0.00    +0.105 C 
BRANCH  25  26
ATOM     26  C   UNL     1      -0.020  -0.921  -3.602  0.00  0.00    +0.052 C 
BRANCH  26  27
ATOM     27  C   UNL     1      -0.042  -0.160  -4.903  0.00  0.00    -0.040 C 
ATOM     28  C   UNL     1       1.022   0.179  -5.666  0.00  0.00    -0.001 A 
ATOM     29  C   UNL     1       2.465  -0.049  -5.517  0.00  0.00    +0.010 A 
ATOM     30  C   UNL     1       3.304   0.422  -6.467  0.00  0.00    +0.001 A 
ATOM     31  C   UNL     1       2.833   1.121  -7.587  0.00  0.00    +0.002 A 
ATOM     32  C   UNL     1       1.522   1.369  -7.792  0.00  0.00    +0.026 A 
ATOM     33  C   UNL     1       0.550   0.919  -6.857  0.00  0.00    +0.043 A 
ATOM     34  N   UNL     1      -0.756   1.034  -6.832  0.00  0.00    -0.380 N 
ATOM     35  C   UNL     1      -1.260   0.373  -5.624  0.00  0.00    +0.144 C 
ATOM     36  H   UNL     1      -1.298   1.478  -7.503  0.00  0.00    +0.160 HD
ENDBRANCH  26  27
ENDBRANCH  25  26
ENDBRANCH  23  25
ENDBRANCH   2  23
TORSDOF 6
