REMARK  Name = ZINC01207663
REMARK  6 active torsions:
REMARK  status: ('A' for Active; 'I' for Inactive)
REMARK    1  A    between atoms: C_1  and  C_2
REMARK    2  A    between atoms: C_6  and  C_9
REMARK    3  A    between atoms: C_7  and  O_8
REMARK    4  A    between atoms: C_12  and  C_22
REMARK    5  A    between atoms: C_12  and  O_26
REMARK    6  A    between atoms: C_14  and  C_16
REMARK                            x       y       z     vdW  Elec       q    Type
REMARK                         _______ _______ _______ _____ _____    ______ ____
ROOT
ATOM      1  C   UNL     1      -0.216  -5.302  -0.028  0.00  0.00    +0.272 C 
ATOM      2  O   UNL     1       0.190  -6.442  -0.147  0.00  0.00    -0.268 OA
ATOM      3  N   UNL     1       0.656  -4.274  -0.011  0.00  0.00    -0.148 N 
ATOM      4  C   UNL     1       2.122  -4.395  -0.043  0.00  0.00    +0.257 C 
ATOM      5  C   UNL     1       2.607  -2.932  -0.010  0.00  0.00    +0.124 C 
ATOM      6  C   UNL     1       1.328  -2.127   0.046  0.00  0.00    +0.073 C 
ATOM      7  N   UNL     1       0.316  -2.924   0.039  0.00  0.00    -0.178 NA
ENDROOT
BRANCH   1  13
ATOM      8  C   UNL     1      -4.893  -7.003   0.454  0.00  0.00    +0.047 C 
ATOM      9  C   UNL     1      -3.920  -5.858   0.331  0.00  0.00    -0.008 A 
ATOM     10  C   UNL     1      -4.383  -4.557   0.336  0.00  0.00    +0.007 A 
ATOM     11  C   UNL     1      -3.497  -3.498   0.223  0.00  0.00    +0.001 A 
ATOM     12  C   UNL     1      -2.143  -3.732   0.112  0.00  0.00    +0.017 A 
ATOM     13  C   UNL     1      -1.663  -5.044   0.099  0.00  0.00    +0.080 A 
ATOM     14  C   UNL     1      -2.562  -6.113   0.213  0.00  0.00    +0.132 A 
BRANCH  14  15
ATOM     15  O   UNL     1      -2.107  -7.391   0.207  0.00  0.00    -0.506 OA
ATOM     16  H   UNL     1      -1.893  -7.736   1.085  0.00  0.00    +0.292 HD
ENDBRANCH  14  15
ENDBRANCH   1  13
BRANCH   6  17
ATOM     17  C   UNL     1       1.252  -0.655   0.095  0.00  0.00    +0.016 A 
ATOM     18  C   UNL     1       0.010  -0.007   0.139  0.00  0.00    +0.013 A 
ATOM     19  C   UNL     1      -0.007   1.375   0.183  0.00  0.00    +0.020 A 
ATOM     20  C   UNL     1       1.191   2.068   0.182  0.00  0.00    +0.111 A 
ATOM     21  N   UNL     1       2.346   1.432   0.140  0.00  0.00    -0.263 NA
ATOM     22  C   UNL     1       2.415   0.118   0.097  0.00  0.00    +0.120 A 
ENDBRANCH   6  17
BRANCH   4  23
ATOM     23  C   UNL     1       2.578  -5.080  -1.333  0.00  0.00    +0.438 C 
ATOM     24  F   UNL     1       2.134  -4.342  -2.435  0.00  0.00    -0.166 F 
ATOM     25  F   UNL     1       3.975  -5.153  -1.353  0.00  0.00    -0.166 F 
ATOM     26  F   UNL     1       2.043  -6.371  -1.390  0.00  0.00    -0.166 F 
ENDBRANCH   4  23
BRANCH   4  27
ATOM     27  O   UNL     1       2.592  -5.114   1.099  0.00  0.00    -0.363 OA
ATOM     28  H   UNL     1       2.261  -6.021   1.157  0.00  0.00    +0.212 HD
ENDBRANCH   4  27
TORSDOF 5
