REMARK  Name = ZINC41183613
REMARK  2 active torsions:
REMARK  status: ('A' for Active; 'I' for Inactive)
REMARK    1  A    between atoms: C_7  and  C_11
REMARK    2  A    between atoms: C_7  and  N_19
REMARK                            x       y       z     vdW  Elec       q    Type
REMARK                         _______ _______ _______ _____ _____    ______ ____
ROOT
ATOM      1  C   UNL     1      -0.017   1.374   0.010  0.00  0.00    +0.000 A 
ATOM      2  C   UNL     1       1.171   2.083   0.002  0.00  0.00    +0.001 A 
ATOM      3  C   UNL     1       2.369   1.401  -0.004  0.00  0.00    +0.015 A 
ATOM      4  C   UNL     1       2.390   0.006  -0.010  0.00  0.00    +0.013 A 
ATOM      5  C   UNL     1       1.206  -0.705  -0.017  0.00  0.00    -0.008 A 
ATOM      6  C   UNL     1       0.002  -0.004   0.002  0.00  0.00    +0.007 A 
ATOM      7  C   UNL     1       1.110  -2.202  -0.068  0.00  0.00    +0.093 C 
ATOM      8  C   UNL     1       2.343  -2.911   0.464  0.00  0.00    +0.044 C 
ATOM      9  C   UNL     1       3.555  -2.522  -0.395  0.00  0.00    +0.077 C 
ATOM     10  S   UNL     1       3.963  -0.796   0.002  0.00  0.00    -0.125 S 
ENDROOT
BRANCH   7  11
ATOM     11  C   UNL     1      -0.083  -2.636   0.745  0.00  0.00    +0.103 A 
ATOM     12  N   UNL     1      -0.319  -2.433   2.012  0.00  0.00    -0.246 NA
ATOM     13  C   UNL     1      -1.429  -2.877   2.611  0.00  0.00    +0.052 A 
ATOM     14  C   UNL     1      -2.280  -3.552   1.801  0.00  0.00    +0.013 A 
ATOM     15  S   UNL     1      -1.439  -3.494   0.236  0.00  0.00    -0.075 S 
ATOM     16  C   UNL     1      -3.498  -4.028   2.531  0.00  0.00    +0.044 C 
ATOM     17  C   UNL     1      -3.119  -3.933   4.026  0.00  0.00    +0.011 C 
ATOM     18  C   UNL     1      -2.037  -2.834   4.011  0.00  0.00    +0.056 C 
ENDBRANCH   7  11
BRANCH   7  19
ATOM     19  N   UNL     1       0.897  -2.612  -1.462  0.00  0.00    -0.316 NA
ATOM     20  H   UNL     1       0.047  -2.213  -1.831  0.00  0.00    +0.119 HD
ATOM     21  H   UNL     1       1.690  -2.366  -2.036  0.00  0.00    +0.119 HD
ENDBRANCH   7  19
TORSDOF 2
