REMARK  Name = ZINC07778836
REMARK  4 active torsions:
REMARK  status: ('A' for Active; 'I' for Inactive)
REMARK    1  A    between atoms: C_1  and  O_2
REMARK    2  A    between atoms: O_2  and  C_3
REMARK    3  A    between atoms: C_3  and  C_4
REMARK    4  A    between atoms: N_16  and  C_17
REMARK                            x       y       z     vdW  Elec       q    Type
REMARK                         _______ _______ _______ _____ _____    ______ ____
ROOT
ATOM      1  C   UNL     1       1.981   1.816  -0.778  0.00  0.00    +0.286 C 
ATOM      2  C   UNL     1       2.653   1.255   0.450  0.00  0.00    +0.261 C 
ATOM      3  O   UNL     1       3.427   1.938   1.087  0.00  0.00    -0.271 OA
ATOM      4  N   UNL     1       2.389  -0.012   0.837  0.00  0.00    -0.275 N 
ATOM      5  C   UNL     1       1.393  -0.733   0.165  0.00  0.00    +0.136 A 
ATOM      6  C   UNL     1       1.234  -2.104   0.353  0.00  0.00    +0.151 A 
ATOM      7  N   UNL     1       0.286  -2.736  -0.340  0.00  0.00    -0.218 NA
ATOM      8  C   UNL     1      -0.484  -2.081  -1.185  0.00  0.00    +0.227 A 
ATOM      9  N   UNL     1      -0.366  -0.782  -1.384  0.00  0.00    -0.200 NA
ATOM     10  C   UNL     1       0.549  -0.079  -0.729  0.00  0.00    +0.242 A 
ATOM     11  O   UNL     1       0.672   1.258  -0.912  0.00  0.00    -0.460 OA
ATOM     12  N   UNL     1       2.044  -2.798   1.242  0.00  0.00    -0.296 N 
ATOM     13  H   UNL     1       2.880  -0.416   1.569  0.00  0.00    +0.155 HD
ATOM     14  H   UNL     1       2.668  -2.316   1.808  0.00  0.00    +0.154 HD
ENDROOT
BRANCH  12  15
ATOM     15  C   UNL     1       1.962  -4.193   1.322  0.00  0.00    +0.068 A 
ATOM     16  C   UNL     1       1.389  -4.916   0.285  0.00  0.00    +0.027 A 
ATOM     17  C   UNL     1       1.309  -6.293   0.367  0.00  0.00    +0.017 A 
ATOM     18  C   UNL     1       1.799  -6.952   1.480  0.00  0.00    +0.021 A 
ATOM     19  C   UNL     1       2.372  -6.235   2.516  0.00  0.00    +0.055 A 
ATOM     20  C   UNL     1       2.460  -4.857   2.438  0.00  0.00    +0.145 A 
ATOM     21  F   UNL     1       3.024  -4.157   3.447  0.00  0.00    -0.204 F 
ATOM     22 BR   UNL     1       1.687  -8.837   1.587  0.00  0.00    -0.050 Br
ENDBRANCH  12  15
BRANCH   1  23
ATOM     23  C   UNL     1       2.811   1.467  -2.016  0.00  0.00    +0.213 C 
BRANCH  23  25
ATOM     24  C   UNL     1       2.947   1.841  -4.379  0.00  0.00    +0.194 C 
ATOM     25  O   UNL     1       2.244   2.103  -3.163  0.00  0.00    -0.379 OA
ENDBRANCH  23  25
ENDBRANCH   1  23
TORSDOF 3
