REMARK  Name = ZINC06720080
REMARK  7 active torsions:
REMARK  status: ('A' for Active; 'I' for Inactive)
REMARK    1  A    between atoms: C_1  and  C_2
REMARK    2  A    between atoms: C_5  and  S_8
REMARK    3  A    between atoms: S_8  and  N_11
REMARK    4  A    between atoms: C_16  and  C_17
REMARK    5  A    between atoms: C_16  and  N_52
REMARK    6  A    between atoms: N_19  and  N_20
REMARK    7  A    between atoms: C_21  and  C_22
REMARK                            x       y       z     vdW  Elec       q    Type
REMARK                         _______ _______ _______ _____ _____    ______ ____
ROOT
ATOM      1  N   UNL     1       9.605  -4.147  -0.305  0.00  0.00    -0.180 NA
ATOM      2  C   UNL     1       9.500  -3.080  -1.312  0.00  0.00    +0.091 C 
ATOM      3  C   UNL     1       8.405  -2.102  -0.873  0.00  0.00    -0.061 C 
ATOM      4  C   UNL     1       7.324  -3.798   0.483  0.00  0.00    -0.061 C 
ATOM      5  C   UNL     1       8.376  -4.845   0.099  0.00  0.00    +0.091 C 
ATOM      6  N   UNL     1       7.155  -2.860  -0.648  0.00  0.00    +0.387 N 
ATOM      7  H   UNL     1       6.933  -3.396  -1.495  0.00  0.00    -0.081 HD
ENDROOT
BRANCH   1   8
ATOM      8  S   UNL     1      11.069  -4.551   0.356  0.00  0.00    +0.061 S 
ATOM      9  O   UNL     1      10.952  -5.891   0.814  0.00  0.00    -0.153 OA
ATOM     10  O   UNL     1      12.061  -4.148  -0.578  0.00  0.00    -0.153 OA
BRANCH   8  15
ATOM     11  C   UNL     1      11.821  -1.114   5.258  0.00  0.00    +0.044 C 
ATOM     12  C   UNL     1      11.633  -1.972   4.034  0.00  0.00    -0.050 A 
ATOM     13  C   UNL     1      11.013  -3.203   4.141  0.00  0.00    +0.005 A 
ATOM     14  C   UNL     1      10.841  -3.991   3.018  0.00  0.00    +0.029 A 
ATOM     15  C   UNL     1      11.288  -3.547   1.788  0.00  0.00    +0.105 A 
ATOM     16  C   UNL     1      11.913  -2.318   1.681  0.00  0.00    +0.029 A 
ATOM     17  C   UNL     1      12.081  -1.529   2.804  0.00  0.00    +0.005 A 
ENDBRANCH   8  15
ENDBRANCH   1   8
BRANCH   6  18
ATOM     18  C   UNL     1       6.043  -1.927  -0.366  0.00  0.00    +0.020 C 
BRANCH  18  19
ATOM     19  C   UNL     1       4.751  -2.702  -0.359  0.00  0.00    +0.216 C 
ATOM     20  O   UNL     1       4.760  -3.900  -0.548  0.00  0.00    -0.276 OA
ATOM     21  N   UNL     1       3.584  -2.063  -0.141  0.00  0.00    -0.209 N 
ATOM     22  H   UNL     1       3.576  -1.105   0.010  0.00  0.00    +0.177 HD
BRANCH  21  23
ATOM     23  N   UNL     1       2.382  -2.783  -0.134  0.00  0.00    -0.188 NA
ATOM     24  C   UNL     1       1.250  -2.154  -0.051  0.00  0.00    +0.138 C 
BRANCH  24  25
ATOM     25  C   UNL     1       1.145  -0.759  -0.519  0.00  0.00    -0.003 A 
ATOM     26  C   UNL     1       2.149  -0.211  -1.321  0.00  0.00    +0.009 A 
ATOM     27  C   UNL     1       2.045   1.094  -1.756  0.00  0.00    +0.003 A 
ATOM     28  C   UNL     1       0.950   1.861  -1.400  0.00  0.00    +0.038 A 
ATOM     29  C   UNL     1      -0.050   1.325  -0.605  0.00  0.00    +0.124 A 
ATOM     30  C   UNL     1       0.042   0.019  -0.162  0.00  0.00    +0.047 A 
ATOM     31  F   UNL     1      -1.119   2.078  -0.266  0.00  0.00    -0.205 F 
ENDBRANCH  24  25
ENDBRANCH  21  23
ENDBRANCH  18  19
ENDBRANCH   6  18
TORSDOF 6
