REMARK  Name = ZINC05673346
REMARK  8 active torsions:
REMARK  status: ('A' for Active; 'I' for Inactive)
REMARK    1  A    between atoms: C_1  and  C_2
REMARK    2  A    between atoms: C_2  and  O_3
REMARK    3  A    between atoms: O_3  and  C_4
REMARK    4  A    between atoms: C_9  and  C_10
REMARK    5  A    between atoms: C_13  and  O_31
REMARK    6  A    between atoms: N_15  and  C_22
REMARK    7  A    between atoms: C_27  and  C_29
REMARK    8  A    between atoms: C_27  and  C_30
REMARK                            x       y       z     vdW  Elec       q    Type
REMARK                         _______ _______ _______ _____ _____    ______ ____
ROOT
ATOM      1  C   UNL     1       1.990  -1.397  -3.491  0.00  0.00    +0.119 C 
ATOM      2  C   UNL     1       0.917  -1.051  -4.476  0.00  0.00    +0.072 A 
ATOM      3  C   UNL     1      -0.191  -1.900  -4.706  0.00  0.00    +0.238 A 
ATOM      4  N   UNL     1      -0.959  -1.349  -5.606  0.00  0.00    -0.131 NA
ATOM      5  N   UNL     1      -0.384  -0.137  -5.985  0.00  0.00    -0.243 N 
ATOM      6  C   UNL     1       0.782   0.029  -5.275  0.00  0.00    +0.132 A 
ATOM      7  N   UNL     1       1.569   1.141  -5.454  0.00  0.00    -0.270 N 
ATOM      8  C   UNL     1       2.662   1.589  -4.914  0.00  0.00    +0.228 C 
ATOM      9  O   UNL     1       2.998   2.694  -5.283  0.00  0.00    -0.275 OA
ATOM     10  C   UNL     1       3.562   0.965  -3.921  0.00  0.00    +0.166 C 
ATOM     11  S   UNL     1       2.676   0.038  -2.660  0.00  0.00    -0.138 S 
ATOM     12  H   UNL     1       1.228   1.730  -6.146  0.00  0.00    +0.156 HD
ENDROOT
BRANCH   5  13
ATOM     13  C   UNL     1      -0.928   0.799  -6.972  0.00  0.00    +0.114 C 
ATOM     14  C   UNL     1      -2.315   1.267  -6.523  0.00  0.00    +0.055 C 
ATOM     15  C   UNL     1      -2.909   2.183  -7.597  0.00  0.00    +0.162 C 
ATOM     16  O   UNL     1      -2.967   1.480  -8.840  0.00  0.00    -0.374 OA
ATOM     17  C   UNL     1      -1.694   1.059  -9.333  0.00  0.00    +0.066 C 
ATOM     18  C   UNL     1      -1.050   0.099  -8.329  0.00  0.00    +0.061 C 
ATOM     19  C   UNL     1      -0.790   2.280  -9.521  0.00  0.00    +0.041 C 
ATOM     20  C   UNL     1      -1.876   0.347 -10.675  0.00  0.00    +0.041 C 
ENDBRANCH   5  13
BRANCH   1  26
ATOM     21  C   UNL     1       0.777  -1.810  -1.336  0.00  0.00    +0.125 A 
ATOM     22  C   UNL     1       0.243  -2.669  -0.386  0.00  0.00    +0.046 A 
ATOM     23  C   UNL     1       0.351  -4.036  -0.554  0.00  0.00    +0.004 A 
ATOM     24  C   UNL     1       0.991  -4.548  -1.667  0.00  0.00    +0.001 A 
ATOM     25  C   UNL     1       1.525  -3.695  -2.615  0.00  0.00    +0.008 A 
ATOM     26  C   UNL     1       1.414  -2.327  -2.455  0.00  0.00    +0.012 A 
BRANCH  21  27
ATOM     27  O   UNL     1       0.671  -0.465  -1.174  0.00  0.00    -0.492 OA
BRANCH  27  29
ATOM     28  C   UNL     1      -0.019   1.526   0.010  0.00  0.00    +0.048 C 
ATOM     29  C   UNL     1       0.002  -0.004   0.002  0.00  0.00    +0.225 C 
ENDBRANCH  27  29
ENDBRANCH  21  27
ENDBRANCH   1  26
BRANCH   3  30
ATOM     30  O   UNL     1      -0.416  -3.093  -4.093  0.00  0.00    -0.491 OA
ATOM     31  H   UNL     1      -0.931  -3.024  -3.278  0.00  0.00    +0.294 HD
ENDBRANCH   3  30
TORSDOF 5
