REMARK  Name = ZINC40688687
REMARK  9 active torsions:
REMARK  status: ('A' for Active; 'I' for Inactive)
REMARK    1  A    between atoms: C_1  and  C_2
REMARK    2  A    between atoms: C_4  and  C_25
REMARK    3  A    between atoms: C_7  and  N_8
REMARK    4  A    between atoms: C_10  and  N_23
REMARK    5  A    between atoms: C_11  and  N_15
REMARK    6  A    between atoms: N_15  and  N_16
REMARK    7  A    between atoms: N_19  and  C_22
REMARK    8  A    between atoms: C_25  and  C_27
REMARK    9  A    between atoms: C_25  and  C_29
REMARK                            x       y       z     vdW  Elec       q    Type
REMARK                         _______ _______ _______ _____ _____    ______ ____
ROOT
ATOM      1  N   UNL     1       1.006  -0.192   2.389  0.00  0.00    -0.298 N 
ATOM      2  C   UNL     1       1.366  -1.069   3.406  0.00  0.00    +0.149 A 
ATOM      3  C   UNL     1       1.539  -0.608   4.712  0.00  0.00    +0.107 A 
ATOM      4  C   UNL     1       1.900  -1.532   5.695  0.00  0.00    +0.158 A 
ATOM      5  N   UNL     1       2.066  -2.807   5.351  0.00  0.00    -0.218 NA
ATOM      6  C   UNL     1       1.893  -3.201   4.106  0.00  0.00    +0.225 A 
ATOM      7  N   UNL     1       1.547  -2.363   3.150  0.00  0.00    -0.219 NA
ATOM      8  H   UNL     1       0.782   0.728   2.599  0.00  0.00    +0.154 HD
ENDROOT
BRANCH   1  15
ATOM      9  C   UNL     1      -0.731   1.147   0.577  0.00  0.00    +0.045 C 
ATOM     10  C   UNL     1       0.132  -0.011   0.146  0.00  0.00    -0.029 A 
ATOM     11  C   UNL     1       0.098  -0.448  -1.164  0.00  0.00    +0.011 A 
ATOM     12  C   UNL     1       0.889  -1.510  -1.561  0.00  0.00    -0.008 A 
ATOM     13  C   UNL     1       1.718  -2.139  -0.647  0.00  0.00    +0.047 A 
ATOM     14  C   UNL     1       1.756  -1.706   0.665  0.00  0.00    +0.043 A 
ATOM     15  C   UNL     1       0.966  -0.636   1.065  0.00  0.00    +0.037 A 
ATOM     16 CL   UNL     1       2.709  -3.473  -1.150  0.00  0.00    -0.083 Cl
BRANCH  12  17
ATOM     17  C   UNL     1       0.850  -1.984  -2.991  0.00  0.00    +0.153 C 
BRANCH  17  18
ATOM     18  C   UNL     1       1.364  -0.893  -3.895  0.00  0.00    -0.026 A 
ATOM     19  C   UNL     1       0.568   0.201  -4.179  0.00  0.00    +0.006 A 
ATOM     20  C   UNL     1       1.039   1.201  -5.009  0.00  0.00    +0.020 A 
ATOM     21  C   UNL     1       2.306   1.107  -5.556  0.00  0.00    +0.041 A 
ATOM     22  C   UNL     1       3.102   0.011  -5.272  0.00  0.00    +0.020 A 
ATOM     23  C   UNL     1       2.632  -0.986  -4.437  0.00  0.00    +0.006 A 
ATOM     24 CL   UNL     1       2.898   2.362  -6.598  0.00  0.00    -0.084 Cl
ENDBRANCH  17  18
BRANCH  17  25
ATOM     25  C   UNL     1      -0.536  -2.315  -3.360  0.00  0.00    +0.075 C 
ATOM     26  N   UNL     1      -1.605  -2.571  -3.644  0.00  0.00    -0.196 NA
ENDBRANCH  17  25
ENDBRANCH  12  17
ENDBRANCH   1  15
BRANCH   3  27
ATOM     27  N   UNL     1       1.354   0.747   5.029  0.00  0.00    -0.353 N 
ATOM     28  H   UNL     1       1.103   1.377   4.336  0.00  0.00    +0.143 HD
ATOM     29  H   UNL     1       1.477   1.053   5.941  0.00  0.00    +0.143 HD
ENDBRANCH   3  27
BRANCH   4  30
ATOM     30  N   UNL     1       2.085  -1.126   7.011  0.00  0.00    -0.261 N 
ATOM     31  H   UNL     1       1.963  -0.194   7.253  0.00  0.00    +0.168 HD
BRANCH  30  32
ATOM     32  N   UNL     1       2.439  -2.038   7.964  0.00  0.00    -0.232 NA
ATOM     33  C   UNL     1       1.389  -2.167   8.985  0.00  0.00    +0.087 C 
ATOM     34  C   UNL     1       1.797  -3.239   9.998  0.00  0.00    -0.062 C 
ATOM     35  N   UNL     1       3.071  -2.861  10.625  0.00  0.00    +0.380 N 
ATOM     36  C   UNL     1       4.114  -2.761   9.596  0.00  0.00    -0.062 C 
ATOM     37  C   UNL     1       3.726  -1.685   8.580  0.00  0.00    +0.087 C 
ATOM     38  C   UNL     1       3.452  -3.881  11.611  0.00  0.00    -0.096 C 
ATOM     39  H   UNL     1       2.967  -1.970  11.087  0.00  0.00    -0.082 HD
ENDBRANCH  30  32
ENDBRANCH   4  30
TORSDOF 7
