REMARK  Name = ZINC57292095
REMARK  9 active torsions:
REMARK  status: ('A' for Active; 'I' for Inactive)
REMARK    1  A    between atoms: C_1  and  C_2
REMARK    2  A    between atoms: C_2  and  O_3
REMARK    3  A    between atoms: O_3  and  C_4
REMARK    4  A    between atoms: C_4  and  C_6
REMARK    5  A    between atoms: C_7  and  C_30
REMARK    6  A    between atoms: C_12  and  C_16
REMARK    7  A    between atoms: C_16  and  C_18
REMARK    8  A    between atoms: C_16  and  N_19
REMARK    9  A    between atoms: N_19  and  C_20
REMARK                            x       y       z     vdW  Elec       q    Type
REMARK                         _______ _______ _______ _____ _____    ______ ____
ROOT
ATOM      1  C   UNL     1       1.496  -2.371   2.467  0.00  0.00    +0.102 A 
ATOM      2  C   UNL     1       1.712  -3.681   2.784  0.00  0.00    -0.015 A 
ATOM      3  C   UNL     1       2.413  -3.944   3.967  0.00  0.00    +0.076 A 
ATOM      4  C   UNL     1       2.790  -5.252   4.558  0.00  0.00    +0.282 A 
ATOM      5  O   UNL     1       2.487  -6.294   4.001  0.00  0.00    -0.265 OA
ATOM      6  N   UNL     1       3.470  -5.271   5.715  0.00  0.00    -0.194 NA
ATOM      7  C   UNL     1       3.813  -4.179   6.339  0.00  0.00    +0.129 A 
ATOM      8  N   UNL     1       3.505  -2.956   5.864  0.00  0.00    -0.336 N 
ATOM      9  C   UNL     1       2.818  -2.817   4.699  0.00  0.00    +0.092 A 
ATOM     10  S   UNL     1       2.278  -1.507   3.815  0.00  0.00    -0.064 S 
ATOM     11  C   UNL     1       1.217  -4.797   1.900  0.00  0.00    +0.046 C 
ATOM     12  H   UNL     1       3.777  -2.167   6.358  0.00  0.00    +0.168 HD
ENDROOT
BRANCH   1  13
ATOM     13  C   UNL     1       0.801  -1.814   1.305  0.00  0.00    +0.346 C 
ATOM     14  O   UNL     1       0.321  -2.557   0.470  0.00  0.00    -0.244 OA
BRANCH  13  15
ATOM     15  O   UNL     1       0.693  -0.477   1.160  0.00  0.00    -0.461 OA
BRANCH  15  17
ATOM     16  C   UNL     1      -0.019   1.526   0.010  0.00  0.00    +0.048 C 
ATOM     17  C   UNL     1       0.002  -0.004   0.002  0.00  0.00    +0.229 C 
ENDBRANCH  15  17
ENDBRANCH  13  15
ENDBRANCH   1  13
BRANCH   7  18
ATOM     18  C   UNL     1       4.576  -4.288   7.634  0.00  0.00    +0.117 C 
ATOM     19  C   UNL     1       3.833  -3.523   8.731  0.00  0.00    +0.032 C 
BRANCH  18  20
ATOM     20  N   UNL     1       4.693  -5.702   8.016  0.00  0.00    -0.304 NA
ATOM     21  H   UNL     1       3.849  -6.026   8.466  0.00  0.00    +0.123 HD
BRANCH  20  22
ATOM     22  C   UNL     1       5.864  -5.920   8.875  0.00  0.00    +0.061 C 
ATOM     23  C   UNL     1       7.105  -6.121   8.004  0.00  0.00    +0.007 C 
ATOM     24  C   UNL     1       8.325  -6.349   8.899  0.00  0.00    +0.008 C 
ATOM     25  C   UNL     1       8.101  -7.592   9.761  0.00  0.00    -0.010 C 
ATOM     26  C   UNL     1       7.897  -8.810   8.857  0.00  0.00    +0.007 C 
ATOM     27  C   UNL     1       6.677  -8.583   7.962  0.00  0.00    -0.010 C 
ATOM     28  C   UNL     1       6.902  -7.339   7.100  0.00  0.00    +0.008 C 
ATOM     29  C   UNL     1       5.436  -8.381   8.834  0.00  0.00    +0.008 C 
ATOM     30  C   UNL     1       5.639  -7.164   9.738  0.00  0.00    +0.007 C 
ATOM     31  C   UNL     1       6.860  -7.391  10.633  0.00  0.00    +0.008 C 
ENDBRANCH  20  22
ENDBRANCH  18  20
ENDBRANCH   7  18
TORSDOF 6
