REMARK  Name = ZINC65947424
REMARK  4 active torsions:
REMARK  status: ('A' for Active; 'I' for Inactive)
REMARK    1  A    between atoms: C_1  and  C_2
REMARK    2  A    between atoms: C_8  and  S_10
REMARK    3  A    between atoms: S_10  and  C_11
REMARK    4  A    between atoms: C_14  and  C_16
REMARK                            x       y       z     vdW  Elec       q    Type
REMARK                         _______ _______ _______ _____ _____    ______ ____
ROOT
ATOM      1  C   UNL     1       0.073  -6.086  -2.719  0.00  0.00    +0.264 A 
ATOM      2  N   UNL     1       0.061  -4.993  -3.446  0.00  0.00    -0.211 NA
ATOM      3  C   UNL     1       0.058  -5.337  -4.743  0.00  0.00    +0.162 A 
ATOM      4  C   UNL     1       0.069  -6.692  -4.810  0.00  0.00    +0.156 A 
ATOM      5  O   UNL     1       0.084  -7.151  -3.536  0.00  0.00    -0.430 OA
ENDROOT
BRANCH   4   6
ATOM      6  C   UNL     1       0.070  -7.511  -6.039  0.00  0.00    +0.019 A 
ATOM      7  C   UNL     1       0.064  -6.895  -7.293  0.00  0.00    +0.011 A 
ATOM      8  C   UNL     1       0.065  -7.666  -8.436  0.00  0.00    +0.001 A 
ATOM      9  C   UNL     1       0.071  -9.046  -8.344  0.00  0.00    +0.000 A 
ATOM     10  C   UNL     1       0.076  -9.663  -7.105  0.00  0.00    +0.001 A 
ATOM     11  C   UNL     1       0.082  -8.905  -5.953  0.00  0.00    +0.011 A 
ENDBRANCH   4   6
BRANCH   1  12
ATOM     12  S   UNL     1       0.081  -6.145  -0.958  0.00  0.00    -0.002 S 
BRANCH  12  20
ATOM     13  C   UNL     1      -0.018   1.503   0.010  0.00  0.00    +0.067 C 
ATOM     14  C   UNL     1       0.002  -0.004   0.002  0.00  0.00    +0.059 A 
ATOM     15  C   UNL     1       0.008  -0.786  -1.093  0.00  0.00    +0.138 A 
ATOM     16  N   UNL     1       0.028  -2.108  -0.668  0.00  0.00    -0.213 N 
ATOM     17  C   UNL     1       0.033  -2.038   0.698  0.00  0.00    +0.196 A 
ATOM     18  N   UNL     1       0.024  -0.795   1.085  0.00  0.00    -0.225 NA
ATOM     19  S   UNL     1       0.058  -3.752   1.169  0.00  0.00    -0.021 S 
ATOM     20  C   UNL     1       0.060  -4.450  -0.474  0.00  0.00    +0.167 A 
ATOM     21  N   UNL     1       0.043  -3.382  -1.226  0.00  0.00    -0.150 NA
ENDBRANCH  12  20
ENDBRANCH   1  12
TORSDOF 3
