REMARK  Name = ZINC06195700
REMARK  10 active torsions:
REMARK  status: ('A' for Active; 'I' for Inactive)
REMARK    1  A    between atoms: C_1  and  C_2
REMARK    2  A    between atoms: C_5  and  C_41
REMARK    3  A    between atoms: C_6  and  N_8
REMARK    4  A    between atoms: C_13  and  C_15
REMARK    5  A    between atoms: C_13  and  C_29
REMARK    6  A    between atoms: C_13  and  N_74
REMARK    7  A    between atoms: C_19  and  O_27
REMARK    8  A    between atoms: O_27  and  C_28
REMARK    9  A    between atoms: N_33  and  C_34
REMARK   10  A    between atoms: C_34  and  C_35
REMARK                            x       y       z     vdW  Elec       q    Type
REMARK                         _______ _______ _______ _____ _____    ______ ____
ROOT
ATOM      1  C   UNL     1      -8.158   2.692   1.162  0.00  0.00    +0.039 C 
ENDROOT
BRANCH   1   2
ATOM      2  C   UNL     1      -8.854   1.446   0.678  0.00  0.00    +0.011 A 
ATOM      3  C   UNL     1      -9.626   1.494  -0.436  0.00  0.00    +0.017 A 
ATOM      4  C   UNL     1     -10.285   0.265  -0.883  0.00  0.00    +0.002 A 
ATOM      5  C   UNL     1     -11.089   0.253  -2.028  0.00  0.00    +0.055 A 
ATOM      6  C   UNL     1     -11.701  -0.921  -2.418  0.00  0.00    +0.121 A 
ATOM      7  C   UNL     1     -11.520  -2.088  -1.679  0.00  0.00    +0.047 A 
ATOM      8  C   UNL     1     -10.731  -2.088  -0.550  0.00  0.00    +0.030 A 
ATOM      9  C   UNL     1     -10.105  -0.916  -0.139  0.00  0.00    +0.049 A 
ATOM     10  N   UNL     1      -9.310  -0.896   0.989  0.00  0.00    -0.322 N 
ATOM     11  H   UNL     1      -9.187  -1.710   1.501  0.00  0.00    +0.169 HD
ATOM     12  C   UNL     1      -8.705   0.236   1.388  0.00  0.00    +0.251 A 
ATOM     13  O   UNL     1      -8.011   0.217   2.390  0.00  0.00    -0.268 OA
BRANCH   6  14
ATOM     14  O   UNL     1     -12.484  -0.939  -3.530  0.00  0.00    -0.495 OA
ATOM     15  C   UNL     1     -13.087  -2.187  -3.878  0.00  0.00    +0.277 C 
ENDBRANCH   6  14
ENDBRANCH   1   2
BRANCH   1  21
ATOM     16  N   UNL     1      -3.951   2.818   0.800  0.00  0.00    -0.333 N 
ATOM     17  C   UNL     1      -4.545   3.249   2.072  0.00  0.00    +0.086 C 
ATOM     18  C   UNL     1      -6.020   3.597   1.852  0.00  0.00    -0.058 C 
ATOM     19  C   UNL     1      -6.127   1.990   0.044  0.00  0.00    -0.058 C 
ATOM     20  C   UNL     1      -4.653   1.643   0.265  0.00  0.00    +0.086 C 
ATOM     21  N   UNL     1      -6.718   2.401   1.335  0.00  0.00    +0.391 N 
ATOM     22  H   UNL     1      -6.612   1.635   2.010  0.00  0.00    -0.080 HD
BRANCH  16  28
ATOM     23  C   UNL     1      -0.339   0.172   2.827  0.00  0.00    +0.044 C 
ATOM     24  C   UNL     1      -0.806   1.284   1.923  0.00  0.00    -0.049 A 
ATOM     25  C   UNL     1       0.118   2.052   1.239  0.00  0.00    +0.004 A 
ATOM     26  C   UNL     1      -0.305   3.074   0.409  0.00  0.00    +0.005 A 
ATOM     27  C   UNL     1      -1.655   3.330   0.261  0.00  0.00    -0.029 A 
ATOM     28  C   UNL     1      -2.586   2.561   0.947  0.00  0.00    +0.033 A 
ATOM     29  C   UNL     1      -2.156   1.532   1.776  0.00  0.00    +0.026 A 
ATOM     30  C   UNL     1      -2.116   4.444  -0.644  0.00  0.00    +0.045 C 
ENDBRANCH  16  28
ENDBRANCH   1  21
BRANCH   1  31
ATOM     31  C   UNL     1      -8.737   3.107   2.490  0.00  0.00    +0.143 A 
ATOM     32  N   UNL     1      -8.523   2.535   3.650  0.00  0.00    -0.115 NA
ATOM     33  N   UNL     1      -9.192   3.182   4.541  0.00  0.00    -0.023 NA
ATOM     34  N   UNL     1      -9.833   4.146   3.979  0.00  0.00    -0.044 NA
ATOM     35  N   UNL     1      -9.578   4.133   2.714  0.00  0.00    -0.228 N 
BRANCH  35  36
ATOM     36  C   UNL     1     -10.106   5.061   1.711  0.00  0.00    +0.178 C 
BRANCH  36  37
ATOM     37  C   UNL     1     -11.415   4.509   1.143  0.00  0.00    +0.140 C 
ATOM     38  C   UNL     1     -11.918   5.422   0.004  0.00  0.00    +0.035 C 
ATOM     39  C   UNL     1     -13.452   5.433   0.245  0.00  0.00    +0.031 C 
ATOM     40  C   UNL     1     -13.508   5.356   1.791  0.00  0.00    +0.160 C 
ATOM     41  O   UNL     1     -12.420   4.496   2.164  0.00  0.00    -0.375 OA
ENDBRANCH  36  37
ENDBRANCH  35  36
ENDBRANCH   1  31
TORSDOF 7
