REMARK  Name = ZINC20705593
REMARK  7 active torsions:
REMARK  status: ('A' for Active; 'I' for Inactive)
REMARK    1  A    between atoms: C_1  and  C_2
REMARK    2  A    between atoms: C_2  and  C_3
REMARK    3  A    between atoms: C_2  and  C_4
REMARK    4  A    between atoms: C_4  and  C_5
REMARK    5  A    between atoms: N_7  and  C_8
REMARK    6  A    between atoms: C_21  and  C_24
REMARK    7  A    between atoms: C_28  and  N_30
REMARK                            x       y       z     vdW  Elec       q    Type
REMARK                         _______ _______ _______ _____ _____    ______ ____
ROOT
ATOM      1  C   UNL     1      -1.582   2.301  -3.201  0.00  0.00    +0.034 A 
ATOM      2  C   UNL     1      -2.926   2.113  -2.908  0.00  0.00    +0.025 A 
ATOM      3  C   UNL     1      -3.309   1.715  -1.644  0.00  0.00    +0.025 A 
ATOM      4  C   UNL     1      -2.356   1.498  -0.656  0.00  0.00    +0.031 A 
ATOM      5  C   UNL     1      -1.010   1.692  -0.948  0.00  0.00    -0.018 A 
ATOM      6  C   UNL     1      -0.624   2.079  -2.221  0.00  0.00    +0.029 A 
ATOM      7  C   UNL     1      -0.020   1.409   0.114  0.00  0.00    +0.049 C 
ATOM      8  C   UNL     1       1.309   2.071   0.144  0.00  0.00    -0.023 C 
ATOM      9  C   UNL     1       1.681   2.219   1.410  0.00  0.00    -0.030 C 
ATOM     10  C   UNL     1       0.590   1.687   2.341  0.00  0.00    +0.033 C 
ATOM     11  C   UNL     1      -0.663   1.839   1.467  0.00  0.00    +0.029 C 
ATOM     12  C   UNL     1      -1.797   0.858   1.706  0.00  0.00    +0.105 C 
ATOM     13  N   UNL     1      -2.775   1.110   0.625  0.00  0.00    -0.336 N 
ATOM     14  H   UNL     1      -3.851   0.993   0.819  0.00  0.00    +0.147 HD
ENDROOT
BRANCH  12  15
ATOM     15  C   UNL     1      -2.429   1.111   3.050  0.00  0.00    -0.025 A 
ATOM     16  C   UNL     1      -3.339   2.141   3.203  0.00  0.00    +0.005 A 
ATOM     17  C   UNL     1      -3.923   2.370   4.435  0.00  0.00    +0.003 A 
ATOM     18  C   UNL     1      -3.590   1.576   5.516  0.00  0.00    +0.033 A 
ATOM     19  C   UNL     1      -2.676   0.549   5.365  0.00  0.00    +0.127 A 
ATOM     20  C   UNL     1      -2.096   0.317   4.131  0.00  0.00    +0.038 A 
BRANCH  19  21
ATOM     21  N   UNL     1      -2.319  -0.300   6.523  0.00  0.00    +0.056 N 
ATOM     22  O   UNL     1      -1.513  -1.204   6.389  0.00  0.00    -0.126 OA
ATOM     23  O   UNL     1      -2.830  -0.096   7.609  0.00  0.00    -0.126 OA
ENDBRANCH  19  21
ENDBRANCH  12  15
BRANCH   1  26
ATOM     24  C   UNL     1      -1.988   3.535  -5.197  0.00  0.00    +0.217 C 
ATOM     25  O   UNL     1      -2.992   3.995  -4.694  0.00  0.00    -0.275 OA
ATOM     26  N   UNL     1      -1.194   2.713  -4.484  0.00  0.00    -0.285 N 
ATOM     27  H   UNL     1      -0.240   2.365  -4.908  0.00  0.00    +0.155 HD
BRANCH  24  28
ATOM     28  C   UNL     1      -1.630   3.883  -6.619  0.00  0.00    +0.099 C 
BRANCH  28  30
ATOM     29  C   UNL     1      -2.660   6.152  -6.434  0.00  0.00    +0.008 C 
ATOM     30  C   UNL     1      -2.689   4.825  -7.195  0.00  0.00    -0.008 C 
ATOM     31  C   UNL     1      -2.394   5.079  -8.675  0.00  0.00    +0.008 C 
ENDBRANCH  28  30
ENDBRANCH  24  28
ENDBRANCH   1  26
TORSDOF 5
