REMARK  Name = ZINC41223705
REMARK  4 active torsions:
REMARK  status: ('A' for Active; 'I' for Inactive)
REMARK    1  A    between atoms: C_5  and  C_6
REMARK    2  A    between atoms: N_7  and  N_8
REMARK    3  A    between atoms: C_9  and  C_11
REMARK    4  A    between atoms: C_11  and  C_12
REMARK                            x       y       z     vdW  Elec       q    Type
REMARK                         _______ _______ _______ _____ _____    ______ ____
ROOT
ATOM      1  N   UNL     1      -2.142  -3.011   0.006  0.00  0.00    -0.207 N 
ATOM      2  C   UNL     1      -1.984  -4.350  -0.002  0.00  0.00    +0.238 C 
ATOM      3  O   UNL     1      -0.869  -4.829  -0.016  0.00  0.00    -0.274 OA
ATOM      4  H   UNL     1      -3.033  -2.628   0.017  0.00  0.00    +0.177 HD
ENDROOT
BRANCH   1   6
ATOM      5  C   UNL     1      -1.172  -0.881   0.009  0.00  0.00    +0.176 C 
ATOM      6  N   UNL     1      -1.019  -2.173   0.000  0.00  0.00    -0.185 NA
BRANCH   5  11
ATOM      7  C   UNL     1      -0.016   1.361   0.009  0.00  0.00    +0.052 A 
ATOM      8  C   UNL     1       1.325   1.784  -0.001  0.00  0.00    +0.057 A 
ATOM      9  C   UNL     1       2.092   0.672  -0.014  0.00  0.00    +0.171 A 
ATOM     10  O   UNL     1       1.290  -0.405  -0.012  0.00  0.00    -0.447 OA
ATOM     11  C   UNL     1       0.002  -0.004   0.002  0.00  0.00    +0.149 A 
ATOM     12 BR   UNL     1       3.982   0.638  -0.033  0.00  0.00    -0.008 Br
ENDBRANCH   5  11
ENDBRANCH   1   6
BRANCH   2  13
ATOM     13  C   UNL     1      -3.191  -5.251   0.004  0.00  0.00    +0.153 C 
BRANCH  13  14
ATOM     14  C   UNL     1      -2.744  -6.690  -0.008  0.00  0.00    +0.059 A 
ATOM     15  C   UNL     1      -3.161  -7.569   0.935  0.00  0.00    +0.072 A 
ATOM     16  S   UNL     1      -2.323  -9.053   0.403  0.00  0.00    -0.061 S 
ATOM     17  C   UNL     1      -1.541  -8.409  -0.942  0.00  0.00    +0.156 A 
ATOM     18  N   UNL     1      -1.931  -7.152  -0.942  0.00  0.00    -0.230 NA
ATOM     19  N   UNL     1      -0.697  -9.050  -1.835  0.00  0.00    -0.338 N 
ATOM     20  H   UNL     1      -0.494  -9.991  -1.721  0.00  0.00    +0.144 HD
ATOM     21  H   UNL     1      -0.309  -8.556  -2.575  0.00  0.00    +0.144 HD
ENDBRANCH  13  14
ENDBRANCH   2  13
TORSDOF 4
