REMARK  Name = ZINC03550809
REMARK  9 active torsions:
REMARK  status: ('A' for Active; 'I' for Inactive)
REMARK    1  A    between atoms: C_1  and  C_2
REMARK    2  A    between atoms: C_2  and  C_3
REMARK    3  A    between atoms: C_2  and  N_4
REMARK    4  A    between atoms: C_8  and  C_10
REMARK    5  A    between atoms: C_10  and  S_11
REMARK    6  A    between atoms: S_11  and  C_12
REMARK    7  A    between atoms: C_15  and  C_17
REMARK    8  A    between atoms: C_20  and  O_23
REMARK    9  A    between atoms: O_23  and  C_24
REMARK                            x       y       z     vdW  Elec       q    Type
REMARK                         _______ _______ _______ _____ _____    ______ ____
ROOT
ATOM      1  S   UNL     1      -1.025   3.863   0.028  0.00  0.00    -0.056 S 
ENDROOT
BRANCH   1   2
ATOM      2  C   UNL     1      -2.683   4.458   0.039  0.00  0.00    +0.278 A 
ATOM      3  N   UNL     1      -3.772   3.725   0.041  0.00  0.00    -0.101 NA
ATOM      4  N   UNL     1      -4.805   4.492   0.050  0.00  0.00    -0.106 NA
ATOM      5  C   UNL     1      -4.418   5.744   0.054  0.00  0.00    +0.249 A 
ATOM      6  O   UNL     1      -3.066   5.750   0.053  0.00  0.00    -0.411 OA
BRANCH   5   7
ATOM      7  C   UNL     1      -5.297   6.931   0.064  0.00  0.00    +0.039 A 
ATOM      8  C   UNL     1      -4.743   8.213   0.074  0.00  0.00    +0.017 A 
ATOM      9  C   UNL     1      -5.567   9.318   0.078  0.00  0.00    +0.046 A 
ATOM     10  C   UNL     1      -6.947   9.158   0.083  0.00  0.00    +0.120 A 
ATOM     11  C   UNL     1      -7.502   7.885   0.079  0.00  0.00    +0.046 A 
ATOM     12  C   UNL     1      -6.685   6.775   0.070  0.00  0.00    +0.017 A 
BRANCH  10  13
ATOM     13  O   UNL     1      -7.755  10.249   0.093  0.00  0.00    -0.495 OA
ATOM     14  C   UNL     1      -7.118  11.529   0.097  0.00  0.00    +0.277 C 
ENDBRANCH  10  13
ENDBRANCH   5   7
ENDBRANCH   1   2
BRANCH   1  15
ATOM     15  C   UNL     1      -1.331   2.079   0.020  0.00  0.00    +0.175 C 
BRANCH  15  20
ATOM     16  N   UNL     1       1.196  -2.010  -0.020  0.00  0.00    -0.297 N 
ATOM     17  C   UNL     1       1.178  -0.662  -0.013  0.00  0.00    +0.306 C 
ATOM     18  O   UNL     1       2.222  -0.040  -0.019  0.00  0.00    -0.252 OA
ATOM     19  N   UNL     1       0.002  -0.004   0.002  0.00  0.00    -0.239 N 
ATOM     20  C   UNL     1      -0.016   1.344   0.009  0.00  0.00    +0.231 C 
ATOM     21  O   UNL     1       1.025   1.964   0.003  0.00  0.00    -0.274 OA
ATOM     22  H   UNL     1       0.363  -2.506  -0.015  0.00  0.00    +0.151 HD
ATOM     23  H   UNL     1      -0.831  -0.500   0.007  0.00  0.00    +0.159 HD
BRANCH  16  25
ATOM     24  C   UNL     1       2.995  -2.872   1.395  0.00  0.00    +0.027 C 
ATOM     25  C   UNL     1       2.475  -2.725  -0.036  0.00  0.00    +0.068 C 
ATOM     26  C   UNL     1       2.276  -4.111  -0.651  0.00  0.00    +0.027 C 
ENDBRANCH  16  25
ENDBRANCH  15  20
ENDBRANCH   1  15
TORSDOF 6
