REMARK  Name = ZINC04503315
REMARK  8 active torsions:
REMARK  status: ('A' for Active; 'I' for Inactive)
REMARK    1  A    between atoms: C_1  and  O_2
REMARK    2  A    between atoms: O_2  and  C_3
REMARK    3  A    between atoms: C_5  and  C_12
REMARK    4  A    between atoms: C_7  and  O_10
REMARK    5  A    between atoms: C_8  and  O_9
REMARK    6  A    between atoms: O_10  and  C_11
REMARK    7  A    between atoms: N_13  and  N_14
REMARK    8  A    between atoms: C_15  and  C_17
REMARK                            x       y       z     vdW  Elec       q    Type
REMARK                         _______ _______ _______ _____ _____    ______ ____
ROOT
ATOM      1  C   UNL     1       3.341  10.168   0.023  0.00  0.00    +0.138 C 
ATOM      2  N   UNL     1       2.222   9.510   0.030  0.00  0.00    -0.187 NA
ENDROOT
BRANCH   1   5
ATOM      3  C   UNL     1       4.517  13.736   0.030  0.00  0.00    +0.166 A 
ATOM      4  C   UNL     1       4.532  12.352   0.023  0.00  0.00    +0.059 A 
ATOM      5  C   UNL     1       3.329  11.643   0.031  0.00  0.00    +0.002 A 
ATOM      6  C   UNL     1       2.114  12.332   0.041  0.00  0.00    +0.059 A 
ATOM      7  C   UNL     1       2.106  13.716   0.053  0.00  0.00    +0.166 A 
ATOM      8  C   UNL     1       3.306  14.420   0.045  0.00  0.00    +0.201 A 
BRANCH   3  10
ATOM      9  C   UNL     1       6.894  13.661   0.005  0.00  0.00    +0.277 C 
ATOM     10  O   UNL     1       5.688  14.428   0.021  0.00  0.00    -0.491 OA
ENDBRANCH   3  10
BRANCH   8  11
ATOM     11  O   UNL     1       3.295  15.780   0.051  0.00  0.00    -0.501 OA
ATOM     12  H   UNL     1       3.283  16.178  -0.830  0.00  0.00    +0.292 HD
ENDBRANCH   8  11
BRANCH   7  13
ATOM     13  O   UNL     1       0.924  14.388   0.068  0.00  0.00    -0.491 OA
ATOM     14  C   UNL     1      -0.270  13.602   0.076  0.00  0.00    +0.277 C 
ENDBRANCH   7  13
ENDBRANCH   1   5
BRANCH   2  15
ATOM     15  N   UNL     1       2.233   8.109   0.023  0.00  0.00    -0.203 N 
ATOM     16  C   UNL     1       1.072   7.426   0.031  0.00  0.00    +0.263 C 
ATOM     17  O   UNL     1       0.014   8.025   0.044  0.00  0.00    -0.268 OA
ATOM     18  H   UNL     1       3.078   7.631   0.012  0.00  0.00    +0.178 HD
BRANCH  16  19
ATOM     19  C   UNL     1       1.084   5.949   0.023  0.00  0.00    +0.039 A 
ATOM     20  C   UNL     1       2.311   5.261   0.007  0.00  0.00    +0.014 A 
ATOM     21  C   UNL     1       2.348   3.904   0.000  0.00  0.00    +0.009 A 
ATOM     22  C   UNL     1       1.150   3.167   0.008  0.00  0.00    -0.018 A 
ATOM     23  C   UNL     1       1.163   1.762   0.000  0.00  0.00    +0.008 A 
ATOM     24  C   UNL     1      -0.013   1.076   0.008  0.00  0.00    +0.001 A 
ATOM     25  C   UNL     1      -1.235   1.745   0.018  0.00  0.00    +0.001 A 
ATOM     26  C   UNL     1      -1.288   3.105   0.031  0.00  0.00    +0.008 A 
ATOM     27  C   UNL     1      -0.094   3.849   0.024  0.00  0.00    -0.017 A 
ATOM     28  C   UNL     1      -0.113   5.251   0.031  0.00  0.00    +0.021 A 
ENDBRANCH  16  19
ENDBRANCH   2  15
TORSDOF 6
