REMARK  Name = ZINC05818568
REMARK  5 active torsions:
REMARK  status: ('A' for Active; 'I' for Inactive)
REMARK    1  A    between atoms: C_1  and  C_2
REMARK    2  A    between atoms: C_10  and  C_12
REMARK    3  A    between atoms: C_14  and  C_17
REMARK    4  A    between atoms: C_17  and  C_18
REMARK    5  A    between atoms: C_17  and  C_19
REMARK                            x       y       z     vdW  Elec       q    Type
REMARK                         _______ _______ _______ _____ _____    ______ ____
ROOT
ATOM      1  C   UNL     1      -0.018   1.503   0.010  0.00  0.00    +0.046 C 
ATOM      2  C   UNL     1       0.002  -0.004   0.002  0.00  0.00    -0.026 A 
ATOM      3  C   UNL     1       0.006  -0.688  -1.194  0.00  0.00    +0.005 A 
ATOM      4  C   UNL     1       0.025  -2.075  -1.216  0.00  0.00    +0.001 A 
ATOM      5  C   UNL     1       0.041  -2.788  -0.051  0.00  0.00    +0.010 A 
ATOM      6  C   UNL     1       0.037  -2.115   1.179  0.00  0.00    -0.001 A 
ATOM      7  C   UNL     1       0.023  -0.708   1.203  0.00  0.00    +0.052 A 
ATOM      8  N   UNL     1       0.024  -0.030   2.404  0.00  0.00    -0.321 N 
ATOM      9  C   UNL     1       0.045  -0.700   3.572  0.00  0.00    +0.260 A 
ATOM     10  C   UNL     1       0.066  -2.165   3.581  0.00  0.00    +0.087 A 
ATOM     11  C   UNL     1       0.053  -2.845   2.394  0.00  0.00    +0.027 A 
ATOM     12  O   UNL     1       0.046  -0.086   4.624  0.00  0.00    -0.267 OA
ATOM     13  H   UNL     1       0.010   0.940   2.408  0.00  0.00    +0.169 HD
ENDROOT
BRANCH  10  14
ATOM     14  C   UNL     1       0.089  -2.904   4.864  0.00  0.00    +0.207 A 
ATOM     15  N   UNL     1       0.087  -2.349   6.090  0.00  0.00    -0.191 NA
ATOM     16  C   UNL     1       0.111  -3.279   7.001  0.00  0.00    +0.230 A 
ATOM     17  O   UNL     1       0.128  -4.471   6.391  0.00  0.00    -0.337 OA
ATOM     18  N   UNL     1       0.108  -4.209   4.996  0.00  0.00    -0.056 NA
BRANCH  16  19
ATOM     19  C   UNL     1       0.117  -3.053   8.491  0.00  0.00    +0.072 C 
ATOM     20  C   UNL     1      -1.116  -3.712   9.113  0.00  0.00    +0.017 C 
ATOM     21  C   UNL     1       1.382  -3.666   9.095  0.00  0.00    +0.017 C 
ENDBRANCH  16  19
ENDBRANCH  10  14
TORSDOF 2
