REMARK  Name = ZINC52842997
REMARK  8 active torsions:
REMARK  status: ('A' for Active; 'I' for Inactive)
REMARK    1  A    between atoms: C_1  and  C_2
REMARK    2  A    between atoms: N_8  and  C_9
REMARK    3  A    between atoms: C_9  and  C_10
REMARK    4  A    between atoms: C_10  and  C_11
REMARK    5  A    between atoms: C_11  and  N_12
REMARK    6  A    between atoms: C_13  and  C_15
REMARK    7  A    between atoms: C_15  and  C_16
REMARK    8  A    between atoms: C_16  and  N_17
REMARK                            x       y       z     vdW  Elec       q    Type
REMARK                         _______ _______ _______ _____ _____    ______ ____
ROOT
ATOM      1  N   UNL     1       0.983  -0.177   6.069  0.00  0.00    -0.315 N 
ATOM      2  C   UNL     1       0.579   0.209   7.295  0.00  0.00    +0.215 C 
ATOM      3  O   UNL     1      -0.427   0.876   7.421  0.00  0.00    -0.276 OA
ATOM      4  H   UNL     1       1.787  -0.710   5.968  0.00  0.00    +0.149 HD
ENDROOT
BRANCH   1   5
ATOM      5  C   UNL     1       0.207   0.209   4.887  0.00  0.00    +0.102 C 
BRANCH   5   6
ATOM      6  C   UNL     1       0.877  -0.353   3.631  0.00  0.00    +0.000 C 
BRANCH   6   7
ATOM      7  C   UNL     1       0.067   0.050   2.397  0.00  0.00    -0.077 C 
BRANCH   7  14
ATOM      8  C   UNL     1      -0.019   1.526   0.010  0.00  0.00    -0.013 C 
ATOM      9  C   UNL     1       0.002  -0.004   0.002  0.00  0.00    -0.072 C 
ATOM     10  C   UNL     1       0.717  -0.497  -1.258  0.00  0.00    -0.016 C 
ATOM     11  C   UNL     1       0.735  -2.028  -1.262  0.00  0.00    -0.003 C 
ATOM     12  C   UNL     1       1.410  -2.524   0.020  0.00  0.00    -0.019 C 
ATOM     13  C   UNL     1       0.669  -1.956   1.232  0.00  0.00    -0.078 C 
ATOM     14  N   UNL     1       0.711  -0.490   1.192  0.00  0.00    +0.381 N 
ATOM     15  H   UNL     1       1.671  -0.182   1.159  0.00  0.00    -0.081 HD
ENDBRANCH   7  14
ENDBRANCH   6   7
ENDBRANCH   5   6
ENDBRANCH   1   5
BRANCH   2  16
ATOM     16  C   UNL     1       1.377  -0.187   8.511  0.00  0.00    +0.115 C 
BRANCH  16  17
ATOM     17  C   UNL     1       0.707   0.375   9.766  0.00  0.00    +0.127 C 
BRANCH  17  18
ATOM     18  N   UNL     1       1.482  -0.011  10.948  0.00  0.00    -0.224 N 
ATOM     19  C   UNL     1       1.281  -1.145  11.650  0.00  0.00    +0.247 C 
ATOM     20  O   UNL     1       0.456  -2.007  11.432  0.00  0.00    -0.273 OA
ATOM     21  C   UNL     1       2.301  -1.116  12.765  0.00  0.00    +0.113 C 
ATOM     22  C   UNL     1       1.605  -1.106  14.121  0.00  0.00    +0.035 C 
ATOM     23  C   UNL     1       2.655  -1.046  15.235  0.00  0.00    +0.003 C 
ATOM     24  C   UNL     1       3.581  -2.259  15.127  0.00  0.00    +0.000 C 
ATOM     25  C   UNL     1       4.289  -2.242  13.770  0.00  0.00    +0.003 C 
ATOM     26  C   UNL     1       3.247  -2.307  12.651  0.00  0.00    +0.035 C 
ATOM     27  N   UNL     1       3.029   0.141  12.550  0.00  0.00    -0.285 N 
ATOM     28  C   UNL     1       2.482   0.716  11.461  0.00  0.00    +0.309 C 
ATOM     29  O   UNL     1       2.853   1.777  10.999  0.00  0.00    -0.252 OA
ATOM     30  H   UNL     1       3.760   0.487  13.084  0.00  0.00    +0.151 HD
ENDBRANCH  17  18
ENDBRANCH  16  17
ENDBRANCH   2  16
TORSDOF 7
