REMARK  Name = ZINC37146531
REMARK  8 active torsions:
REMARK  status: ('A' for Active; 'I' for Inactive)
REMARK    1  A    between atoms: C_1  and  C_2
REMARK    2  A    between atoms: C_2  and  C_3
REMARK    3  A    between atoms: C_7  and  C_24
REMARK    4  A    between atoms: C_9  and  N_12
REMARK    5  A    between atoms: C_16  and  C_19
REMARK    6  A    between atoms: C_19  and  O_21
REMARK    7  A    between atoms: O_21  and  C_22
REMARK    8  A    between atoms: C_22  and  C_23
REMARK                            x       y       z     vdW  Elec       q    Type
REMARK                         _______ _______ _______ _____ _____    ______ ____
ROOT
ATOM      1  N   UNL     1       1.312  -4.010   2.593  0.00  0.00    +0.383 N 
ATOM      2  C   UNL     1      -0.097  -4.417   2.654  0.00  0.00    -0.078 C 
ATOM      3  C   UNL     1      -0.193  -5.944   2.630  0.00  0.00    -0.018 C 
ATOM      4  C   UNL     1       0.558  -6.516   3.835  0.00  0.00    +0.011 C 
ATOM      5  C   UNL     1       2.008  -6.025   3.801  0.00  0.00    +0.081 C 
ATOM      6  C   UNL     1       2.022  -4.495   3.783  0.00  0.00    -0.064 C 
ATOM      7  H   UNL     1       1.738  -4.401   1.766  0.00  0.00    -0.081 HD
ENDROOT
BRANCH   1  12
ATOM      8  C   UNL     1       0.742  -0.511   1.242  0.00  0.00    -0.013 C 
ATOM      9  C   UNL     1       2.210  -0.086   1.169  0.00  0.00    +0.004 C 
ATOM     10  C   UNL     1       2.950  -0.593   2.408  0.00  0.00    +0.017 C 
ATOM     11  C   UNL     1       2.863  -2.119   2.465  0.00  0.00    +0.078 C 
ATOM     12  C   UNL     1       1.395  -2.544   2.538  0.00  0.00    -0.051 C 
ATOM     13  C   UNL     1       0.655  -2.037   1.299  0.00  0.00    -0.011 C 
BRANCH   8  15
ATOM     14  C   UNL     1      -0.019   1.526   0.010  0.00  0.00    +0.004 C 
ATOM     15  C   UNL     1       0.002  -0.004   0.002  0.00  0.00    -0.000 C 
ENDBRANCH   8  15
BRANCH  11  16
ATOM     16  C   UNL     1       3.480  -2.691   1.257  0.00  0.00    +0.064 C 
ATOM     17  N   UNL     1       3.957  -3.132   0.325  0.00  0.00    -0.196 NA
ENDBRANCH  11  16
ENDBRANCH   1  12
BRANCH   5  18
ATOM     18  C   UNL     1       2.736  -6.520   5.024  0.00  0.00    +0.308 C 
ATOM     19  O   UNL     1       3.221  -5.731   5.800  0.00  0.00    -0.251 OA
BRANCH  18  20
ATOM     20  O   UNL     1       2.846  -7.839   5.251  0.00  0.00    -0.465 OA
BRANCH  20  21
ATOM     21  C   UNL     1       3.550  -8.238   6.430  0.00  0.00    +0.229 C 
ATOM     22  C   UNL     1       3.571  -9.765   6.518  0.00  0.00    +0.048 C 
ENDBRANCH  20  21
ENDBRANCH  18  20
ENDBRANCH   5  18
TORSDOF 6
