REMARK  Name = ZINC12113557
REMARK  5 active torsions:
REMARK  status: ('A' for Active; 'I' for Inactive)
REMARK    1  A    between atoms: C_1  and  C_2
REMARK    2  A    between atoms: N_10  and  C_16
REMARK    3  A    between atoms: N_14  and  C_15
REMARK    4  A    between atoms: C_16  and  C_17
REMARK    5  A    between atoms: N_22  and  C_25
REMARK                            x       y       z     vdW  Elec       q    Type
REMARK                         _______ _______ _______ _____ _____    ______ ____
ROOT
ATOM      1  C   UNL     1      -2.511   3.774   0.048  0.00  0.00    +0.243 C 
ENDROOT
BRANCH   1  11
ATOM      2  C   UNL     1       6.724   0.736  -0.060  0.00  0.00    +0.051 C 
ATOM      3  C   UNL     1       5.278   1.157  -0.043  0.00  0.00    -0.011 A 
ATOM      4  C   UNL     1       4.762   2.404  -0.032  0.00  0.00    +0.037 A 
ATOM      5  C   UNL     1       3.371   2.591  -0.017  0.00  0.00    +0.057 A 
ATOM      6  C   UNL     1       2.603   1.427  -0.016  0.00  0.00    +0.047 A 
ATOM      7  S   UNL     1       3.816   0.134  -0.035  0.00  0.00    -0.091 S 
ATOM      8  C   UNL     1       1.206   1.797   0.000  0.00  0.00    +0.039 A 
ATOM      9  C   UNL     1      -0.013   1.076   0.008  0.00  0.00    +0.144 A 
ATOM     10  N   UNL     1      -1.151   1.708   0.017  0.00  0.00    -0.175 NA
ATOM     11  N   UNL     1      -1.208   3.105   0.031  0.00  0.00    -0.219 N 
ATOM     12  C   UNL     1      -0.081   3.845   0.024  0.00  0.00    +0.292 A 
ATOM     13  O   UNL     1      -0.145   5.064   0.031  0.00  0.00    -0.264 OA
ATOM     14  C   UNL     1       1.173   3.198   0.008  0.00  0.00    +0.119 A 
ATOM     15  N   UNL     1       2.467   3.658  -0.002  0.00  0.00    -0.338 N 
ATOM     16  C   UNL     1       2.849   5.072   0.002  0.00  0.00    +0.149 C 
ENDBRANCH   1  11
BRANCH   1  17
ATOM     17  C   UNL     1      -2.972   4.012  -1.367  0.00  0.00    +0.237 C 
ATOM     18  O   UNL     1      -2.280   3.657  -2.298  0.00  0.00    -0.274 OA
ATOM     19  N   UNL     1      -4.153   4.619  -1.598  0.00  0.00    -0.297 N 
ATOM     20  C   UNL     1      -5.010   5.051  -0.484  0.00  0.00    +0.126 C 
ATOM     21  C   UNL     1      -5.386   6.524  -0.709  0.00  0.00    +0.124 C 
ATOM     22  N   UNL     1      -5.981   6.674  -2.044  0.00  0.00    -0.327 N 
ATOM     23  C   UNL     1      -5.016   6.335  -3.098  0.00  0.00    +0.124 C 
ATOM     24  C   UNL     1      -4.622   4.860  -2.971  0.00  0.00    +0.126 C 
BRANCH  22  25
ATOM     25  C   UNL     1      -6.489   7.964  -2.224  0.00  0.00    +0.030 A 
ATOM     26  C   UNL     1      -6.058   8.737  -3.295  0.00  0.00    +0.026 A 
ATOM     27  C   UNL     1      -6.565  10.009  -3.474  0.00  0.00    +0.040 A 
ATOM     28  C   UNL     1      -7.493  10.518  -2.582  0.00  0.00    +0.124 A 
ATOM     29  C   UNL     1      -7.919   9.752  -1.510  0.00  0.00    +0.040 A 
ATOM     30  C   UNL     1      -7.420   8.476  -1.330  0.00  0.00    +0.026 A 
ATOM     31  F   UNL     1      -7.983  11.765  -2.756  0.00  0.00    -0.205 F 
ENDBRANCH  22  25
ENDBRANCH   1  17
TORSDOF 3
