REMARK  Name = ZINC00635020
REMARK  9 active torsions:
REMARK  status: ('A' for Active; 'I' for Inactive)
REMARK    1  A    between atoms: C_1  and  C_2
REMARK    2  A    between atoms: C_2  and  O_3
REMARK    3  A    between atoms: O_3  and  C_4
REMARK    4  A    between atoms: C_4  and  C_6
REMARK    5  A    between atoms: C_7  and  C_27
REMARK    6  A    between atoms: C_11  and  C_13
REMARK    7  A    between atoms: C_17  and  O_19
REMARK    8  A    between atoms: C_23  and  C_25
REMARK    9  A    between atoms: C_23  and  C_26
REMARK                            x       y       z     vdW  Elec       q    Type
REMARK                         _______ _______ _______ _____ _____    ______ ____
ROOT
ATOM      1  C   UNL     1      -0.748   5.826   1.285  0.00  0.00    +0.065 C 
ATOM      2  C   UNL     1      -2.015   6.273   1.271  0.00  0.00    +0.016 C 
ATOM      3  N   UNL     1      -2.723   6.313   0.102  0.00  0.00    -0.321 N 
ATOM      4  C   UNL     1      -2.077   6.291  -1.105  0.00  0.00    +0.016 C 
ATOM      5  C   UNL     1      -0.808   5.840  -1.194  0.00  0.00    +0.024 C 
ATOM      6  C   UNL     1      -0.076   5.351   0.030  0.00  0.00    +0.092 C 
ATOM      7  C   UNL     1      -0.133   5.811  -2.428  0.00  0.00    +0.162 C 
ATOM      8  O   UNL     1       1.014   5.414  -2.471  0.00  0.00    -0.292 OA
ATOM      9  C   UNL     1      -0.807   6.264  -3.694  0.00  0.00    +0.086 C 
ATOM     10  C   UNL     1      -2.317   6.037  -3.564  0.00  0.00    -0.023 C 
ATOM     11  C   UNL     1      -2.815   6.784  -2.325  0.00  0.00    +0.058 C 
ATOM     12  C   UNL     1      -2.601   4.541  -3.410  0.00  0.00    +0.011 C 
ATOM     13  C   UNL     1      -3.031   6.571  -4.807  0.00  0.00    +0.011 C 
ATOM     14  C   UNL     1      -2.660   6.733   2.553  0.00  0.00    +0.061 C 
ATOM     15  H   UNL     1      -3.821   6.363   0.126  0.00  0.00    +0.152 HD
ENDROOT
BRANCH   6  16
ATOM     16  C   UNL     1      -0.051   3.844   0.022  0.00  0.00    -0.032 A 
ATOM     17  C   UNL     1      -1.237   3.133   0.030  0.00  0.00    +0.005 A 
ATOM     18  C   UNL     1      -1.218   1.751   0.017  0.00  0.00    +0.004 A 
ATOM     19  C   UNL     1      -0.013   1.076   0.008  0.00  0.00    +0.045 A 
ATOM     20  C   UNL     1       1.179   1.786   0.000  0.00  0.00    +0.117 A 
ATOM     21  C   UNL     1       1.157   3.174   0.008  0.00  0.00    +0.050 A 
BRANCH  20  22
ATOM     22  O   UNL     1       2.366   1.125  -0.014  0.00  0.00    -0.507 OA
ATOM     23  H   UNL     1       3.310   1.689  -0.020  0.00  0.00    +0.292 HD
ENDBRANCH  20  22
ENDBRANCH   6  16
BRANCH   1  24
ATOM     24  C   UNL     1      -0.033   5.802   2.506  0.00  0.00    +0.338 C 
ATOM     25  O   UNL     1      -0.567   6.185   3.530  0.00  0.00    -0.245 OA
BRANCH  24  26
ATOM     26  O   UNL     1       1.240   5.355   2.534  0.00  0.00    -0.462 OA
BRANCH  26  28
ATOM     27  C   UNL     1       3.324   4.823   3.635  0.00  0.00    +0.048 C 
ATOM     28  C   UNL     1       1.901   5.360   3.801  0.00  0.00    +0.229 C 
ENDBRANCH  26  28
ENDBRANCH  24  26
ENDBRANCH   1  24
TORSDOF 5
