REMARK  Name = ZINC10999488
REMARK  6 active torsions:
REMARK  status: ('A' for Active; 'I' for Inactive)
REMARK    1  A    between atoms: C_1  and  C_2
REMARK    2  A    between atoms: C_4  and  C_25
REMARK    3  A    between atoms: C_6  and  C_8
REMARK    4  A    between atoms: N_10  and  C_11
REMARK    5  A    between atoms: C_14  and  S_17
REMARK    6  A    between atoms: S_17  and  N_20
REMARK                            x       y       z     vdW  Elec       q    Type
REMARK                         _______ _______ _______ _____ _____    ______ ____
ROOT
ATOM      1  C   UNL     1      -2.562   4.100   0.127  0.00  0.00    +0.034 A 
ATOM      2  C   UNL     1      -3.724   3.345   0.218  0.00  0.00    +0.025 A 
ATOM      3  C   UNL     1      -4.949   3.976   0.322  0.00  0.00    +0.030 A 
ATOM      4  C   UNL     1      -5.018   5.357   0.323  0.00  0.00    +0.109 A 
ATOM      5  C   UNL     1      -3.863   6.111   0.227  0.00  0.00    +0.030 A 
ATOM      6  C   UNL     1      -2.635   5.487   0.129  0.00  0.00    +0.025 A 
ENDROOT
BRANCH   1   9
ATOM      7  C   UNL     1      -0.234   4.011   0.610  0.00  0.00    +0.248 C 
ATOM      8  O   UNL     1      -0.317   5.096   1.150  0.00  0.00    -0.270 OA
ATOM      9  N   UNL     1      -1.320   3.464   0.027  0.00  0.00    -0.282 N 
ATOM     10  H   UNL     1      -1.240   2.630  -0.462  0.00  0.00    +0.155 HD
BRANCH   7  16
ATOM     11  C   UNL     1       2.463   0.020  -0.693  0.00  0.00    +0.044 C 
ATOM     12  C   UNL     1       2.357   1.369  -0.029  0.00  0.00    -0.049 A 
ATOM     13  C   UNL     1       3.470   1.933   0.570  0.00  0.00    +0.006 A 
ATOM     14  C   UNL     1       3.381   3.171   1.181  0.00  0.00    -0.049 A 
ATOM     15  C   UNL     1       2.182   3.852   1.196  0.00  0.00    +0.016 A 
ATOM     16  C   UNL     1       1.056   3.289   0.593  0.00  0.00    +0.038 A 
ATOM     17  C   UNL     1       1.152   2.039  -0.021  0.00  0.00    +0.016 A 
ATOM     18  C   UNL     1       4.598   3.777   1.832  0.00  0.00    +0.044 C 
ENDBRANCH   7  16
ENDBRANCH   1   9
BRANCH   4  19
ATOM     19  S   UNL     1      -6.583   6.158   0.448  0.00  0.00    +0.073 S 
ATOM     20  O   UNL     1      -7.463   5.235   1.075  0.00  0.00    -0.150 OA
ATOM     21  O   UNL     1      -6.335   7.454   0.977  0.00  0.00    -0.150 OA
BRANCH  19  22
ATOM     22  N   UNL     1      -7.146   6.376  -1.094  0.00  0.00    -0.205 N 
ATOM     23  C   UNL     1      -7.452   5.290  -1.871  0.00  0.00    +0.088 C 
ATOM     24  C   UNL     1      -7.741   3.118  -2.536  0.00  0.00    +0.114 C 
ATOM     25  C   UNL     1      -7.761   3.942  -3.845  0.00  0.00    +0.028 C 
ATOM     26  C   UNL     1      -7.978   5.372  -3.288  0.00  0.00    +0.072 C 
ATOM     27  H   UNL     1      -7.259   7.273  -1.447  0.00  0.00    +0.175 HD
ATOM     28  N   UNL     1      -7.330   4.062  -1.475  0.00  0.00    -0.375 N 
ATOM     29  H   UNL     1      -6.993   3.781  -0.546  0.00  0.00    +0.161 HD
ENDBRANCH  19  22
ENDBRANCH   4  19
TORSDOF 4
