REMARK  Name = ZINC59365268
REMARK  7 active torsions:
REMARK  status: ('A' for Active; 'I' for Inactive)
REMARK    1  A    between atoms: C_8  and  C_10
REMARK    2  A    between atoms: C_12  and  N_17
REMARK    3  A    between atoms: C_15  and  O_16
REMARK    4  A    between atoms: N_17  and  C_18
REMARK    5  A    between atoms: C_18  and  N_20
REMARK    6  A    between atoms: C_21  and  C_23
REMARK    7  A    between atoms: C_23  and  C_24
REMARK                            x       y       z     vdW  Elec       q    Type
REMARK                         _______ _______ _______ _____ _____    ______ ____
ROOT
ATOM      1  C   UNL     1       3.643  -3.361   0.196  0.00  0.00    +0.080 A 
ATOM      2  C   UNL     1       5.039  -3.350   0.195  0.00  0.00    +0.040 A 
ATOM      3  C   UNL     1       5.736  -4.514  -0.081  0.00  0.00    +0.034 A 
ATOM      4  C   UNL     1       5.048  -5.691  -0.356  0.00  0.00    +0.027 A 
ATOM      5  C   UNL     1       3.668  -5.708  -0.357  0.00  0.00    +0.048 A 
ATOM      6  C   UNL     1       2.958  -4.551  -0.077  0.00  0.00    +0.129 A 
ENDROOT
BRANCH   1  14
ATOM      7  C   UNL     1       0.025   1.261   1.295  0.00  0.00    +0.002 A 
ATOM      8  C   UNL     1       1.216   1.954   1.449  0.00  0.00    +0.004 A 
ATOM      9  C   UNL     1       2.426   1.311   1.292  0.00  0.00    +0.048 A 
ATOM     10  C   UNL     1       2.455  -0.039   0.978  0.00  0.00    +0.156 A 
ATOM     11  C   UNL     1       1.251  -0.745   0.821  0.00  0.00    +0.110 A 
ATOM     12  C   UNL     1       0.034  -0.080   0.984  0.00  0.00    +0.031 A 
ATOM     13  N   UNL     1       1.587  -2.026   0.520  0.00  0.00    -0.209 NA
ATOM     14  C   UNL     1       2.893  -2.123   0.489  0.00  0.00    +0.232 A 
ATOM     15  O   UNL     1       3.450  -0.929   0.764  0.00  0.00    -0.435 OA
ENDBRANCH   1  14
BRANCH   6  16
ATOM     16  O   UNL     1       1.599  -4.570  -0.073  0.00  0.00    -0.506 OA
ATOM     17  H   UNL     1       1.201  -4.376  -0.932  0.00  0.00    +0.292 HD
ENDBRANCH   6  16
BRANCH   3  18
ATOM     18  N   UNL     1       7.137  -4.507  -0.082  0.00  0.00    -0.297 N 
ATOM     19  H   UNL     1       7.624  -4.984  -0.772  0.00  0.00    +0.154 HD
BRANCH  18  20
ATOM     20  C   UNL     1       7.808  -3.837   0.876  0.00  0.00    +0.141 C 
ATOM     21  S   UNL     1       6.955  -3.114   2.173  0.00  0.00    -0.018 S 
BRANCH  20  22
ATOM     22  N   UNL     1       9.150  -3.735   0.812  0.00  0.00    -0.267 N 
ATOM     23  C   UNL     1       9.822  -3.065   1.770  0.00  0.00    +0.223 C 
ATOM     24  O   UNL     1       9.217  -2.554   2.689  0.00  0.00    -0.275 OA
ATOM     25  H   UNL     1       9.634  -4.144   0.078  0.00  0.00    +0.157 HD
BRANCH  23  26
ATOM     26  C   UNL     1      11.323  -2.951   1.699  0.00  0.00    +0.131 C 
BRANCH  26  27
ATOM     27  C   UNL     1      11.823  -2.160   2.880  0.00  0.00    -0.039 A 
ATOM     28  C   UNL     1      11.940  -0.785   2.790  0.00  0.00    +0.005 A 
ATOM     29  C   UNL     1      12.399  -0.058   3.873  0.00  0.00    +0.020 A 
ATOM     30  C   UNL     1      12.740  -0.707   5.046  0.00  0.00    +0.041 A 
ATOM     31  C   UNL     1      12.623  -2.083   5.135  0.00  0.00    +0.020 A 
ATOM     32  C   UNL     1      12.158  -2.808   4.054  0.00  0.00    +0.005 A 
ATOM     33 CL   UNL     1      13.317   0.205   6.406  0.00  0.00    -0.084 Cl
ENDBRANCH  26  27
ENDBRANCH  23  26
ENDBRANCH  20  22
ENDBRANCH  18  20
ENDBRANCH   3  18
TORSDOF 7
