REMARK  Name = ZINC10431492
REMARK  9 active torsions:
REMARK  status: ('A' for Active; 'I' for Inactive)
REMARK    1  A    between atoms: C_1  and  C_2
REMARK    2  A    between atoms: C_2  and  N_3
REMARK    3  A    between atoms: N_3  and  C_4
REMARK    4  A    between atoms: N_3  and  C_12
REMARK    5  A    between atoms: C_4  and  C_5
REMARK    6  A    between atoms: N_9  and  C_10
REMARK    7  A    between atoms: C_13  and  N_28
REMARK    8  A    between atoms: N_14  and  C_21
REMARK    9  A    between atoms: C_21  and  C_22
REMARK                            x       y       z     vdW  Elec       q    Type
REMARK                         _______ _______ _______ _____ _____    ______ ____
ROOT
ATOM      1  C   UNL     1       5.433   0.374  -1.477  0.00  0.00    +0.134 A 
ATOM      2  C   UNL     1       5.915  -0.715  -2.152  0.00  0.00    +0.127 A 
ATOM      3  N   UNL     1       7.274  -0.933  -2.198  0.00  0.00    -0.276 N 
ATOM      4  C   UNL     1       8.120  -0.090  -1.578  0.00  0.00    +0.331 A 
ATOM      5  O   UNL     1       9.316  -0.301  -1.626  0.00  0.00    -0.246 OA
ATOM      6  N   UNL     1       7.663   0.982  -0.906  0.00  0.00    -0.273 N 
ATOM      7  H   UNL     1       8.310   1.595  -0.453  0.00  0.00    +0.173 HD
ATOM      8  C   UNL     1       6.341   1.238  -0.839  0.00  0.00    +0.277 A 
ATOM      9  O   UNL     1       5.936   2.212  -0.228  0.00  0.00    -0.266 OA
ENDROOT
BRANCH   2  10
ATOM     10  N   UNL     1       5.051  -1.581  -2.781  0.00  0.00    -0.343 N 
ATOM     11  H   UNL     1       4.095  -1.420  -2.749  0.00  0.00    +0.144 HD
ATOM     12  H   UNL     1       5.397  -2.351  -3.258  0.00  0.00    +0.144 HD
ENDBRANCH   2  10
BRANCH   1  13
ATOM     13  N   UNL     1       4.043   0.624  -1.418  0.00  0.00    -0.316 N 
BRANCH  13  15
ATOM     14  C   UNL     1       3.989   1.757  -3.589  0.00  0.00    +0.024 C 
ATOM     15  C   UNL     1       3.706   1.886  -2.091  0.00  0.00    +0.102 C 
ENDBRANCH  13  15
BRANCH  13  16
ATOM     16  C   UNL     1       3.566   0.625  -0.029  0.00  0.00    +0.179 C 
BRANCH  16  17
ATOM     17  C   UNL     1       2.060   0.647  -0.014  0.00  0.00    +0.128 A 
ATOM     18  N   UNL     1       1.283  -0.402  -0.012  0.00  0.00    -0.237 NA
ATOM     19  C   UNL     1       0.002  -0.004   0.002  0.00  0.00    +0.151 A 
ATOM     20  C   UNL     1      -0.016   1.344   0.009  0.00  0.00    +0.129 A 
ATOM     21  N   UNL     1       1.289   1.757  -0.001  0.00  0.00    -0.321 N 
ATOM     22  C   UNL     1       1.761   3.144   0.001  0.00  0.00    +0.151 C 
ATOM     23 CL   UNL     1      -1.424   2.360   0.022  0.00  0.00    -0.062 Cl
ENDBRANCH  16  17
ENDBRANCH  13  16
ENDBRANCH   1  13
BRANCH   3  24
ATOM     24  C   UNL     1       7.801  -2.093  -2.922  0.00  0.00    +0.163 C 
BRANCH  24  25
ATOM     25  C   UNL     1       7.891  -3.270  -1.986  0.00  0.00    -0.028 A 
ATOM     26  C   UNL     1       9.049  -3.492  -1.264  0.00  0.00    +0.005 A 
ATOM     27  C   UNL     1       9.130  -4.570  -0.401  0.00  0.00    +0.000 A 
ATOM     28  C   UNL     1       8.057  -5.431  -0.269  0.00  0.00    +0.000 A 
ATOM     29  C   UNL     1       6.901  -5.212  -0.995  0.00  0.00    +0.000 A 
ATOM     30  C   UNL     1       6.818  -4.132  -1.853  0.00  0.00    +0.005 A 
ENDBRANCH  24  25
ENDBRANCH   3  24
TORSDOF 7
