REMARK  Name = ZINC14922913
REMARK  8 active torsions:
REMARK  status: ('A' for Active; 'I' for Inactive)
REMARK    1  A    between atoms: C_1  and  O_2
REMARK    2  A    between atoms: O_2  and  C_3
REMARK    3  A    between atoms: C_8  and  O_9
REMARK    4  A    between atoms: O_9  and  C_10
REMARK    5  A    between atoms: C_10  and  C_11
REMARK    6  A    between atoms: N_13  and  N_14
REMARK    7  A    between atoms: C_15  and  C_16
REMARK    8  A    between atoms: C_19  and  N_21
REMARK                            x       y       z     vdW  Elec       q    Type
REMARK                         _______ _______ _______ _____ _____    ______ ____
ROOT
ATOM      1  C   UNL     1       5.005   5.557  -0.017  0.00  0.00    +0.270 C 
ATOM      2  O   UNL     1       5.477   4.440  -0.028  0.00  0.00    -0.270 OA
ATOM      3  N   UNL     1       3.667   5.722  -0.003  0.00  0.00    -0.204 N 
ATOM      4  H   UNL     1       3.289   6.616   0.006  0.00  0.00    +0.177 HD
ENDROOT
BRANCH   3   5
ATOM      5  N   UNL     1       2.823   4.604  -0.001  0.00  0.00    -0.185 NA
ATOM      6  C   UNL     1       1.526   4.765   0.013  0.00  0.00    +0.176 C 
BRANCH   6   7
ATOM      7  C   UNL     1       0.672   3.635   0.015  0.00  0.00    +0.150 A 
ATOM      8  C   UNL     1      -0.713   3.657   0.029  0.00  0.00    +0.053 A 
ATOM      9  C   UNL     1      -1.133   2.321   0.019  0.00  0.00    +0.076 A 
ATOM     10  C   UNL     1      -0.019   1.550   0.011  0.00  0.00    +0.280 A 
ATOM     11  O   UNL     1       1.063   2.343   0.004  0.00  0.00    -0.433 OA
BRANCH  10  12
ATOM     12  N   UNL     1       0.002  -0.004   0.002  0.00  0.00    +0.093 N 
ATOM     13  O   UNL     1      -1.044  -0.627   0.008  0.00  0.00    -0.123 OA
ATOM     14  O   UNL     1       1.065  -0.599  -0.011  0.00  0.00    -0.123 OA
ENDBRANCH  10  12
ENDBRANCH   6   7
ENDBRANCH   3   5
BRANCH   1  15
ATOM     15  C   UNL     1       5.913   6.759  -0.019  0.00  0.00    +0.326 C 
BRANCH  15  16
ATOM     16  O   UNL     1       7.275   6.327  -0.035  0.00  0.00    -0.478 OA
BRANCH  16  22
ATOM     17  C   UNL     1       8.731   7.786   1.163  0.00  0.00    +0.164 A 
ATOM     18  C   UNL     1       9.704   8.773   1.154  0.00  0.00    +0.064 A 
ATOM     19  C   UNL     1      10.175   9.269  -0.048  0.00  0.00    +0.023 A 
ATOM     20  C   UNL     1       9.676   8.783  -1.243  0.00  0.00    +0.034 A 
ATOM     21  C   UNL     1       8.710   7.794  -1.241  0.00  0.00    +0.064 A 
ATOM     22  C   UNL     1       8.230   7.296  -0.039  0.00  0.00    +0.177 A 
ATOM     23 BR   UNL     1       8.037   7.125  -2.877  0.00  0.00    -0.046 Br
ATOM     24 BR   UNL     1      11.502  10.616  -0.057  0.00  0.00    -0.050 Br
BRANCH  17  26
ATOM     25  C   UNL     1       8.827   7.846   3.538  0.00  0.00    +0.277 C 
ATOM     26  O   UNL     1       8.267   7.297   2.344  0.00  0.00    -0.491 OA
ENDBRANCH  17  26
ENDBRANCH  16  22
ENDBRANCH  15  16
ENDBRANCH   1  15
TORSDOF 7
