REMARK  Name = ZINC64215464
REMARK  6 active torsions:
REMARK  status: ('A' for Active; 'I' for Inactive)
REMARK    1  A    between atoms: C_4  and  C_7
REMARK    2  A    between atoms: C_9  and  C_17
REMARK    3  A    between atoms: C_17  and  C_19
REMARK    4  A    between atoms: C_17  and  C_29
REMARK    5  A    between atoms: C_19  and  N_20
REMARK    6  A    between atoms: C_21  and  C_23
REMARK                            x       y       z     vdW  Elec       q    Type
REMARK                         _______ _______ _______ _____ _____    ______ ____
ROOT
ATOM      1  C   UNL     1       4.260  -0.370   2.586  0.00  0.00    +0.065 C 
ENDROOT
BRANCH   1   3
ATOM      2  C   UNL     1       4.090  -0.640  -0.097  0.00  0.00    +0.137 C 
ATOM      3  C   UNL     1       4.205  -1.175   1.313  0.00  0.00    -0.025 C 
ATOM      4  C   UNL     1       4.250  -2.522   1.201  0.00  0.00    +0.000 A 
ATOM      5  C   UNL     1       4.359  -3.599   2.192  0.00  0.00    +0.010 A 
ATOM      6  C   UNL     1       4.380  -4.883   1.766  0.00  0.00    +0.001 A 
ATOM      7  C   UNL     1       4.301  -5.209   0.405  0.00  0.00    +0.002 A 
ATOM      8  C   UNL     1       4.199  -4.275  -0.564  0.00  0.00    +0.026 A 
ATOM      9  C   UNL     1       4.168  -2.893  -0.230  0.00  0.00    +0.043 A 
ATOM     10  N   UNL     1       4.077  -1.816  -0.974  0.00  0.00    -0.374 N 
ATOM     11  H   UNL     1       4.012  -1.799  -1.942  0.00  0.00    +0.161 HD
BRANCH   2  15
ATOM     12  C   UNL     1       0.461   1.568  -0.543  0.00  0.00    +0.000 A 
ATOM     13  C   UNL     1       1.658   2.235  -0.362  0.00  0.00    +0.000 A 
ATOM     14  C   UNL     1       2.832   1.521  -0.217  0.00  0.00    +0.006 A 
ATOM     15  C   UNL     1       2.809   0.139  -0.253  0.00  0.00    -0.021 A 
ATOM     16  C   UNL     1       1.612  -0.528  -0.433  0.00  0.00    +0.006 A 
ATOM     17  C   UNL     1       0.438   0.187  -0.580  0.00  0.00    +0.000 A 
ENDBRANCH   2  15
ENDBRANCH   1   3
BRANCH   1  18
ATOM     18  C   UNL     1       2.894   0.193   2.884  0.00  0.00    -0.039 A 
ATOM     19  C   UNL     1       1.823  -0.659   3.079  0.00  0.00    +0.004 A 
ATOM     20  C   UNL     1       0.570  -0.143   3.352  0.00  0.00    +0.000 A 
ATOM     21  C   UNL     1       0.388   1.225   3.430  0.00  0.00    +0.000 A 
ATOM     22  C   UNL     1       1.459   2.077   3.236  0.00  0.00    +0.000 A 
ATOM     23  C   UNL     1       2.713   1.561   2.967  0.00  0.00    +0.004 A 
ENDBRANCH   1  18
BRANCH   1  24
ATOM     24  C   UNL     1       4.703  -1.270   3.741  0.00  0.00    +0.116 C 
BRANCH  24  25
ATOM     25  N   UNL     1       4.909  -0.458   4.943  0.00  0.00    -0.312 N 
ATOM     26  C   UNL     1       5.304  -1.042   6.091  0.00  0.00    +0.242 C 
ATOM     27  O   UNL     1       5.489  -2.240   6.130  0.00  0.00    -0.273 OA
ATOM     28  H   UNL     1       4.760   0.500   4.912  0.00  0.00    +0.149 HD
BRANCH  26  29
ATOM     29  C   UNL     1       5.515  -0.206   7.327  0.00  0.00    +0.204 C 
ATOM     30  C   UNL     1       6.692   0.768   7.106  0.00  0.00    +0.043 C 
ATOM     31  C   UNL     1       7.403   0.745   8.486  0.00  0.00    +0.031 C 
ATOM     32  C   UNL     1       7.170  -0.726   8.913  0.00  0.00    +0.161 C 
ATOM     33  O   UNL     1       5.853  -1.052   8.433  0.00  0.00    -0.367 OA
ENDBRANCH  26  29
ENDBRANCH  24  25
ENDBRANCH   1  24
TORSDOF 6
