REMARK  Name = ZINC05504485
REMARK  5 active torsions:
REMARK  status: ('A' for Active; 'I' for Inactive)
REMARK    1  A    between atoms: C_1  and  C_2
REMARK    2  A    between atoms: C_5  and  O_8
REMARK    3  A    between atoms: O_8  and  C_9
REMARK    4  A    between atoms: C_9  and  C_10
REMARK    5  A    between atoms: N_12  and  N_13
REMARK                            x       y       z     vdW  Elec       q    Type
REMARK                         _______ _______ _______ _____ _____    ______ ____
ROOT
ATOM      1  C   UNL     1       0.090  -6.277   1.043  0.00  0.00    +0.270 C 
ATOM      2  O   UNL     1       0.090  -6.735  -0.080  0.00  0.00    -0.270 OA
ATOM      3  N   UNL     1       0.106  -7.104   2.108  0.00  0.00    -0.203 N 
ATOM      4  H   UNL     1       0.106  -6.738   3.006  0.00  0.00    +0.177 HD
ENDROOT
BRANCH   3   5
ATOM      5  N   UNL     1       0.123  -8.492   1.916  0.00  0.00    -0.174 NA
ATOM      6  C   UNL     1       0.139  -9.296   2.951  0.00  0.00    +0.153 C 
ATOM      7  C   UNL     1       0.164 -10.777   2.943  0.00  0.00    +0.029 A 
ATOM      8  C   UNL     1       0.178 -11.723   1.924  0.00  0.00    +0.027 A 
ATOM      9  C   UNL     1       0.201 -13.068   2.238  0.00  0.00    +0.019 A 
ATOM     10  C   UNL     1       0.211 -13.471   3.564  0.00  0.00    +0.017 A 
ATOM     11  C   UNL     1       0.196 -12.539   4.582  0.00  0.00    +0.025 A 
ATOM     12  C   UNL     1       0.173 -11.180   4.284  0.00  0.00    +0.043 A 
ATOM     13  N   UNL     1       0.156 -10.056   5.103  0.00  0.00    -0.280 N 
ATOM     14  C   UNL     1       0.142  -8.923   4.381  0.00  0.00    +0.269 C 
ATOM     15  O   UNL     1       0.130  -7.790   4.825  0.00  0.00    -0.268 OA
ATOM     16 BR   UNL     1       0.220 -14.361   0.858  0.00  0.00    -0.050 Br
ATOM     17  H   UNL     1       0.158 -10.086   6.072  0.00  0.00    +0.155 HD
ENDBRANCH   3   5
BRANCH   1  18
ATOM     18  C   UNL     1       0.072  -4.785   1.249  0.00  0.00    +0.326 C 
BRANCH  18  19
ATOM     19  O   UNL     1       0.057  -4.129  -0.021  0.00  0.00    -0.483 OA
BRANCH  19  24
ATOM     20  C   UNL     1      -0.018   1.503   0.010  0.00  0.00    +0.044 C 
ATOM     21  C   UNL     1       0.002  -0.004   0.002  0.00  0.00    -0.050 A 
ATOM     22  C   UNL     1       0.006  -0.688  -1.200  0.00  0.00    +0.007 A 
ATOM     23  C   UNL     1       0.024  -2.069  -1.210  0.00  0.00    +0.046 A 
ATOM     24  C   UNL     1       0.039  -2.770  -0.013  0.00  0.00    +0.121 A 
ATOM     25  C   UNL     1       0.036  -2.082   1.191  0.00  0.00    +0.046 A 
ATOM     26  C   UNL     1       0.023  -0.701   1.196  0.00  0.00    +0.007 A 
ENDBRANCH  19  24
ENDBRANCH  18  19
ENDBRANCH   1  18
TORSDOF 4
