REMARK  Name = ZINC14882924
REMARK  5 active torsions:
REMARK  status: ('A' for Active; 'I' for Inactive)
REMARK    1  A    between atoms: C_8  and  C_20
REMARK    2  A    between atoms: C_15  and  C_18
REMARK    3  A    between atoms: C_18  and  O_19
REMARK    4  A    between atoms: C_20  and  N_64
REMARK    5  A    between atoms: C_21  and  N_64
REMARK                            x       y       z     vdW  Elec       q    Type
REMARK                         _______ _______ _______ _____ _____    ______ ____
ROOT
ATOM      1  C   UNL     1      -0.024   3.852  -0.320  0.00  0.00    +0.013 A 
ATOM      2  C   UNL     1       1.142   3.150  -0.359  0.00  0.00    +0.039 A 
ATOM      3  C   UNL     1       1.146   1.762  -0.220  0.00  0.00    +0.125 A 
ATOM      4  C   UNL     1      -0.016   1.072  -0.040  0.00  0.00    +0.066 A 
ATOM      5  C   UNL     1      -1.238   1.762  -0.000  0.00  0.00    +0.076 A 
ATOM      6  C   UNL     1      -1.238   3.172  -0.137  0.00  0.00    +0.001 A 
ATOM      7  C   UNL     1      -2.465   3.866  -0.092  0.00  0.00    +0.015 A 
ATOM      8  C   UNL     1      -3.609   3.144   0.072  0.00  0.00    -0.024 A 
ATOM      9  C   UNL     1      -3.543   1.750   0.208  0.00  0.00    +0.123 A 
ATOM     10  N   UNL     1      -2.393   1.108   0.169  0.00  0.00    -0.232 NA
ATOM     11  N   UNL     1      -4.715   1.031   0.385  0.00  0.00    -0.315 N 
ATOM     12  C   UNL     1      -4.944   0.112  -0.737  0.00  0.00    +0.106 C 
ATOM     13  C   UNL     1      -6.311  -0.556  -0.580  0.00  0.00    +0.019 C 
ATOM     14  C   UNL     1      -6.352  -1.321   0.746  0.00  0.00    +0.009 C 
ATOM     15  C   UNL     1      -6.062  -0.350   1.895  0.00  0.00    +0.032 C 
ATOM     16  C   UNL     1      -4.702   0.312   1.666  0.00  0.00    +0.112 C 
ATOM     17  F   UNL     1       2.319   1.093  -0.263  0.00  0.00    -0.205 F 
ENDROOT
BRANCH  15  18
ATOM     18  C   UNL     1      -6.042  -1.117   3.218  0.00  0.00    +0.160 C 
BRANCH  18  19
ATOM     19  O   UNL     1      -7.344  -1.642   3.486  0.00  0.00    -0.395 OA
ATOM     20  H   UNL     1      -7.404  -2.141   4.311  0.00  0.00    +0.209 HD
ENDBRANCH  18  19
ENDBRANCH  15  18
BRANCH   8  21
ATOM     21  C   UNL     1      -4.942   3.845   0.121  0.00  0.00    -0.043 C 
BRANCH  21  22
ATOM     22  N   UNL     1      -5.398   3.920   1.522  0.00  0.00    +0.386 N 
ATOM     23  H   UNL     1      -4.708   4.443   2.075  0.00  0.00    -0.085 HD
ATOM     24  H   UNL     1      -5.489   2.970   1.900  0.00  0.00    -0.085 HD
BRANCH  22  25
ATOM     25  C   UNL     1      -6.703   4.602   1.600  0.00  0.00    -0.067 C 
ATOM     26  C   UNL     1      -6.576   6.022   1.044  0.00  0.00    -0.009 C 
ATOM     27  C   UNL     1      -7.930   6.729   1.135  0.00  0.00    -0.012 C 
ATOM     28  C   UNL     1      -8.376   6.792   2.597  0.00  0.00    +0.007 C 
ATOM     29  C   UNL     1      -8.503   5.372   3.153  0.00  0.00    -0.012 C 
ATOM     30  C   UNL     1      -7.149   4.665   3.062  0.00  0.00    -0.009 C 
ATOM     31  C   UNL     1      -9.539   4.596   2.337  0.00  0.00    +0.007 C 
ATOM     32  C   UNL     1      -9.093   4.533   0.874  0.00  0.00    -0.012 C 
ATOM     33  C   UNL     1      -8.966   5.952   0.319  0.00  0.00    +0.007 C 
ATOM     34  C   UNL     1      -7.739   3.826   0.784  0.00  0.00    -0.009 C 
ENDBRANCH  22  25
ENDBRANCH  21  22
ENDBRANCH   8  21
TORSDOF 5
