REMARK  Name = ZINC41303680
REMARK  7 active torsions:
REMARK  status: ('A' for Active; 'I' for Inactive)
REMARK    1  A    between atoms: C_1  and  C_2
REMARK    2  A    between atoms: C_2  and  N_3
REMARK    3  A    between atoms: C_10  and  C_24
REMARK    4  A    between atoms: C_11  and  C_13
REMARK    5  A    between atoms: N_15  and  C_16
REMARK    6  A    between atoms: C_19  and  C_23
REMARK    7  A    between atoms: C_21  and  O_22
REMARK                            x       y       z     vdW  Elec       q    Type
REMARK                         _______ _______ _______ _____ _____    ______ ____
ROOT
ATOM      1  N   UNL     1       0.699  -0.543   1.173  0.00  0.00    -0.299 N 
ATOM      2  C   UNL     1       2.039  -0.741   1.111  0.00  0.00    +0.203 A 
ATOM      3  N   UNL     1       2.722  -1.163   2.140  0.00  0.00    -0.230 NA
ATOM      4  C   UNL     1       2.139  -1.422   3.303  0.00  0.00    +0.116 A 
ATOM      5  C   UNL     1       0.749  -1.255   3.494  0.00  0.00    +0.076 A 
ATOM      6  C   UNL     1       0.008  -0.770   2.307  0.00  0.00    +0.262 A 
ATOM      7  O   UNL     1      -1.195  -0.585   2.354  0.00  0.00    -0.267 OA
ATOM      8  C   UNL     1       0.268  -1.564   4.769  0.00  0.00    -0.017 A 
ATOM      9  C   UNL     1       1.131  -1.996   5.733  0.00  0.00    +0.080 A 
ATOM     10  S   UNL     1       2.703  -1.992   4.887  0.00  0.00    -0.064 S 
ATOM     11  C   UNL     1      -1.199  -1.420   5.078  0.00  0.00    +0.046 C 
ENDROOT
BRANCH   9  12
ATOM     12  C   UNL     1       0.840  -2.370   7.121  0.00  0.00    +0.255 C 
ATOM     13  O   UNL     1      -0.301  -2.313   7.540  0.00  0.00    -0.269 OA
ATOM     14  N   UNL     1       1.836  -2.777   7.932  0.00  0.00    -0.278 N 
ATOM     15  H   UNL     1       2.734  -2.885   7.581  0.00  0.00    +0.155 HD
BRANCH  14  16
ATOM     16  C   UNL     1       1.575  -3.045   9.282  0.00  0.00    +0.076 A 
ATOM     17  C   UNL     1       0.357  -3.592   9.659  0.00  0.00    +0.027 A 
ATOM     18  C   UNL     1       0.102  -3.855  10.991  0.00  0.00    +0.005 A 
ATOM     19  C   UNL     1       1.057  -3.574  11.951  0.00  0.00    -0.047 A 
ATOM     20  C   UNL     1       2.272  -3.028  11.582  0.00  0.00    +0.050 A 
ATOM     21  C   UNL     1       2.539  -2.767  10.248  0.00  0.00    +0.138 A 
ATOM     22  C   UNL     1       0.772  -3.862  13.402  0.00  0.00    +0.044 C 
BRANCH  21  23
ATOM     23  O   UNL     1       3.736  -2.236   9.884  0.00  0.00    -0.505 OA
ATOM     24  H   UNL     1       3.752  -1.269   9.875  0.00  0.00    +0.292 HD
ENDBRANCH  21  23
ENDBRANCH  14  16
ENDBRANCH   9  12
BRANCH   1  26
ATOM     25  C   UNL     1      -0.033   1.462  -0.021  0.00  0.00    +0.027 C 
ATOM     26  C   UNL     1      -0.012  -0.068  -0.017  0.00  0.00    +0.123 C 
ENDBRANCH   1  26
TORSDOF 4
