REMARK  Name = ZINC08918367
REMARK  3 active torsions:
REMARK  status: ('A' for Active; 'I' for Inactive)
REMARK    1  A    between atoms: C_1  and  C_2
REMARK    2  A    between atoms: C_4  and  C_33
REMARK    3  A    between atoms: N_20  and  C_23
REMARK                            x       y       z     vdW  Elec       q    Type
REMARK                         _______ _______ _______ _____ _____    ______ ____
ROOT
ATOM      1  C   UNL     1      -4.180   2.960   2.369  0.00  0.00    +0.044 C 
ATOM      2  C   UNL     1      -2.699   2.685   2.386  0.00  0.00    -0.050 A 
ATOM      3  C   UNL     1      -2.046   2.330   1.220  0.00  0.00    +0.008 A 
ATOM      4  C   UNL     1      -0.691   2.071   1.230  0.00  0.00    -0.029 A 
ATOM      5  C   UNL     1       0.034   2.178   2.415  0.00  0.00    +0.039 A 
ATOM      6  C   UNL     1      -0.633   2.543   3.581  0.00  0.00    -0.027 A 
ATOM      7  C   UNL     1      -1.986   2.795   3.567  0.00  0.00    +0.008 A 
ATOM      8  C   UNL     1       0.412   2.569   4.662  0.00  0.00    +0.053 C 
ATOM      9  C   UNL     1       0.071   1.592   5.792  0.00  0.00    +0.089 C 
ATOM     10  C   UNL     1       0.551   2.304   7.087  0.00  0.00    +0.074 C 
ATOM     11  C   UNL     1       1.137   3.648   6.614  0.00  0.00    -0.054 C 
ATOM     12  C   UNL     1      -0.846   4.410   5.596  0.00  0.00    -0.076 C 
ATOM     13  C   UNL     1      -0.669   5.289   6.850  0.00  0.00    -0.020 C 
ATOM     14  C   UNL     1       0.619   4.777   7.523  0.00  0.00    -0.016 C 
ATOM     15  C   UNL     1      -0.725   2.558   7.857  0.00  0.00    +0.228 C 
ATOM     16  O   UNL     1      -0.795   3.098   8.940  0.00  0.00    -0.275 OA
ATOM     17  N   UNL     1      -1.766   2.084   7.135  0.00  0.00    -0.209 N 
ATOM     18  C   UNL     1      -1.429   1.521   5.969  0.00  0.00    +0.229 C 
ATOM     19  O   UNL     1      -2.205   1.031   5.177  0.00  0.00    -0.275 OA
ATOM     20  C   UNL     1       1.694   2.187   3.973  0.00  0.00    +0.212 C 
ATOM     21  O   UNL     1       2.789   2.087   4.485  0.00  0.00    -0.277 OA
ATOM     22  N   UNL     1       1.390   1.977   2.678  0.00  0.00    -0.286 N 
ATOM     23  C   UNL     1       0.009   1.677  -0.045  0.00  0.00    +0.045 C 
ATOM     24  H   UNL     1       2.039   1.716   2.005  0.00  0.00    +0.155 HD
ATOM     25  N   UNL     1       0.503   3.869   5.334  0.00  0.00    +0.395 N 
ATOM     26  H   UNL     1       1.047   4.528   4.764  0.00  0.00    -0.079 HD
ENDROOT
BRANCH  17  27
ATOM     27  C   UNL     1      -3.094   2.172   7.579  0.00  0.00    +0.058 A 
ATOM     28  C   UNL     1      -3.868   3.275   7.245  0.00  0.00    +0.025 A 
ATOM     29  C   UNL     1      -5.176   3.356   7.680  0.00  0.00    +0.002 A 
ATOM     30  C   UNL     1      -5.712   2.345   8.456  0.00  0.00    +0.001 A 
ATOM     31  C   UNL     1      -4.943   1.247   8.795  0.00  0.00    +0.017 A 
ATOM     32  C   UNL     1      -3.635   1.158   8.358  0.00  0.00    +0.040 A 
ATOM     33 BR   UNL     1      -2.583  -0.343   8.823  0.00  0.00    -0.048 Br
ENDBRANCH  17  27
TORSDOF 1
