REMARK  Name = ZINC43680143
REMARK  6 active torsions:
REMARK  status: ('A' for Active; 'I' for Inactive)
REMARK    1  A    between atoms: C_1  and  C_2
REMARK    2  A    between atoms: C_2  and  C_4
REMARK    3  A    between atoms: C_2  and  S_17
REMARK    4  A    between atoms: N_9  and  C_10
REMARK    5  A    between atoms: C_10  and  C_11
REMARK    6  A    between atoms: S_17  and  C_18
REMARK                            x       y       z     vdW  Elec       q    Type
REMARK                         _______ _______ _______ _____ _____    ______ ____
ROOT
ATOM      1  C   UNL     1       0.707  -0.490  -1.238  0.00  0.00    +0.234 C 
ATOM      2  O   UNL     1       1.864  -0.849  -1.176  0.00  0.00    -0.274 OA
ATOM      3  N   UNL     1       0.053  -0.526  -2.415  0.00  0.00    -0.239 N 
ATOM      4  C   UNL     1       0.683  -0.961  -3.524  0.00  0.00    +0.306 C 
ATOM      5  O   UNL     1       1.843  -1.320  -3.462  0.00  0.00    -0.252 OA
ATOM      6  N   UNL     1       0.029  -0.997  -4.702  0.00  0.00    -0.297 N 
ATOM      7  H   UNL     1      -0.873  -0.239  -2.465  0.00  0.00    +0.159 HD
ATOM      8  H   UNL     1      -0.896  -0.710  -4.751  0.00  0.00    +0.150 HD
ENDROOT
BRANCH   1  10
ATOM      9  C   UNL     1      -0.019   1.526   0.010  0.00  0.00    +0.029 C 
ATOM     10  C   UNL     1       0.002  -0.004   0.002  0.00  0.00    +0.139 C 
BRANCH  10  11
ATOM     11  S   UNL     1       0.879  -0.605   1.472  0.00  0.00    -0.055 S 
BRANCH  11  12
ATOM     12  C   UNL     1      -0.136  -0.087   2.816  0.00  0.00    +0.259 A 
ATOM     13  N   UNL     1      -1.260   0.574   2.696  0.00  0.00    -0.203 NA
ATOM     14  C   UNL     1      -1.767   0.801   3.938  0.00  0.00    +0.112 A 
ATOM     15  C   UNL     1      -2.913   1.443   4.408  0.00  0.00    +0.051 A 
ATOM     16  C   UNL     1      -3.153   1.508   5.764  0.00  0.00    +0.043 A 
ATOM     17  C   UNL     1      -2.261   0.941   6.662  0.00  0.00    +0.024 A 
ATOM     18  C   UNL     1      -1.123   0.303   6.210  0.00  0.00    +0.050 A 
ATOM     19  C   UNL     1      -0.868   0.228   4.851  0.00  0.00    +0.156 A 
ATOM     20  O   UNL     1       0.128  -0.317   4.114  0.00  0.00    -0.431 OA
ATOM     21 CL   UNL     1      -4.579   2.306   6.351  0.00  0.00    -0.083 Cl
ENDBRANCH  11  12
ENDBRANCH  10  11
ENDBRANCH   1  10
BRANCH   6  22
ATOM     22  C   UNL     1       0.715  -1.469  -5.907  0.00  0.00    +0.137 C 
BRANCH  22  23
ATOM     23  C   UNL     1      -0.246  -1.409  -7.097  0.00  0.00    +0.135 C 
ATOM     24  C   UNL     1       0.450  -1.938  -8.376  0.00  0.00    +0.035 C 
ATOM     25  C   UNL     1      -0.778  -2.394  -9.212  0.00  0.00    +0.031 C 
ATOM     26  C   UNL     1      -1.748  -2.898  -8.121  0.00  0.00    +0.160 C 
ATOM     27  O   UNL     1      -1.361  -2.289  -6.882  0.00  0.00    -0.375 OA
ENDBRANCH  22  23
ENDBRANCH   6  22
TORSDOF 5
