REMARK  Name = ZINC08394561
REMARK  8 active torsions:
REMARK  status: ('A' for Active; 'I' for Inactive)
REMARK    1  A    between atoms: C_1  and  C_2
REMARK    2  A    between atoms: C_2  and  C_3
REMARK    3  A    between atoms: C_3  and  C_4
REMARK    4  A    between atoms: C_3  and  C_5
REMARK    5  A    between atoms: C_3  and  C_6
REMARK    6  A    between atoms: N_14  and  C_18
REMARK    7  A    between atoms: C_18  and  C_19
REMARK    8  A    between atoms: N_21  and  C_22
REMARK                            x       y       z     vdW  Elec       q    Type
REMARK                         _______ _______ _______ _____ _____    ______ ____
ROOT
ATOM      1  C   UNL     1      -1.413  -2.063   0.004  0.00  0.00    -0.005 C 
ATOM      2  C   UNL     1      -0.696  -2.557  -1.254  0.00  0.00    +0.006 C 
ATOM      3  C   UNL     1      -0.665  -4.087  -1.255  0.00  0.00    +0.035 C 
ATOM      4  C   UNL     1      -2.090  -4.627  -1.218  0.00  0.00    +0.113 C 
ATOM      5  C   UNL     1      -2.826  -4.124   0.019  0.00  0.00    +0.035 C 
ATOM      6  C   UNL     1      -2.848  -2.593   0.015  0.00  0.00    +0.006 C 
ATOM      7  C   UNL     1      -2.082  -6.139  -1.246  0.00  0.00    +0.247 C 
ATOM      8  O   UNL     1      -1.587  -6.885  -0.429  0.00  0.00    -0.273 OA
ATOM      9  N   UNL     1      -2.740  -6.482  -2.372  0.00  0.00    -0.215 N 
ATOM     10  C   UNL     1      -3.157  -5.403  -3.047  0.00  0.00    +0.310 C 
ATOM     11  O   UNL     1      -3.773  -5.457  -4.093  0.00  0.00    -0.252 OA
ATOM     12  N   UNL     1      -2.816  -4.252  -2.437  0.00  0.00    -0.285 N 
ATOM     13  H   UNL     1      -3.011  -3.353  -2.744  0.00  0.00    +0.151 HD
ENDROOT
BRANCH   1  14
ATOM     14  C   UNL     1      -1.433  -0.534   0.013  0.00  0.00    -0.032 C 
ATOM     15  C   UNL     1      -2.149  -0.040   1.272  0.00  0.00    +0.011 C 
ATOM     16  C   UNL     1      -2.173  -0.027  -1.227  0.00  0.00    +0.011 C 
BRANCH  14  18
ATOM     17  C   UNL     1      -0.019   1.526   0.010  0.00  0.00    +0.004 C 
ATOM     18  C   UNL     1       0.002  -0.004   0.002  0.00  0.00    +0.003 C 
ENDBRANCH  14  18
ENDBRANCH   1  14
BRANCH   9  19
ATOM     19  C   UNL     1      -2.971  -7.863  -2.803  0.00  0.00    +0.213 C 
BRANCH  19  20
ATOM     20  C   UNL     1      -4.274  -8.357  -2.229  0.00  0.00    +0.231 C 
ATOM     21  O   UNL     1      -4.944  -7.627  -1.529  0.00  0.00    -0.274 OA
ATOM     22  N   UNL     1      -4.695  -9.610  -2.493  0.00  0.00    -0.311 N 
ATOM     23  H   UNL     1      -4.159 -10.193  -3.053  0.00  0.00    +0.149 HD
BRANCH  22  24
ATOM     24  C   UNL     1      -5.961 -10.090  -1.935  0.00  0.00    +0.073 C 
ATOM     25  C   UNL     1      -5.725 -10.625  -0.521  0.00  0.00    +0.022 C 
ATOM     26  C   UNL     1      -7.065 -10.753   0.206  0.00  0.00    +0.002 C 
ATOM     27  C   UNL     1      -7.910  -9.504  -0.055  0.00  0.00    +0.000 C 
ATOM     28  C   UNL     1      -9.130  -9.880  -0.897  0.00  0.00    +0.000 C 
ATOM     29  C   UNL     1      -8.700 -10.089  -2.351  0.00  0.00    +0.000 C 
ATOM     30  C   UNL     1      -7.991 -11.438  -2.484  0.00  0.00    +0.002 C 
ATOM     31  C   UNL     1      -6.516 -11.210  -2.818  0.00  0.00    +0.022 C 
ENDBRANCH  22  24
ENDBRANCH  19  20
ENDBRANCH   9  19
TORSDOF 5
