REMARK  Name = ZINC36597445
REMARK  18 active torsions:
REMARK  status: ('A' for Active; 'I' for Inactive)
REMARK    1  A    between atoms: C_1  and  C_2
REMARK    2  A    between atoms: C_5  and  C_7
REMARK    3  A    between atoms: C_7  and  N_8
REMARK    4  A    between atoms: N_8  and  C_9
REMARK    5  A    between atoms: C_9  and  C_11
REMARK    6  A    between atoms: C_9  and  C_18
REMARK    7  A    between atoms: C_14  and  O_17
REMARK    8  A    between atoms: N_20  and  C_21
REMARK    9  A    between atoms: C_21  and  C_22
REMARK   10  A    between atoms: C_21  and  C_23
REMARK   11  A    between atoms: C_21  and  C_24
REMARK   12  A    between atoms: C_24  and  C_25
REMARK   13  A    between atoms: C_25  and  C_26
REMARK   14  A    between atoms: C_25  and  C_27
REMARK   15  A    between atoms: C_25  and  C_28
REMARK   16  A    between atoms: C_29  and  C_31
REMARK   17  A    between atoms: C_32  and  O_38
REMARK   18  A    between atoms: C_36  and  O_37
REMARK                            x       y       z     vdW  Elec       q    Type
REMARK                         _______ _______ _______ _____ _____    ______ ____
ROOT
ATOM      1  C   UNL     1       6.043  -2.644  -1.386  0.00  0.00    +0.193 C 
ENDROOT
BRANCH   1   2
ATOM      2  C   UNL     1       4.759  -2.859  -2.144  0.00  0.00    -0.018 A 
ATOM      3  C   UNL     1       4.355  -4.141  -2.469  0.00  0.00    +0.009 A 
ATOM      4  C   UNL     1       3.179  -4.341  -3.164  0.00  0.00    +0.046 A 
ATOM      5  C   UNL     1       2.401  -3.254  -3.536  0.00  0.00    +0.117 A 
ATOM      6  C   UNL     1       2.808  -1.968  -3.209  0.00  0.00    +0.046 A 
ATOM      7  C   UNL     1       3.983  -1.774  -2.509  0.00  0.00    +0.009 A 
BRANCH   5   8
ATOM      8  O   UNL     1       1.243  -3.448  -4.221  0.00  0.00    -0.507 OA
ATOM      9  H   UNL     1       0.466  -3.558  -3.656  0.00  0.00    +0.292 HD
ENDBRANCH   5   8
ENDBRANCH   1   2
BRANCH   1  10
ATOM     10  C   UNL     1       6.995  -3.776  -1.678  0.00  0.00    +0.239 C 
ATOM     11  O   UNL     1       7.397  -4.478  -0.775  0.00  0.00    -0.273 OA
ATOM     12  N   UNL     1       7.398  -4.007  -2.943  0.00  0.00    -0.308 N 
ATOM     13  H   UNL     1       7.076  -3.445  -3.665  0.00  0.00    +0.149 HD
BRANCH  12  14
ATOM     14  C   UNL     1       8.323  -5.107  -3.227  0.00  0.00    +0.030 C 
ATOM     15  C   UNL     1       9.437  -5.121  -2.179  0.00  0.00    +0.031 C 
ATOM     16  C   UNL     1       7.565  -6.435  -3.183  0.00  0.00    +0.031 C 
BRANCH  14  17
ATOM     17  C   UNL     1       8.933  -4.915  -4.617  0.00  0.00    +0.031 C 
BRANCH  17  18
ATOM     18  C   UNL     1       7.826  -4.577  -5.618  0.00  0.00    -0.036 C 
ATOM     19  C   UNL     1       7.305  -3.165  -5.346  0.00  0.00    +0.010 C 
ATOM     20  C   UNL     1       8.384  -4.650  -7.040  0.00  0.00    +0.010 C 
ATOM     21  C   UNL     1       6.680  -5.581  -5.468  0.00  0.00    +0.010 C 
ENDBRANCH  17  18
ENDBRANCH  14  17
ENDBRANCH  12  14
ENDBRANCH   1  10
BRANCH   1  22
ATOM     22  N   UNL     1       5.761  -2.603   0.051  0.00  0.00    -0.274 N 
ATOM     23  C   UNL     1       5.298  -3.701   0.679  0.00  0.00    +0.255 C 
ATOM     24  O   UNL     1       5.207  -4.754   0.076  0.00  0.00    -0.270 OA
BRANCH  23  25
ATOM     25  C   UNL     1       4.900  -3.628   2.095  0.00  0.00    +0.119 A 
ATOM     26  C   UNL     1       3.579  -3.311   2.442  0.00  0.00    +0.133 A 
ATOM     27  C   UNL     1       3.216  -3.245   3.778  0.00  0.00    +0.046 A 
ATOM     28  C   UNL     1       4.151  -3.490   4.766  0.00  0.00    +0.007 A 
ATOM     29  C   UNL     1       5.456  -3.802   4.435  0.00  0.00    +0.046 A 
ATOM     30  C   UNL     1       5.840  -3.879   3.106  0.00  0.00    +0.133 A 
BRANCH  30  31
ATOM     31  O   UNL     1       7.120  -4.192   2.784  0.00  0.00    -0.506 OA
ATOM     32  H   UNL     1       7.704  -3.425   2.705  0.00  0.00    +0.292 HD
ENDBRANCH  30  31
BRANCH  26  33
ATOM     33  O   UNL     1       2.660  -3.070   1.474  0.00  0.00    -0.506 OA
ATOM     34  H   UNL     1       2.184  -3.859   1.179  0.00  0.00    +0.292 HD
ENDBRANCH  26  33
ENDBRANCH  23  25
BRANCH  22  35
ATOM     35  C   UNL     1       5.983  -1.366   0.806  0.00  0.00    +0.183 C 
BRANCH  35  40
ATOM     36  C   UNL     1       2.509   2.006  -0.609  0.00  0.00    +0.086 C 
ATOM     37  C   UNL     1       3.215   0.930   0.175  0.00  0.00    +0.102 A 
ATOM     38  C   UNL     1       2.757   0.347   1.298  0.00  0.00    +0.045 A 
ATOM     39  C   UNL     1       3.730  -0.599   1.694  0.00  0.00    +0.046 A 
ATOM     40  C   UNL     1       4.725  -0.536   0.790  0.00  0.00    +0.122 A 
ATOM     41  O   UNL     1       4.404   0.388  -0.130  0.00  0.00    -0.463 OA
ENDBRANCH  35  40
ENDBRANCH  22  35
ENDBRANCH   1  22
TORSDOF 12
