REMARK  Name = ZINC49526654
REMARK  4 active torsions:
REMARK  status: ('A' for Active; 'I' for Inactive)
REMARK    1  A    between atoms: C_1  and  C_2
REMARK    2  A    between atoms: C_2  and  C_4
REMARK    3  A    between atoms: C_2  and  N_11
REMARK    4  A    between atoms: C_19  and  C_20
REMARK                            x       y       z     vdW  Elec       q    Type
REMARK                         _______ _______ _______ _____ _____    ______ ____
ROOT
ATOM      1  N   UNL     1      -1.314  -0.562   0.019  0.00  0.00    -0.319 N 
ATOM      2  C   UNL     1      -1.911  -1.323  -0.967  0.00  0.00    +0.069 A 
ATOM      3  C   UNL     1      -1.431  -2.137  -1.984  0.00  0.00    +0.028 A 
ATOM      4  C   UNL     1      -2.318  -2.776  -2.823  0.00  0.00    +0.002 A 
ATOM      5  C   UNL     1      -3.686  -2.610  -2.659  0.00  0.00    +0.002 A 
ATOM      6  C   UNL     1      -4.176  -1.813  -1.664  0.00  0.00    +0.030 A 
ATOM      7  C   UNL     1      -3.296  -1.156  -0.800  0.00  0.00    +0.089 A 
ATOM      8  N   UNL     1      -3.469  -0.320   0.256  0.00  0.00    -0.231 NA
ATOM      9  C   UNL     1      -2.310   0.022   0.737  0.00  0.00    +0.126 A 
ENDROOT
BRANCH   1  11
ATOM     10  C   UNL     1       0.889  -1.377  -0.662  0.00  0.00    +0.036 C 
ATOM     11  C   UNL     1       0.125  -0.416   0.251  0.00  0.00    +0.116 C 
BRANCH  11  12
ATOM     12  C   UNL     1       0.541   1.001  -0.050  0.00  0.00    -0.025 A 
ATOM     13  C   UNL     1       0.229   1.568  -1.271  0.00  0.00    +0.007 A 
ATOM     14  C   UNL     1       0.610   2.868  -1.547  0.00  0.00    +0.015 A 
ATOM     15  C   UNL     1       1.304   3.601  -0.601  0.00  0.00    +0.018 A 
ATOM     16  C   UNL     1       1.615   3.033   0.621  0.00  0.00    +0.015 A 
ATOM     17  C   UNL     1       1.229   1.735   0.898  0.00  0.00    +0.007 A 
ATOM     18 BR   UNL     1       1.826   5.379  -0.978  0.00  0.00    -0.050 Br
ENDBRANCH  11  12
ENDBRANCH   1  11
BRANCH   9  19
ATOM     19  C   UNL     1      -2.102   0.936   1.917  0.00  0.00    +0.183 C 
ATOM     20 CL   UNL     1      -2.163   2.652   1.367  0.00  0.00    -0.117 Cl
ENDBRANCH   9  19
TORSDOF 3
