REMARK  Name = ZINC16333176
REMARK  8 active torsions:
REMARK  status: ('A' for Active; 'I' for Inactive)
REMARK    1  A    between atoms: C_4  and  S_25
REMARK    2  A    between atoms: C_5  and  C_7
REMARK    3  A    between atoms: C_7  and  O_9
REMARK    4  A    between atoms: O_9  and  C_10
REMARK    5  A    between atoms: C_10  and  C_11
REMARK    6  A    between atoms: N_13  and  C_14
REMARK    7  A    between atoms: S_25  and  C_26
REMARK    8  A    between atoms: C_26  and  C_27
REMARK                            x       y       z     vdW  Elec       q    Type
REMARK                         _______ _______ _______ _____ _____    ______ ____
ROOT
ATOM      1  O   UNL     1       3.517   2.005   0.083  0.00  0.00    -0.452 OA
ENDROOT
BRANCH   1   2
ATOM      2  C   UNL     1       4.784   1.554   0.164  0.00  0.00    +0.341 C 
ATOM      3  O   UNL     1       5.000   0.361   0.251  0.00  0.00    -0.245 OA
BRANCH   2   8
ATOM      4  C   UNL     1       6.719   4.764   0.034  0.00  0.00    +0.001 A 
ATOM      5  C   UNL     1       8.024   4.302   0.117  0.00  0.00    +0.001 A 
ATOM      6  C   UNL     1       8.281   2.951   0.216  0.00  0.00    +0.015 A 
ATOM      7  C   UNL     1       7.230   2.041   0.232  0.00  0.00    +0.022 A 
ATOM      8  C   UNL     1       5.907   2.506   0.148  0.00  0.00    +0.072 A 
ATOM      9  C   UNL     1       5.665   3.879   0.043  0.00  0.00    +0.016 A 
BRANCH   7  10
ATOM     10  S   UNL     1       7.556   0.314   0.357  0.00  0.00    -0.115 S 
BRANCH  10  11
ATOM     11  C   UNL     1       9.364   0.339   0.430  0.00  0.00    +0.169 C 
BRANCH  11  12
ATOM     12  C   UNL     1       9.882  -1.072   0.542  0.00  0.00    +0.221 C 
ATOM     13  O   UNL     1       9.105  -2.003   0.571  0.00  0.00    -0.275 OA
ATOM     14  N   UNL     1      11.209  -1.299   0.611  0.00  0.00    -0.329 N 
ATOM     15  H   UNL     1      11.830  -0.554   0.588  0.00  0.00    +0.145 HD
ATOM     16  H   UNL     1      11.542  -2.207   0.683  0.00  0.00    +0.145 HD
ENDBRANCH  11  12
ENDBRANCH  10  11
ENDBRANCH   7  10
ENDBRANCH   2   8
ENDBRANCH   1   2
BRANCH   1  17
ATOM     17  C   UNL     1       2.460   1.010   0.105  0.00  0.00    +0.328 C 
BRANCH  17  18
ATOM     18  C   UNL     1       1.122   1.696   0.006  0.00  0.00    +0.255 C 
ATOM     19  O   UNL     1       1.065   2.905  -0.075  0.00  0.00    -0.272 OA
ATOM     20  N   UNL     1      -0.011   0.966   0.007  0.00  0.00    -0.283 N 
ATOM     21  H   UNL     1       0.036  -0.003   0.004  0.00  0.00    +0.155 HD
BRANCH  20  22
ATOM     22  C   UNL     1      -1.257   1.607   0.007  0.00  0.00    +0.037 A 
ATOM     23  C   UNL     1      -1.425   2.798  -0.686  0.00  0.00    +0.027 A 
ATOM     24  C   UNL     1      -2.653   3.431  -0.687  0.00  0.00    +0.051 A 
ATOM     25  C   UNL     1      -3.721   2.878   0.002  0.00  0.00    +0.173 A 
ATOM     26  C   UNL     1      -3.555   1.683   0.697  0.00  0.00    +0.174 A 
ATOM     27  C   UNL     1      -2.325   1.047   0.694  0.00  0.00    +0.073 A 
ATOM     28  O   UNL     1      -4.742   1.352   1.285  0.00  0.00    -0.395 OA
ATOM     29  C   UNL     1      -5.740   2.139   0.607  0.00  0.00    +0.589 C 
ATOM     30  O   UNL     1      -5.012   3.296   0.154  0.00  0.00    -0.395 OA
ATOM     31  F   UNL     1      -6.268   1.434  -0.479  0.00  0.00    -0.125 F 
ATOM     32  F   UNL     1      -6.758   2.511   1.492  0.00  0.00    -0.125 F 
ENDBRANCH  20  22
ENDBRANCH  17  18
ENDBRANCH   1  17
TORSDOF 8
