REMARK  Name = ZINC09167588
REMARK  10 active torsions:
REMARK  status: ('A' for Active; 'I' for Inactive)
REMARK    1  A    between atoms: C_1  and  C_2
REMARK    2  A    between atoms: C_2  and  C_3
REMARK    3  A    between atoms: C_3  and  N_4
REMARK    4  A    between atoms: C_8  and  N_18
REMARK    5  A    between atoms: C_13  and  C_16
REMARK    6  A    between atoms: C_13  and  C_17
REMARK    7  A    between atoms: N_18  and  S_19
REMARK    8  A    between atoms: S_19  and  C_22
REMARK    9  A    between atoms: C_25  and  C_29
REMARK   10  A    between atoms: C_27  and  C_28
REMARK                            x       y       z     vdW  Elec       q    Type
REMARK                         _______ _______ _______ _____ _____    ______ ____
ROOT
ATOM      1  N   UNL     1       5.296   5.072  -2.930  0.00  0.00    -0.268 N 
ATOM      2  C   UNL     1       4.534   3.960  -2.537  0.00  0.00    +0.078 A 
ATOM      3  C   UNL     1       4.830   3.282  -1.366  0.00  0.00    +0.029 A 
ATOM      4  C   UNL     1       4.078   2.183  -0.995  0.00  0.00    +0.026 A 
ATOM      5  C   UNL     1       3.025   1.759  -1.795  0.00  0.00    +0.052 A 
ATOM      6  C   UNL     1       2.728   2.434  -2.972  0.00  0.00    +0.072 A 
ATOM      7  C   UNL     1       3.477   3.538  -3.341  0.00  0.00    +0.144 A 
ATOM      8  O   UNL     1       3.187   4.215  -4.484  0.00  0.00    -0.489 OA
ATOM      9  C   UNL     1       2.529   5.472  -4.348  0.00  0.00    +0.244 C 
ATOM     10  C   UNL     1       3.163   6.287  -3.223  0.00  0.00    +0.076 C 
ATOM     11  C   UNL     1       4.665   6.206  -3.307  0.00  0.00    +0.229 C 
ATOM     12  O   UNL     1       5.305   7.154  -3.712  0.00  0.00    -0.275 OA
ATOM     13  C   UNL     1       2.726   7.748  -3.347  0.00  0.00    +0.024 C 
ATOM     14  C   UNL     1       2.702   5.734  -1.873  0.00  0.00    +0.024 C 
ENDROOT
BRANCH   5  15
ATOM     15  N   UNL     1       2.266   0.646  -1.418  0.00  0.00    -0.216 N 
ATOM     16  H   UNL     1       2.055  -0.041  -2.070  0.00  0.00    +0.174 HD
BRANCH  15  17
ATOM     17  S   UNL     1       1.727   0.501   0.141  0.00  0.00    +0.073 S 
ATOM     18  O   UNL     1       2.858   0.687   0.980  0.00  0.00    -0.150 OA
ATOM     19  O   UNL     1       0.929  -0.674   0.187  0.00  0.00    -0.150 OA
BRANCH  17  20
ATOM     20  C   UNL     1       0.645   1.857   0.446  0.00  0.00    +0.111 A 
ATOM     21  C   UNL     1       0.976   2.806   1.396  0.00  0.00    +0.029 A 
ATOM     22  C   UNL     1       0.124   3.866   1.640  0.00  0.00    +0.005 A 
ATOM     23  C   UNL     1      -1.054   3.985   0.927  0.00  0.00    -0.050 A 
ATOM     24  C   UNL     1      -1.385   3.037  -0.023  0.00  0.00    +0.008 A 
ATOM     25  C   UNL     1      -0.536   1.973  -0.263  0.00  0.00    -0.024 A 
ATOM     26  C   UNL     1      -0.897   0.939  -1.298  0.00  0.00    +0.046 C 
ATOM     27  C   UNL     1      -1.980   5.145   1.188  0.00  0.00    +0.044 C 
ENDBRANCH  17  20
ENDBRANCH  15  17
ENDBRANCH   5  15
BRANCH   1  28
ATOM     28  C   UNL     1       6.759   5.004  -2.931  0.00  0.00    +0.113 C 
BRANCH  28  30
ATOM     29  C   UNL     1       8.775   4.442  -4.296  0.00  0.00    +0.005 C 
ATOM     30  C   UNL     1       7.246   4.513  -4.295  0.00  0.00    +0.016 C 
ENDBRANCH  28  30
ENDBRANCH   1  28
TORSDOF 5
