REMARK  Name = ZINC60392196
REMARK  11 active torsions:
REMARK  status: ('A' for Active; 'I' for Inactive)
REMARK    1  A    between atoms: C_1  and  C_2
REMARK    2  A    between atoms: C_2  and  N_3
REMARK    3  A    between atoms: N_3  and  C_4
REMARK    4  A    between atoms: N_3  and  C_6
REMARK    5  A    between atoms: C_4  and  C_5
REMARK    6  A    between atoms: C_6  and  C_7
REMARK    7  A    between atoms: C_7  and  N_8
REMARK    8  A    between atoms: N_17  and  C_18
REMARK    9  A    between atoms: C_18  and  C_20
REMARK   10  A    between atoms: C_24  and  N_26
REMARK   11  A    between atoms: C_27  and  C_29
REMARK                            x       y       z     vdW  Elec       q    Type
REMARK                         _______ _______ _______ _____ _____    ______ ____
ROOT
ATOM      1  N   UNL     1      -2.039  -3.773   0.324  0.00  0.00    -0.314 N 
ATOM      2  C   UNL     1      -1.756  -4.648  -0.720  0.00  0.00    +0.068 A 
ATOM      3  C   UNL     1      -1.818  -4.524  -2.101  0.00  0.00    +0.028 A 
ATOM      4  C   UNL     1      -1.467  -5.591  -2.903  0.00  0.00    +0.002 A 
ATOM      5  C   UNL     1      -1.053  -6.785  -2.336  0.00  0.00    +0.002 A 
ATOM      6  C   UNL     1      -0.988  -6.918  -0.964  0.00  0.00    +0.028 A 
ATOM      7  C   UNL     1      -1.338  -5.851  -0.148  0.00  0.00    +0.066 A 
ATOM      8  N   UNL     1      -1.375  -5.684   1.232  0.00  0.00    -0.326 N 
ATOM      9  C   UNL     1      -1.797  -4.418   1.497  0.00  0.00    +0.201 A 
ATOM     10  N   UNL     1      -1.951  -3.896   2.708  0.00  0.00    -0.142 NA
ATOM     11  H   UNL     1      -1.138  -6.354   1.892  0.00  0.00    +0.169 HD
ENDROOT
BRANCH  10  12
ATOM     12  C   UNL     1      -1.567  -4.586   3.788  0.00  0.00    +0.270 C 
ATOM     13  O   UNL     1      -0.990  -5.652   3.656  0.00  0.00    -0.268 OA
BRANCH  12  14
ATOM     14  C   UNL     1      -1.842  -4.055   5.143  0.00  0.00    +0.041 A 
ATOM     15  C   UNL     1      -2.507  -2.838   5.296  0.00  0.00    +0.013 A 
ATOM     16  C   UNL     1      -2.763  -2.345   6.559  0.00  0.00    +0.003 A 
ATOM     17  C   UNL     1      -2.361  -3.054   7.677  0.00  0.00    +0.023 A 
ATOM     18  C   UNL     1      -1.699  -4.267   7.535  0.00  0.00    +0.034 A 
ATOM     19  C   UNL     1      -1.443  -4.773   6.269  0.00  0.00    +0.036 A 
BRANCH  18  20
ATOM     20  N   UNL     1      -1.294  -4.980   8.668  0.00  0.00    -0.286 N 
ATOM     21  C   UNL     1      -0.151  -5.694   8.643  0.00  0.00    +0.214 C 
ATOM     22  O   UNL     1       0.573  -5.646   7.671  0.00  0.00    -0.276 OA
ATOM     23  C   UNL     1       0.227  -6.553   9.822  0.00  0.00    +0.109 C 
ATOM     24  H   UNL     1      -1.836  -4.961   9.473  0.00  0.00    +0.155 HD
ENDBRANCH  18  20
ENDBRANCH  12  14
ENDBRANCH  10  12
BRANCH   1  25
ATOM     25  C   UNL     1      -2.510  -2.393   0.185  0.00  0.00    +0.106 C 
BRANCH  25  26
ATOM     26  C   UNL     1      -1.308  -1.449   0.110  0.00  0.00    -0.057 C 
BRANCH  26  27
ATOM     27  N   UNL     1      -1.775  -0.082  -0.153  0.00  0.00    +0.380 N 
ATOM     28  H   UNL     1      -2.332  -0.073  -0.995  0.00  0.00    -0.082 HD
BRANCH  27  30
ATOM     29  C   UNL     1      -3.177   1.758   0.650  0.00  0.00    -0.017 C 
ATOM     30  C   UNL     1      -2.588   0.385   0.978  0.00  0.00    -0.082 C 
ENDBRANCH  27  30
BRANCH  27  31
ATOM     31  C   UNL     1      -0.617   0.807  -0.324  0.00  0.00    -0.082 C 
ATOM     32  C   UNL     1       0.167   0.389  -1.570  0.00  0.00    -0.017 C 
ENDBRANCH  27  31
ENDBRANCH  26  27
ENDBRANCH  25  26
ENDBRANCH   1  25
TORSDOF 8
