REMARK  Name = ZINC21085480
REMARK  11 active torsions:
REMARK  status: ('A' for Active; 'I' for Inactive)
REMARK    1  A    between atoms: C_1  and  C_2
REMARK    2  A    between atoms: C_2  and  N_3
REMARK    3  A    between atoms: N_3  and  C_4
REMARK    4  A    between atoms: N_3  and  C_6
REMARK    5  A    between atoms: C_4  and  C_5
REMARK    6  A    between atoms: C_9  and  N_12
REMARK    7  A    between atoms: C_13  and  C_15
REMARK    8  A    between atoms: C_20  and  O_21
REMARK    9  A    between atoms: O_21  and  C_22
REMARK   10  A    between atoms: C_22  and  C_23
REMARK   11  A    between atoms: N_25  and  C_26
REMARK                            x       y       z     vdW  Elec       q    Type
REMARK                         _______ _______ _______ _____ _____    ______ ____
ROOT
ATOM      1  C   UNL     1      -0.041   3.849   0.030  0.00  0.00    +0.079 A 
ATOM      2  C   UNL     1       1.174   3.159   0.024  0.00  0.00    +0.017 A 
ATOM      3  C   UNL     1       1.181   1.781   0.024  0.00  0.00    +0.001 A 
ATOM      4  C   UNL     1      -0.012   1.076   0.030  0.00  0.00    +0.004 A 
ATOM      5  C   UNL     1      -1.219   1.745   0.029  0.00  0.00    +0.046 A 
ATOM      6  C   UNL     1      -1.245   3.132   0.035  0.00  0.00    +0.133 A 
ENDROOT
BRANCH   1   8
ATOM      7  N   UNL     1       1.105   6.010   0.026  0.00  0.00    -0.281 N 
ATOM      8  C   UNL     1      -0.056   5.324   0.031  0.00  0.00    +0.252 C 
ATOM      9  O   UNL     1      -1.115   5.921   0.035  0.00  0.00    -0.270 OA
ATOM     10  H   UNL     1       2.062   5.472   0.099  0.00  0.00    +0.155 HD
BRANCH   7  14
ATOM     11  C   UNL     1       1.068  10.170  -0.263  0.00  0.00    +0.030 A 
ATOM     12  C   UNL     1       0.065   9.513   0.439  0.00  0.00    +0.025 A 
ATOM     13  C   UNL     1       0.077   8.136   0.534  0.00  0.00    +0.025 A 
ATOM     14  C   UNL     1       1.092   7.407  -0.071  0.00  0.00    +0.034 A 
ATOM     15  C   UNL     1       2.098   8.063  -0.768  0.00  0.00    +0.025 A 
ATOM     16  C   UNL     1       2.083   9.440  -0.868  0.00  0.00    +0.025 A 
BRANCH  11  17
ATOM     17  N   UNL     1       1.056  11.565  -0.359  0.00  0.00    -0.330 N 
BRANCH  17  19
ATOM     18  C   UNL     1       1.697  12.408  -2.564  0.00  0.00    +0.024 C 
ATOM     19  C   UNL     1       2.114  12.258  -1.100  0.00  0.00    +0.102 C 
ENDBRANCH  17  19
BRANCH  17  20
ATOM     20  C   UNL     1      -0.015  12.334   0.279  0.00  0.00    +0.102 C 
ATOM     21  C   UNL     1       0.398  12.693   1.708  0.00  0.00    +0.024 C 
ENDBRANCH  17  20
ENDBRANCH  11  17
ENDBRANCH   7  14
ENDBRANCH   1   8
BRANCH   6  22
ATOM     22  O   UNL     1      -2.430   3.792   0.040  0.00  0.00    -0.482 OA
BRANCH  22  23
ATOM     23  C   UNL     1      -3.616   2.994   0.045  0.00  0.00    +0.324 C 
BRANCH  23  24
ATOM     24  C   UNL     1      -4.826   3.893   0.051  0.00  0.00    +0.251 C 
ATOM     25  O   UNL     1      -4.686   5.098   0.050  0.00  0.00    -0.272 OA
ATOM     26  N   UNL     1      -6.063   3.358   0.056  0.00  0.00    -0.302 N 
ATOM     27  H   UNL     1      -6.190   2.265   0.056  0.00  0.00    +0.150 HD
BRANCH  26  28
ATOM     28  C   UNL     1      -7.239   4.231   0.061  0.00  0.00    +0.130 C 
ATOM     29  C   UNL     1      -7.637   4.558   1.468  0.00  0.00    -0.016 A 
ATOM     30  C   UNL     1      -6.965   5.202   2.483  0.00  0.00    +0.006 A 
ATOM     31  C   UNL     1      -7.637   5.343   3.693  0.00  0.00    +0.000 A 
ATOM     32  C   UNL     1      -8.918   4.860   3.873  0.00  0.00    +0.001 A 
ATOM     33  C   UNL     1      -9.605   4.209   2.860  0.00  0.00    +0.008 A 
ATOM     34  C   UNL     1      -8.941   4.061   1.637  0.00  0.00    -0.017 A 
ATOM     35  C   UNL     1      -9.383   3.432   0.391  0.00  0.00    -0.039 C 
ATOM     36  C   UNL     1      -8.428   3.513  -0.533  0.00  0.00    -0.041 C 
ATOM     37  C   UNL     1      -8.534   2.969  -1.935  0.00  0.00    +0.033 C 
ATOM     38  C   UNL     1      -9.705   1.982  -1.990  0.00  0.00    +0.005 C 
ATOM     39  C   UNL     1     -10.940   2.634  -1.361  0.00  0.00    +0.005 C 
ATOM     40  C   UNL     1     -10.725   2.774   0.149  0.00  0.00    +0.036 C 
ENDBRANCH  26  28
ENDBRANCH  23  24
ENDBRANCH  22  23
ENDBRANCH   6  22
TORSDOF 9
