REMARK  Name = ZINC34782844
REMARK  11 active torsions:
REMARK  status: ('A' for Active; 'I' for Inactive)
REMARK    1  A    between atoms: C_1  and  C_2
REMARK    2  A    between atoms: C_2  and  N_3
REMARK    3  A    between atoms: N_3  and  C_4
REMARK    4  A    between atoms: C_4  and  C_5
REMARK    5  A    between atoms: C_6  and  C_8
REMARK    6  A    between atoms: C_8  and  N_9
REMARK    7  A    between atoms: C_13  and  C_32
REMARK    8  A    between atoms: C_14  and  C_28
REMARK    9  A    between atoms: N_17  and  C_20
REMARK   10  A    between atoms: C_20  and  C_21
REMARK   11  A    between atoms: N_30  and  N_31
REMARK                            x       y       z     vdW  Elec       q    Type
REMARK                         _______ _______ _______ _____ _____    ______ ____
ROOT
ATOM      1  N   UNL     1      -3.852  -1.449   2.580  0.00  0.00    -0.251 N 
ATOM      2  C   UNL     1      -3.639  -2.628   3.190  0.00  0.00    +0.266 A 
ATOM      3  O   UNL     1      -3.084  -3.536   2.599  0.00  0.00    -0.267 OA
ATOM      4  C   UNL     1      -4.088  -2.808   4.592  0.00  0.00    +0.074 A 
ATOM      5  C   UNL     1      -3.969  -3.939   5.409  0.00  0.00    -0.017 A 
ATOM      6  C   UNL     1      -4.470  -3.847   6.676  0.00  0.00    +0.081 A 
ATOM      7  S   UNL     1      -5.106  -2.184   6.726  0.00  0.00    -0.065 S 
ATOM      8  C   UNL     1      -4.715  -1.698   5.175  0.00  0.00    +0.098 A 
ATOM      9  N   UNL     1      -4.889  -0.537   4.476  0.00  0.00    -0.283 N 
ATOM     10  C   UNL     1      -4.457  -0.427   3.207  0.00  0.00    +0.334 A 
ATOM     11  O   UNL     1      -4.621   0.621   2.612  0.00  0.00    -0.246 OA
ATOM     12  C   UNL     1      -3.317  -5.204   4.912  0.00  0.00    +0.046 C 
ENDROOT
BRANCH   6  13
ATOM     13  C   UNL     1      -4.481  -4.863   7.731  0.00  0.00    +0.264 C 
ATOM     14  O   UNL     1      -3.998  -5.961   7.524  0.00  0.00    -0.268 OA
ATOM     15  N   UNL     1      -5.027  -4.582   8.931  0.00  0.00    -0.249 N 
ATOM     16  H   UNL     1      -5.412  -3.708   9.096  0.00  0.00    +0.169 HD
BRANCH  15  17
ATOM     17  N   UNL     1      -5.037  -5.530   9.915  0.00  0.00    -0.254 NA
ATOM     18  H   UNL     1      -4.104  -5.861  10.108  0.00  0.00    +0.140 HD
ATOM     19  H   UNL     1      -5.476  -5.177  10.752  0.00  0.00    +0.140 HD
ENDBRANCH  15  17
ENDBRANCH   6  13
BRANCH   1  20
ATOM     20  C   UNL     1      -3.407  -1.272   1.195  0.00  0.00    +0.225 C 
BRANCH  20  22
ATOM     21  N   UNL     1      -1.372  -0.511   0.012  0.00  0.00    -0.301 N 
ATOM     22  C   UNL     1      -1.993  -0.751   1.184  0.00  0.00    +0.236 C 
ATOM     23  O   UNL     1      -1.415  -0.546   2.230  0.00  0.00    -0.274 OA
BRANCH  21  25
ATOM     24  C   UNL     1      -0.019   1.526   0.010  0.00  0.00    +0.024 C 
ATOM     25  C   UNL     1       0.002  -0.004   0.002  0.00  0.00    +0.104 C 
ENDBRANCH  21  25
BRANCH  21  26
ATOM     26  C   UNL     1      -2.072  -0.758  -1.251  0.00  0.00    +0.104 C 
ATOM     27  C   UNL     1      -1.816  -2.197  -1.703  0.00  0.00    +0.024 C 
ENDBRANCH  21  26
ENDBRANCH  20  22
ENDBRANCH   1  20
BRANCH   9  28
ATOM     28  C   UNL     1      -5.549   0.603   5.118  0.00  0.00    +0.162 C 
BRANCH  28  29
ATOM     29  C   UNL     1      -4.516   1.461   5.802  0.00  0.00    -0.027 A 
ATOM     30  C   UNL     1      -4.169   1.210   7.116  0.00  0.00    +0.007 A 
ATOM     31  C   UNL     1      -3.221   1.997   7.744  0.00  0.00    +0.020 A 
ATOM     32  C   UNL     1      -2.620   3.036   7.056  0.00  0.00    +0.041 A 
ATOM     33  C   UNL     1      -2.967   3.286   5.740  0.00  0.00    +0.020 A 
ATOM     34  C   UNL     1      -3.911   2.495   5.112  0.00  0.00    +0.007 A 
ATOM     35 CL   UNL     1      -1.430   4.025   7.843  0.00  0.00    -0.084 Cl
ENDBRANCH  28  29
ENDBRANCH   9  28
TORSDOF 8
