REMARK  Name = ZINC41515278
REMARK  9 active torsions:
REMARK  status: ('A' for Active; 'I' for Inactive)
REMARK    1  A    between atoms: C_1  and  C_2
REMARK    2  A    between atoms: C_4  and  O_32
REMARK    3  A    between atoms: C_5  and  C_21
REMARK    4  A    between atoms: C_11  and  C_12
REMARK    5  A    between atoms: C_15  and  O_18
REMARK    6  A    between atoms: O_18  and  C_19
REMARK    7  A    between atoms: C_21  and  N_22
REMARK    8  A    between atoms: C_24  and  C_31
REMARK    9  A    between atoms: C_27  and  C_30
REMARK                            x       y       z     vdW  Elec       q    Type
REMARK                         _______ _______ _______ _____ _____    ______ ____
ROOT
ATOM      1  C   UNL     1       1.102   1.372   0.036  0.00  0.00    +0.045 C 
ATOM      2  C   UNL     1       0.711  -0.083   0.018  0.00  0.00    -0.033 A 
ATOM      3  C   UNL     1       0.593  -0.745  -1.172  0.00  0.00    +0.050 A 
ATOM      4  C   UNL     1       0.232  -2.089  -1.191  0.00  0.00    +0.122 A 
ATOM      5  C   UNL     1      -0.011  -2.771  -0.010  0.00  0.00    +0.020 A 
ATOM      6  C   UNL     1       0.105  -2.113   1.208  0.00  0.00    +0.145 A 
ATOM      7  C   UNL     1       0.475  -0.759   1.216  0.00  0.00    +0.071 A 
ATOM      8  C   UNL     1       0.521  -0.348   2.631  0.00  0.00    +0.232 C 
ATOM      9  O   UNL     1       0.796   0.751   3.080  0.00  0.00    -0.283 OA
ATOM     10  C   UNL     1       0.161  -1.561   3.378  0.00  0.00    +0.176 C 
ATOM     11  C   UNL     1       0.069  -1.674   4.728  0.00  0.00    +0.058 C 
ATOM     12  O   UNL     1      -0.075  -2.543   2.476  0.00  0.00    -0.451 OA
ENDROOT
BRANCH  11  13
ATOM     13  C   UNL     1       0.171  -0.478   5.573  0.00  0.00    -0.021 A 
ATOM     14  C   UNL     1       0.890  -0.525   6.774  0.00  0.00    +0.011 A 
ATOM     15  C   UNL     1       0.983   0.599   7.563  0.00  0.00    +0.046 A 
ATOM     16  C   UNL     1       0.363   1.780   7.169  0.00  0.00    +0.120 A 
ATOM     17  C   UNL     1      -0.352   1.833   5.978  0.00  0.00    +0.046 A 
ATOM     18  C   UNL     1      -0.445   0.716   5.178  0.00  0.00    +0.011 A 
BRANCH  16  19
ATOM     19  O   UNL     1       0.457   2.886   7.950  0.00  0.00    -0.495 OA
ATOM     20  C   UNL     1      -0.202   4.066   7.487  0.00  0.00    +0.277 C 
ENDBRANCH  16  19
ENDBRANCH  11  13
BRANCH   4  21
ATOM     21  O   UNL     1       0.117  -2.738  -2.378  0.00  0.00    -0.506 OA
ATOM     22  H   UNL     1       0.935  -3.155  -2.680  0.00  0.00    +0.292 HD
ENDBRANCH   4  21
BRANCH   5  23
ATOM     23  C   UNL     1      -0.402  -4.226  -0.046  0.00  0.00    -0.036 C 
BRANCH  23  24
ATOM     24  N   UNL     1       0.807  -5.059   0.009  0.00  0.00    +0.383 N 
ATOM     25  C   UNL     1       1.610  -4.834  -1.199  0.00  0.00    -0.075 C 
ATOM     26  C   UNL     1       2.909  -5.638  -1.110  0.00  0.00    -0.031 C 
ATOM     27  C   UNL     1       2.574  -7.127  -0.988  0.00  0.00    +0.003 C 
ATOM     28  C   UNL     1       1.675  -7.340   0.233  0.00  0.00    -0.031 C 
ATOM     29  C   UNL     1       0.421  -6.473   0.094  0.00  0.00    -0.075 C 
ATOM     30  C   UNL     1       2.433  -6.943   1.501  0.00  0.00    +0.005 C 
ATOM     31  C   UNL     1       3.744  -5.402  -2.370  0.00  0.00    +0.005 C 
ATOM     32  H   UNL     1       1.349  -4.810   0.822  0.00  0.00    -0.081 HD
ENDBRANCH  23  24
ENDBRANCH   5  23
TORSDOF 5
