REMARK  Name = ZINC09730815
REMARK  6 active torsions:
REMARK  status: ('A' for Active; 'I' for Inactive)
REMARK    1  A    between atoms: C_1  and  C_2
REMARK    2  A    between atoms: C_2  and  C_3
REMARK    3  A    between atoms: C_9  and  C_10
REMARK    4  A    between atoms: N_12  and  C_19
REMARK    5  A    between atoms: C_19  and  C_20
REMARK    6  A    between atoms: C_25  and  N_26
REMARK                            x       y       z     vdW  Elec       q    Type
REMARK                         _______ _______ _______ _____ _____    ______ ____
ROOT
ATOM      1  C   UNL     1       5.529  -0.778   6.389  0.00  0.00    +0.001 A 
ATOM      2  C   UNL     1       5.598  -2.155   6.487  0.00  0.00    +0.095 A 
ATOM      3  N   UNL     1       6.596  -2.498   7.324  0.00  0.00    -0.342 N 
ATOM      4  C   UNL     1       7.229  -1.375   7.816  0.00  0.00    +0.050 A 
ATOM      5  C   UNL     1       6.602  -0.251   7.255  0.00  0.00    +0.007 A 
ATOM      6  C   UNL     1       7.044   1.029   7.575  0.00  0.00    +0.010 A 
ATOM      7  C   UNL     1       8.103   1.188   8.444  0.00  0.00    +0.001 A 
ATOM      8  C   UNL     1       8.726   0.080   8.996  0.00  0.00    +0.002 A 
ATOM      9  C   UNL     1       8.294  -1.193   8.693  0.00  0.00    +0.026 A 
ENDROOT
BRANCH   1  16
ATOM     10  C   UNL     1      -0.356  -1.275   2.661  0.00  0.00    +0.100 C 
ATOM     11  N   UNL     1       0.607  -0.457   2.975  0.00  0.00    -0.169 NA
ATOM     12  N   UNL     1       1.335  -0.622   4.134  0.00  0.00    -0.152 N 
ATOM     13  C   UNL     1       2.335   0.252   4.612  0.00  0.00    +0.152 C 
ATOM     14  N   UNL     1       2.414   1.510   4.266  0.00  0.00    -0.283 NA
ATOM     15  C   UNL     1       3.289  -0.399   5.551  0.00  0.00    +0.081 C 
ATOM     16  C   UNL     1       4.619  -0.026   5.611  0.00  0.00    +0.026 C 
ATOM     17  C   UNL     1       2.738  -1.468   6.416  0.00  0.00    +0.273 C 
ATOM     18  O   UNL     1       3.260  -1.740   7.486  0.00  0.00    -0.268 OA
ATOM     19  N   UNL     1       1.644  -2.130   5.990  0.00  0.00    -0.152 NA
ATOM     20  C   UNL     1       1.036  -1.726   4.903  0.00  0.00    +0.181 C 
ATOM     21  S   UNL     1      -0.341  -2.424   4.030  0.00  0.00    -0.038 S 
ATOM     22  H   UNL     1       1.766   1.886   3.650  0.00  0.00    +0.188 HD
BRANCH  10  24
ATOM     23  C   UNL     1      -0.883  -0.072   0.557  0.00  0.00    +0.011 C 
ATOM     24  C   UNL     1      -1.258  -1.254   1.453  0.00  0.00    +0.061 C 
ENDBRANCH  10  24
ENDBRANCH   1  16
BRANCH   3  25
ATOM     25  C   UNL     1       6.958  -3.876   7.667  0.00  0.00    +0.159 C 
BRANCH  25  26
ATOM     26  C   UNL     1       6.251  -4.281   8.934  0.00  0.00    +0.002 A 
ATOM     27  C   UNL     1       5.488  -3.358   9.625  0.00  0.00    +0.007 A 
ATOM     28  C   UNL     1       4.839  -3.730  10.788  0.00  0.00    +0.000 A 
ATOM     29  C   UNL     1       4.952  -5.025  11.259  0.00  0.00    +0.002 A 
ATOM     30  C   UNL     1       5.714  -5.948  10.567  0.00  0.00    +0.033 A 
ATOM     31  C   UNL     1       6.360  -5.577   9.402  0.00  0.00    +0.131 A 
BRANCH  31  32
ATOM     32  N   UNL     1       7.172  -6.566   8.659  0.00  0.00    +0.057 N 
ATOM     33  O   UNL     1       7.188  -7.723   9.012  0.00  0.00    -0.126 OA
ATOM     34  O   UNL     1       7.819  -6.218   7.699  0.00  0.00    -0.126 OA
ENDBRANCH  31  32
ENDBRANCH  25  26
ENDBRANCH   3  25
TORSDOF 5
