REMARK  Name = ZINC60544758
REMARK  4 active torsions:
REMARK  status: ('A' for Active; 'I' for Inactive)
REMARK    1  A    between atoms: C_1  and  C_2
REMARK    2  A    between atoms: C_5  and  S_7
REMARK    3  A    between atoms: S_7  and  N_10
REMARK    4  A    between atoms: C_13  and  C_16
REMARK                            x       y       z     vdW  Elec       q    Type
REMARK                         _______ _______ _______ _____ _____    ______ ____
ROOT
ATOM      1  S   UNL     1       1.134  -4.300  -0.029  0.00  0.00    +0.107 S 
ATOM      2  O   UNL     1       2.445  -4.240   0.516  0.00  0.00    -0.146 OA
ATOM      3  O   UNL     1       0.117  -5.126   0.522  0.00  0.00    -0.146 OA
ENDROOT
BRANCH   1   4
ATOM      4  N   UNL     1       1.300  -4.748  -1.614  0.00  0.00    -0.103 NA
ATOM      5  C   UNL     1       1.753  -5.941  -1.914  0.00  0.00    +0.192 A 
ATOM      6  N   UNL     1       1.972  -6.507  -3.151  0.00  0.00    -0.336 N 
ATOM      7  C   UNL     1       2.455  -7.782  -3.207  0.00  0.00    +0.022 A 
ATOM      8  C   UNL     1       2.705  -8.454  -2.084  0.00  0.00    +0.069 A 
ATOM      9  S   UNL     1       2.260  -7.265  -0.828  0.00  0.00    -0.057 S 
ATOM     10  C   UNL     1       2.705  -8.432  -4.543  0.00  0.00    +0.064 C 
ATOM     11  H   UNL     1       1.786  -6.011  -3.963  0.00  0.00    +0.168 HD
ENDBRANCH   1   4
BRANCH   1  16
ATOM     12  C   UNL     1      -0.018   1.503   0.010  0.00  0.00    +0.051 C 
ATOM     13  C   UNL     1       0.002  -0.004   0.002  0.00  0.00    -0.011 A 
ATOM     14  C   UNL     1      -1.039  -0.872   0.002  0.00  0.00    +0.013 A 
ATOM     15  C   UNL     1      -0.780  -2.230  -0.007  0.00  0.00    +0.037 A 
ATOM     16  C   UNL     1       0.507  -2.653  -0.016  0.00  0.00    +0.150 A 
ATOM     17  S   UNL     1       1.404  -1.109  -0.018  0.00  0.00    -0.073 S 
ENDBRANCH   1  16
TORSDOF 2
