REMARK  Name = ZINC65530801
REMARK  3 active torsions:
REMARK  status: ('A' for Active; 'I' for Inactive)
REMARK    1  A    between atoms: C_15  and  C_17
REMARK    2  A    between atoms: N_19  and  C_22
REMARK    3  A    between atoms: C_22  and  C_23
REMARK                            x       y       z     vdW  Elec       q    Type
REMARK                         _______ _______ _______ _____ _____    ______ ____
ROOT
ATOM      1  C   UNL     1       0.747   0.845  -4.620  0.00  0.00    +0.001 A 
ATOM      2  C   UNL     1      -0.510   0.282  -4.882  0.00  0.00    +0.002 A 
ATOM      3  C   UNL     1      -0.787  -1.019  -4.651  0.00  0.00    +0.026 A 
ATOM      4  C   UNL     1       0.208  -1.884  -4.121  0.00  0.00    +0.043 A 
ATOM      5  N   UNL     1       0.175  -3.157  -3.796  0.00  0.00    -0.376 N 
ATOM      6  C   UNL     1       1.511  -3.561  -3.366  0.00  0.00    +0.124 C 
ATOM      7  C   UNL     1       1.503  -4.146  -1.949  0.00  0.00    +0.137 C 
ATOM      8  N   UNL     1       2.887  -4.144  -1.451  0.00  0.00    -0.294 N 
ATOM      9  C   UNL     1       3.637  -2.888  -1.335  0.00  0.00    +0.112 C 
ATOM     10  C   UNL     1       3.707  -2.208  -2.715  0.00  0.00    +0.052 C 
ATOM     11  C   UNL     1       2.328  -2.280  -3.330  0.00  0.00    -0.036 C 
ATOM     12  C   UNL     1       1.545  -1.312  -3.828  0.00  0.00    -0.001 A 
ATOM     13  C   UNL     1       1.763   0.112  -4.113  0.00  0.00    +0.010 A 
ATOM     14  C   UNL     1       3.472  -5.306  -1.099  0.00  0.00    +0.268 C 
ATOM     15  O   UNL     1       4.658  -5.333  -0.831  0.00  0.00    -0.268 OA
ATOM     16  H   UNL     1      -0.606  -3.732  -3.836  0.00  0.00    +0.160 HD
ENDROOT
BRANCH  14  17
ATOM     17  C   UNL     1       2.674  -6.545  -1.037  0.00  0.00    +0.167 A 
ATOM     18  C   UNL     1       3.166  -7.802  -0.832  0.00  0.00    +0.143 A 
ATOM     19  N   UNL     1       2.110  -8.642  -0.847  0.00  0.00    -0.251 N 
ATOM     20  N   UNL     1       0.970  -7.856  -1.065  0.00  0.00    -0.065 NA
ATOM     21  N   UNL     1       1.338  -6.626  -1.167  0.00  0.00    -0.125 NA
BRANCH  19  22
ATOM     22  C   UNL     1       2.148 -10.095  -0.668  0.00  0.00    +0.147 C 
BRANCH  22  23
ATOM     23  C   UNL     1       1.212 -10.493   0.475  0.00  0.00    -0.007 C 
ATOM     24  C   UNL     1      -0.234 -10.172   0.087  0.00  0.00    +0.001 C 
ATOM     25  C   UNL     1      -1.169 -10.645   1.203  0.00  0.00    -0.019 C 
ATOM     26  C   UNL     1      -0.951 -12.141   1.444  0.00  0.00    -0.083 C 
ATOM     27  N   UNL     1       0.443 -12.379   1.837  0.00  0.00    +0.379 N 
ATOM     28  C   UNL     1       1.342 -11.994   0.744  0.00  0.00    -0.077 C 
ATOM     29  H   UNL     1       0.658 -11.831   2.657  0.00  0.00    -0.086 HD
ATOM     30  H   UNL     1       0.569 -13.357   2.047  0.00  0.00    -0.086 HD
ENDBRANCH  22  23
ENDBRANCH  19  22
ENDBRANCH  14  17
TORSDOF 3
