REMARK  Name = ZINC02127394
REMARK  10 active torsions:
REMARK  status: ('A' for Active; 'I' for Inactive)
REMARK    1  A    between atoms: C_1  and  C_2
REMARK    2  A    between atoms: C_2  and  C_3
REMARK    3  A    between atoms: C_3  and  O_4
REMARK    4  A    between atoms: O_4  and  C_5
REMARK    5  A    between atoms: C_8  and  C_13
REMARK    6  A    between atoms: C_10  and  O_11
REMARK    7  A    between atoms: O_11  and  C_12
REMARK    8  A    between atoms: N_20  and  C_35
REMARK    9  A    between atoms: C_23  and  C_34
REMARK   10  A    between atoms: C_35  and  C_36
REMARK                            x       y       z     vdW  Elec       q    Type
REMARK                         _______ _______ _______ _____ _____    ______ ____
ROOT
ATOM      1  C   UNL     1       3.317  -1.052  -5.120  0.00  0.00    +0.069 C 
ATOM      2  C   UNL     1       1.894  -0.849  -5.656  0.00  0.00    +0.122 C 
ATOM      3  N   UNL     1       1.096  -0.150  -4.632  0.00  0.00    -0.280 N 
ATOM      4  C   UNL     1       0.056  -0.774  -4.072  0.00  0.00    +0.234 C 
ATOM      5  O   UNL     1      -0.277  -1.846  -4.533  0.00  0.00    -0.274 OA
ATOM      6  C   UNL     1      -0.723  -0.238  -2.916  0.00  0.00    +0.203 C 
ATOM      7  N   UNL     1      -0.187   1.023  -2.431  0.00  0.00    -0.288 N 
ATOM      8  C   UNL     1       0.801   1.686  -3.031  0.00  0.00    +0.245 C 
ATOM      9  O   UNL     1       1.169   2.731  -2.539  0.00  0.00    -0.273 OA
ATOM     10  C   UNL     1       1.485   1.214  -4.271  0.00  0.00    +0.151 C 
ATOM     11  C   UNL     1       2.985   1.242  -4.098  0.00  0.00    +0.054 A 
ATOM     12  C   UNL     1       3.792   0.228  -4.483  0.00  0.00    -0.008 A 
ATOM     13  C   UNL     1       5.148   0.623  -4.160  0.00  0.00    +0.004 A 
ATOM     14  C   UNL     1       6.384  -0.009  -4.324  0.00  0.00    +0.010 A 
ATOM     15  C   UNL     1       7.494   0.675  -3.891  0.00  0.00    +0.001 A 
ATOM     16  C   UNL     1       7.406   1.933  -3.318  0.00  0.00    +0.002 A 
ATOM     17  C   UNL     1       6.196   2.582  -3.144  0.00  0.00    +0.026 A 
ATOM     18  C   UNL     1       5.052   1.912  -3.574  0.00  0.00    +0.047 A 
ATOM     19  N   UNL     1       3.730   2.252  -3.553  0.00  0.00    -0.356 N 
ATOM     20  H   UNL     1       3.373   3.084  -3.205  0.00  0.00    +0.166 HD
ATOM     21  C   UNL     1       1.101   2.156  -5.414  0.00  0.00    +0.048 C 
ENDROOT
BRANCH   1  25
ATOM     22  C   UNL     1       5.922  -2.097  -8.346  0.00  0.00    +0.162 A 
ATOM     23  C   UNL     1       5.241  -0.891  -8.365  0.00  0.00    +0.050 A 
ATOM     24  C   UNL     1       4.399  -0.555  -7.320  0.00  0.00    +0.008 A 
ATOM     25  C   UNL     1       4.235  -1.422  -6.256  0.00  0.00    -0.035 A 
ATOM     26  C   UNL     1       4.915  -2.625  -6.229  0.00  0.00    +0.053 A 
ATOM     27  C   UNL     1       5.756  -2.970  -7.275  0.00  0.00    +0.162 A 
BRANCH  27  28
ATOM     28  O   UNL     1       6.422  -4.155  -7.252  0.00  0.00    -0.491 OA
ATOM     29  C   UNL     1       6.204  -5.000  -6.120  0.00  0.00    +0.277 C 
ENDBRANCH  27  28
BRANCH  22  30
ATOM     30  O   UNL     1       6.750  -2.428  -9.373  0.00  0.00    -0.488 OA
BRANCH  30  31
ATOM     31  C   UNL     1       6.871  -1.484 -10.439  0.00  0.00    +0.229 C 
BRANCH  31  33
ATOM     32  C   UNL     1       7.968  -1.016 -12.634  0.00  0.00    +0.007 C 
ATOM     33  C   UNL     1       7.838  -2.027 -11.493  0.00  0.00    +0.038 C 
ENDBRANCH  31  33
ENDBRANCH  30  31
ENDBRANCH  22  30
ENDBRANCH   1  25
BRANCH   7  34
ATOM     34  C   UNL     1      -0.770   1.601  -1.217  0.00  0.00    +0.140 C 
BRANCH  34  35
ATOM     35  C   UNL     1      -0.013   1.086   0.008  0.00  0.00    +0.136 C 
ATOM     36  C   UNL     1      -0.692   1.593   1.298  0.00  0.00    +0.035 C 
ATOM     37  C   UNL     1       0.525   1.919   2.206  0.00  0.00    +0.031 C 
ATOM     38  C   UNL     1       1.552   2.412   1.155  0.00  0.00    +0.160 C 
ATOM     39  O   UNL     1       1.328   1.590  -0.002  0.00  0.00    -0.375 OA
ENDBRANCH  34  35
ENDBRANCH   7  34
TORSDOF 7
