REMARK  Name = ZINC32695902
REMARK  5 active torsions:
REMARK  status: ('A' for Active; 'I' for Inactive)
REMARK    1  A    between atoms: C_4  and  C_7
REMARK    2  A    between atoms: C_11  and  C_19
REMARK    3  A    between atoms: C_12  and  N_13
REMARK    4  A    between atoms: N_20  and  N_21
REMARK    5  A    between atoms: C_30  and  O_31
REMARK                            x       y       z     vdW  Elec       q    Type
REMARK                         _______ _______ _______ _____ _____    ______ ____
ROOT
ATOM      1  C   UNL     1       3.698  -0.672   0.157  0.00  0.00    +0.013 C 
ATOM      2  C   UNL     1       3.720  -2.025   0.151  0.00  0.00    -0.025 C 
ATOM      3  C   UNL     1       4.960  -2.886   0.222  0.00  0.00    +0.042 C 
ATOM      4  C   UNL     1       4.440  -4.333   0.181  0.00  0.00    +0.043 C 
ATOM      5  C   UNL     1       2.938  -4.210   0.090  0.00  0.00    -0.006 C 
ATOM      6  C   UNL     1       2.591  -2.864   0.083  0.00  0.00    +0.038 C 
ENDROOT
BRANCH   1  10
ATOM      7  C   UNL     1       0.111   1.387   1.095  0.00  0.00    +0.000 A 
ATOM      8  C   UNL     1       0.489   0.285   1.844  0.00  0.00    +0.001 A 
ATOM      9  C   UNL     1       1.653  -0.390   1.546  0.00  0.00    +0.008 A 
ATOM     10  C   UNL     1       2.454   0.042   0.482  0.00  0.00    -0.025 A 
ATOM     11  C   UNL     1       2.066   1.157  -0.270  0.00  0.00    +0.008 A 
ATOM     12  C   UNL     1       0.898   1.820   0.042  0.00  0.00    +0.001 A 
ENDBRANCH   1  10
BRANCH   6  13
ATOM     13  N   UNL     1       1.298  -2.405   0.014  0.00  0.00    -0.325 N 
ATOM     14  C   UNL     1       0.859  -1.540  -1.093  0.00  0.00    +0.133 C 
ATOM     15  C   UNL     1      -0.425  -2.131  -1.687  0.00  0.00    +0.178 C 
ATOM     16  O   UNL     1      -1.372  -2.349  -0.638  0.00  0.00    -0.377 OA
ATOM     17  C   UNL     1      -0.947  -3.294   0.347  0.00  0.00    +0.178 C 
ATOM     18  C   UNL     1       0.309  -2.768   1.042  0.00  0.00    +0.133 C 
ENDBRANCH   6  13
BRANCH   5  19
ATOM     19  C   UNL     1       2.049  -5.266   0.030  0.00  0.00    +0.140 C 
ATOM     20  N   UNL     1       2.492  -6.517   0.157  0.00  0.00    -0.157 NA
BRANCH  20  21
ATOM     21  N   UNL     1       1.662  -7.503   0.100  0.00  0.00    -0.144 NA
ATOM     22  C   UNL     1       2.103  -8.751   0.227  0.00  0.00    +0.156 C 
ATOM     23  C   UNL     1       3.493  -9.195   0.442  0.00  0.00    +0.033 A 
ATOM     24  C   UNL     1       4.713  -8.542   0.574  0.00  0.00    +0.012 A 
ATOM     25  C   UNL     1       5.863  -9.278   0.771  0.00  0.00    +0.001 A 
ATOM     26  C   UNL     1       5.807 -10.663   0.837  0.00  0.00    +0.002 A 
ATOM     27  C   UNL     1       4.608 -11.328   0.708  0.00  0.00    +0.028 A 
ATOM     28  C   UNL     1       3.428 -10.605   0.508  0.00  0.00    +0.077 A 
ATOM     29  N   UNL     1       2.134 -10.978   0.349  0.00  0.00    -0.211 NA
ATOM     30  C   UNL     1       1.337  -9.949   0.190  0.00  0.00    +0.242 C 
BRANCH  30  31
ATOM     31  O   UNL     1      -0.006 -10.016   0.016  0.00  0.00    -0.491 OA
ATOM     32  H   UNL     1      -0.358 -10.917   0.018  0.00  0.00    +0.294 HD
ENDBRANCH  30  31
ENDBRANCH  20  21
ENDBRANCH   5  19
TORSDOF 5
