REMARK  Name = ZINC38596074
REMARK  11 active torsions:
REMARK  status: ('A' for Active; 'I' for Inactive)
REMARK    1  A    between atoms: C_1  and  C_2
REMARK    2  A    between atoms: C_5  and  S_9
REMARK    3  A    between atoms: C_6  and  C_8
REMARK    4  A    between atoms: S_9  and  N_12
REMARK    5  A    between atoms: N_12  and  C_13
REMARK    6  A    between atoms: C_13  and  C_15
REMARK    7  A    between atoms: C_13  and  C_16
REMARK    8  A    between atoms: C_16  and  C_18
REMARK    9  A    between atoms: C_16  and  N_23
REMARK   10  A    between atoms: N_26  and  C_29
REMARK   11  A    between atoms: C_29  and  C_30
REMARK                            x       y       z     vdW  Elec       q    Type
REMARK                         _______ _______ _______ _____ _____    ______ ____
ROOT
ATOM      1  C   UNL     1       2.871  -4.655   1.714  0.00  0.00    +0.112 C 
ENDROOT
BRANCH   1   2
ATOM      2  N   UNL     1       3.143  -4.838   3.145  0.00  0.00    -0.297 NA
ATOM      3  C   UNL     1       2.291  -3.961   3.961  0.00  0.00    +0.066 C 
ATOM      4  C   UNL     1       2.563  -4.226   5.443  0.00  0.00    -0.063 C 
ATOM      5  N   UNL     1       3.979  -3.969   5.735  0.00  0.00    +0.384 N 
ATOM      6  C   UNL     1       4.817  -4.869   4.931  0.00  0.00    -0.063 C 
ATOM      7  C   UNL     1       4.564  -4.611   3.445  0.00  0.00    +0.066 C 
ATOM      8  H   UNL     1       4.201  -3.011   5.508  0.00  0.00    -0.081 HD
BRANCH   5   9
ATOM      9  C   UNL     1       4.236  -4.205   7.162  0.00  0.00    -0.043 C 
BRANCH   9  10
ATOM     10  C   UNL     1       5.657  -3.825   7.486  0.00  0.00    -0.064 A 
ATOM     11  C   UNL     1       6.665  -4.765   7.381  0.00  0.00    +0.002 A 
ATOM     12  C   UNL     1       7.970  -4.417   7.679  0.00  0.00    +0.000 A 
ATOM     13  C   UNL     1       8.266  -3.128   8.081  0.00  0.00    +0.000 A 
ATOM     14  C   UNL     1       7.258  -2.187   8.185  0.00  0.00    +0.000 A 
ATOM     15  C   UNL     1       5.954  -2.535   7.884  0.00  0.00    +0.002 A 
ENDBRANCH   9  10
ENDBRANCH   5   9
ENDBRANCH   1   2
BRANCH   1  16
ATOM     16  C   UNL     1       3.781  -5.548   0.910  0.00  0.00    +0.008 A 
ATOM     17  C   UNL     1       4.432  -5.282  -0.248  0.00  0.00    +0.013 A 
ATOM     18  C   UNL     1       5.224  -6.264  -0.813  0.00  0.00    +0.008 A 
ATOM     19  C   UNL     1       5.326  -7.464  -0.191  0.00  0.00    +0.045 A 
ATOM     20  S   UNL     1       4.287  -7.227   1.242  0.00  0.00    -0.100 S 
ENDBRANCH   1  16
BRANCH   1  21
ATOM     21  C   UNL     1       1.413  -5.017   1.421  0.00  0.00    +0.095 C 
ATOM     22  C   UNL     1       1.147  -6.457   1.865  0.00  0.00    +0.027 C 
BRANCH  21  23
ATOM     23  N   UNL     1       1.158  -4.894  -0.016  0.00  0.00    -0.185 NA
ATOM     24  H   UNL     1       1.846  -5.142  -0.654  0.00  0.00    +0.148 HD
BRANCH  23  25
ATOM     25  S   UNL     1      -0.304  -4.331  -0.552  0.00  0.00    +0.059 S 
ATOM     26  O   UNL     1      -1.302  -5.088   0.119  0.00  0.00    -0.153 OA
ATOM     27  O   UNL     1      -0.220  -4.268  -1.970  0.00  0.00    -0.153 OA
BRANCH  25  32
ATOM     28  C   UNL     1      -0.848   1.353   1.399  0.00  0.00    +0.044 C 
ATOM     29  C   UNL     1      -0.712  -0.067   0.911  0.00  0.00    -0.050 A 
ATOM     30  C   UNL     1      -1.576  -1.042   1.374  0.00  0.00    +0.005 A 
ATOM     31  C   UNL     1      -1.452  -2.344   0.927  0.00  0.00    +0.029 A 
ATOM     32  C   UNL     1      -0.463  -2.671   0.017  0.00  0.00    +0.108 A 
ATOM     33  C   UNL     1       0.400  -1.696  -0.446  0.00  0.00    -0.024 A 
ATOM     34  C   UNL     1       0.273  -0.392  -0.002  0.00  0.00    +0.008 A 
ATOM     35  C   UNL     1       1.477  -2.052  -1.438  0.00  0.00    +0.046 C 
ENDBRANCH  25  32
ENDBRANCH  23  25
ENDBRANCH  21  23
ENDBRANCH   1  21
TORSDOF 8
