REMARK  Name = ZINC40410085
REMARK  10 active torsions:
REMARK  status: ('A' for Active; 'I' for Inactive)
REMARK    1  A    between atoms: C_1  and  C_2
REMARK    2  A    between atoms: C_2  and  C_3
REMARK    3  A    between atoms: C_2  and  C_4
REMARK    4  A    between atoms: C_2  and  C_5
REMARK    5  A    between atoms: C_8  and  C_11
REMARK    6  A    between atoms: N_21  and  C_22
REMARK    7  A    between atoms: C_22  and  C_23
REMARK    8  A    between atoms: C_26  and  O_30
REMARK    9  A    between atoms: C_27  and  O_29
REMARK   10  A    between atoms: O_30  and  C_31
REMARK                            x       y       z     vdW  Elec       q    Type
REMARK                         _______ _______ _______ _____ _____    ______ ____
ROOT
ATOM      1  C   UNL     1       2.697  -2.015  -4.794  0.00  0.00    +0.011 C 
ATOM      2  C   UNL     1       2.533  -0.963  -5.864  0.00  0.00    +0.009 A 
ATOM      3  C   UNL     1       1.437  -0.210  -6.078  0.00  0.00    +0.021 A 
ATOM      4  C   UNL     1       1.708   0.626  -7.180  0.00  0.00    +0.019 A 
ATOM      5  C   UNL     1       2.962   0.354  -7.595  0.00  0.00    +0.086 A 
ATOM      6  N   UNL     1       3.478  -0.613  -6.786  0.00  0.00    -0.352 N 
ATOM      7  C   UNL     1       4.825  -1.188  -6.866  0.00  0.00    +0.119 C 
ATOM      8  C   UNL     1       4.722  -2.712  -6.759  0.00  0.00    +0.003 C 
ATOM      9  C   UNL     1       4.767  -3.130  -5.294  0.00  0.00    -0.075 C 
ATOM     10  N   UNL     1       4.119  -2.131  -4.441  0.00  0.00    +0.391 N 
ATOM     11  H   UNL     1       4.570  -1.238  -4.570  0.00  0.00    -0.080 HD
ENDROOT
BRANCH   1  15
ATOM     12  C   UNL     1       0.457  -0.889  -1.335  0.00  0.00    -0.042 A 
ATOM     13  C   UNL     1       1.484  -0.082  -1.786  0.00  0.00    +0.004 A 
ATOM     14  C   UNL     1       2.209  -0.446  -2.905  0.00  0.00    +0.002 A 
ATOM     15  C   UNL     1       1.907  -1.618  -3.573  0.00  0.00    -0.055 A 
ATOM     16  C   UNL     1       0.881  -2.426  -3.122  0.00  0.00    +0.002 A 
ATOM     17  C   UNL     1       0.158  -2.064  -2.000  0.00  0.00    +0.004 A 
BRANCH  12  19
ATOM     18  C   UNL     1      -0.190  -1.572   0.960  0.00  0.00    +0.015 C 
ATOM     19  C   UNL     1      -0.334  -0.492  -0.115  0.00  0.00    -0.013 C 
ATOM     20  C   UNL     1      -1.809  -0.340  -0.491  0.00  0.00    +0.015 C 
ATOM     21  C   UNL     1       0.195   0.838   0.424  0.00  0.00    +0.015 C 
ENDBRANCH  12  19
ENDBRANCH   1  15
BRANCH  10  22
ATOM     22  C   UNL     1       4.241  -2.538  -3.035  0.00  0.00    -0.042 C 
BRANCH  22  23
ATOM     23  C   UNL     1       5.696  -2.571  -2.646  0.00  0.00    -0.060 A 
ATOM     24  C   UNL     1       6.428  -3.732  -2.811  0.00  0.00    +0.005 A 
ATOM     25  C   UNL     1       7.764  -3.767  -2.455  0.00  0.00    +0.049 A 
ATOM     26  C   UNL     1       8.371  -2.637  -1.933  0.00  0.00    +0.161 A 
ATOM     27  C   UNL     1       7.635  -1.468  -1.767  0.00  0.00    +0.159 A 
ATOM     28  C   UNL     1       6.298  -1.438  -2.130  0.00  0.00    +0.051 A 
BRANCH  27  29
ATOM     29  O   UNL     1       8.227  -0.356  -1.255  0.00  0.00    -0.503 OA
ATOM     30  H   UNL     1       8.622   0.222  -1.922  0.00  0.00    +0.292 HD
ENDBRANCH  27  29
BRANCH  26  31
ATOM     31  O   UNL     1       9.685  -2.670  -1.582  0.00  0.00    -0.491 OA
ATOM     32  C   UNL     1      10.378  -3.904  -1.780  0.00  0.00    +0.277 C 
ENDBRANCH  26  31
ENDBRANCH  22  23
ENDBRANCH  10  22
TORSDOF 6
