REMARK  Name = ZINC33701456
REMARK  10 active torsions:
REMARK  status: ('A' for Active; 'I' for Inactive)
REMARK    1  A    between atoms: C_1  and  C_2
REMARK    2  A    between atoms: C_2  and  C_4
REMARK    3  A    between atoms: C_2  and  O_31
REMARK    4  A    between atoms: C_4  and  C_6
REMARK    5  A    between atoms: C_4  and  N_9
REMARK    6  A    between atoms: C_10  and  C_12
REMARK    7  A    between atoms: C_15  and  C_18
REMARK    8  A    between atoms: C_18  and  O_19
REMARK    9  A    between atoms: O_19  and  C_20
REMARK   10  A    between atoms: C_23  and  N_26
REMARK                            x       y       z     vdW  Elec       q    Type
REMARK                         _______ _______ _______ _____ _____    ______ ____
ROOT
ATOM      1  C   UNL     1       3.620 -11.724   0.569  0.00  0.00    +0.037 A 
ATOM      2  C   UNL     1       3.374 -11.225   1.849  0.00  0.00    +0.013 A 
ATOM      3  C   UNL     1       2.242 -10.473   2.087  0.00  0.00    +0.008 A 
ATOM      4  C   UNL     1       1.353 -10.212   1.060  0.00  0.00    -0.010 A 
ATOM      5  C   UNL     1       1.588 -10.707  -0.210  0.00  0.00    +0.008 A 
ATOM      6  C   UNL     1       2.719 -11.457  -0.462  0.00  0.00    +0.013 A 
ENDROOT
BRANCH   1   8
ATOM      7  N   UNL     1       5.066 -13.011  -0.930  0.00  0.00    -0.298 N 
ATOM      8  C   UNL     1       4.831 -12.531   0.307  0.00  0.00    +0.245 C 
ATOM      9  O   UNL     1       5.614 -12.762   1.207  0.00  0.00    -0.270 OA
ATOM     10  H   UNL     1       4.357 -12.802  -1.745  0.00  0.00    +0.150 HD
BRANCH   7  11
ATOM     11  C   UNL     1       6.266 -13.810  -1.190  0.00  0.00    +0.187 C 
BRANCH  11  12
ATOM     12  C   UNL     1       6.024 -14.708  -2.377  0.00  0.00    +0.233 C 
ATOM     13  O   UNL     1       5.254 -14.365  -3.249  0.00  0.00    -0.274 OA
ATOM     14  N   UNL     1       6.662 -15.891  -2.468  0.00  0.00    -0.328 N 
ATOM     15  H   UNL     1       6.486 -16.546  -3.333  0.00  0.00    +0.145 HD
ATOM     16  H   UNL     1       7.360 -16.202  -1.676  0.00  0.00    +0.145 HD
ENDBRANCH  11  12
BRANCH  11  18
ATOM     17  C   UNL     1       7.758 -12.044  -0.244  0.00  0.00    +0.040 C 
ATOM     18  C   UNL     1       7.444 -12.881  -1.486  0.00  0.00    +0.141 C 
BRANCH  18  19
ATOM     19  O   UNL     1       8.589 -13.660  -1.837  0.00  0.00    -0.390 OA
ATOM     20  H   UNL     1       8.553 -14.329  -2.710  0.00  0.00    +0.210 HD
ENDBRANCH  18  19
ENDBRANCH  11  18
ENDBRANCH   7  11
ENDBRANCH   1   8
BRANCH   4  21
ATOM     21  C   UNL     1       0.119  -9.390   1.328  0.00  0.00    +0.264 C 
BRANCH  21  22
ATOM     22  O   UNL     1       0.410  -8.008   1.107  0.00  0.00    -0.487 OA
BRANCH  22  23
ATOM     23  C   UNL     1      -0.604  -7.124   1.306  0.00  0.00    +0.121 A 
ATOM     24  C   UNL     1      -0.390  -5.768   1.110  0.00  0.00    +0.047 A 
ATOM     25  C   UNL     1      -1.419  -4.870   1.312  0.00  0.00    +0.030 A 
ATOM     26  C   UNL     1      -2.668  -5.325   1.711  0.00  0.00    +0.048 A 
ATOM     27  C   UNL     1      -2.881  -6.681   1.912  0.00  0.00    +0.030 A 
ATOM     28  C   UNL     1      -1.852  -7.579   1.706  0.00  0.00    +0.047 A 
BRANCH  26  29
ATOM     29  N   UNL     1      -3.715  -4.412   1.917  0.00  0.00    -0.306 N 
ATOM     30  C   UNL     1      -4.993  -4.713   2.309  0.00  0.00    +0.112 A 
ATOM     31  C   UNL     1      -5.663  -3.548   2.383  0.00  0.00    +0.130 A 
ATOM     32  N   UNL     1      -4.822  -2.559   2.046  0.00  0.00    -0.244 NA
ATOM     33  C   UNL     1      -3.652  -3.064   1.765  0.00  0.00    +0.204 A 
ENDBRANCH  26  29
ENDBRANCH  22  23
ENDBRANCH  21  22
ENDBRANCH   4  21
TORSDOF 9
