REMARK  Name = ZINC19789871
REMARK  7 active torsions:
REMARK  status: ('A' for Active; 'I' for Inactive)
REMARK    1  A    between atoms: C_1  and  N_2
REMARK    2  A    between atoms: N_5  and  C_8
REMARK    3  A    between atoms: N_12  and  C_17
REMARK    4  A    between atoms: C_14  and  O_16
REMARK    5  A    between atoms: N_20  and  C_23
REMARK    6  A    between atoms: C_26  and  O_29
REMARK    7  A    between atoms: O_29  and  C_30
REMARK                            x       y       z     vdW  Elec       q    Type
REMARK                         _______ _______ _______ _____ _____    ______ ____
ROOT
ATOM      1  C   UNL     1       0.724  -1.955   1.242  0.00  0.00    +0.081 C 
ATOM      2  C   UNL     1      -0.686  -2.429   1.603  0.00  0.00    +0.003 C 
ATOM      3  C   UNL     1      -0.689  -3.954   1.733  0.00  0.00    -0.077 C 
ATOM      4  N   UNL     1       0.265  -4.360   2.773  0.00  0.00    +0.383 N 
ATOM      5  C   UNL     1       1.633  -3.957   2.426  0.00  0.00    -0.045 C 
ATOM      6  C   UNL     1       1.705  -2.432   2.317  0.00  0.00    +0.115 C 
ATOM      7  H   UNL     1      -0.012  -3.840   3.702  0.00  0.00    -0.081 HD
ENDROOT
BRANCH   1  12
ATOM      8  C   UNL     1      -0.371   3.586   1.217  0.00  0.00    -0.096 C 
ATOM      9  N   UNL     1      -0.393   2.119   1.286  0.00  0.00    +0.379 N 
ATOM     10  C   UNL     1       0.469   1.629   2.371  0.00  0.00    -0.064 C 
ATOM     11  C   UNL     1       0.356   0.106   2.460  0.00  0.00    +0.066 C 
ATOM     12  N   UNL     1       0.746  -0.488   1.173  0.00  0.00    -0.301 NA
ATOM     13  C   UNL     1      -0.116   0.002   0.088  0.00  0.00    +0.066 C 
ATOM     14  C   UNL     1      -0.003   1.526  -0.001  0.00  0.00    -0.064 C 
ATOM     15  H   UNL     1      -1.425   1.807   1.505  0.00  0.00    -0.082 HD
ENDBRANCH   1  12
BRANCH   4  16
ATOM     16  C   UNL     1       0.189  -5.806   3.022  0.00  0.00    -0.066 C 
ATOM     17  C   UNL     1       0.612  -6.564   1.761  0.00  0.00    +0.004 C 
ATOM     18  C   UNL     1       0.472  -8.069   2.006  0.00  0.00    +0.103 C 
ATOM     19  N   UNL     1      -0.921  -8.384   2.345  0.00  0.00    -0.330 N 
ATOM     20  C   UNL     1      -1.335  -7.703   3.579  0.00  0.00    +0.103 C 
ATOM     21  C   UNL     1      -1.249  -6.188   3.381  0.00  0.00    +0.004 C 
BRANCH  19  22
ATOM     22  C   UNL     1      -1.112  -9.766   2.447  0.00  0.00    +0.030 A 
ATOM     23  C   UNL     1      -1.627 -10.312   3.615  0.00  0.00    +0.027 A 
ATOM     24  C   UNL     1      -1.821 -11.677   3.712  0.00  0.00    +0.047 A 
ATOM     25  C   UNL     1      -1.490 -12.502   2.648  0.00  0.00    +0.120 A 
ATOM     26  C   UNL     1      -0.971 -11.958   1.483  0.00  0.00    +0.047 A 
ATOM     27  C   UNL     1      -0.782 -10.594   1.382  0.00  0.00    +0.027 A 
BRANCH  25  28
ATOM     28  O   UNL     1      -1.675 -13.846   2.747  0.00  0.00    -0.495 OA
ATOM     29  C   UNL     1      -2.214 -14.338   3.976  0.00  0.00    +0.277 C 
ENDBRANCH  25  28
ENDBRANCH  19  22
ENDBRANCH   4  16
BRANCH   6  30
ATOM     30  O   UNL     1       3.032  -2.041   1.958  0.00  0.00    -0.392 OA
ATOM     31  H   UNL     1       3.877  -2.298   2.614  0.00  0.00    +0.210 HD
ENDBRANCH   6  30
TORSDOF 5
