REMARK  Name = ZINC36701731
REMARK  4 active torsions:
REMARK  status: ('A' for Active; 'I' for Inactive)
REMARK    1  A    between atoms: C_1  and  C_2
REMARK    2  A    between atoms: C_4  and  C_19
REMARK    3  A    between atoms: C_6  and  C_14
REMARK    4  A    between atoms: N_21  and  C_22
REMARK                            x       y       z     vdW  Elec       q    Type
REMARK                         _______ _______ _______ _____ _____    ______ ____
ROOT
ATOM      1  C   UNL     1       2.359   1.193  -1.021  0.00  0.00    +0.028 C 
ATOM      2  C   UNL     1       2.682  -0.243  -1.441  0.00  0.00    +0.084 C 
ATOM      3  C   UNL     1       1.379  -1.027  -1.635  0.00  0.00    +0.125 C 
ATOM      4  C   UNL     1       0.500  -0.322  -2.676  0.00  0.00    +0.161 C 
ATOM      5  N   UNL     1       1.312  -0.023  -3.855  0.00  0.00    -0.224 N 
ATOM      6  C   UNL     1       2.667   0.013  -3.860  0.00  0.00    +0.214 A 
ATOM      7  N   UNL     1       3.059   0.304  -5.071  0.00  0.00    -0.202 NA
ATOM      8  C   UNL     1       1.990   0.462  -5.860  0.00  0.00    +0.247 A 
ATOM      9  N   UNL     1       0.903   0.271  -5.156  0.00  0.00    -0.156 NA
ATOM     10  N   UNL     1       3.423  -0.230  -2.717  0.00  0.00    -0.310 N 
ATOM     11  H   UNL     1       4.380  -0.385  -2.755  0.00  0.00    +0.149 HD
ENDROOT
BRANCH   4  12
ATOM     12  C   UNL     1      -0.645  -1.221  -3.062  0.00  0.00    +0.015 A 
ATOM     13  C   UNL     1      -1.970  -1.071  -2.816  0.00  0.00    +0.013 A 
ATOM     14  C   UNL     1      -2.850  -2.034  -3.272  0.00  0.00    +0.008 A 
ATOM     15  C   UNL     1      -2.363  -3.100  -3.952  0.00  0.00    +0.045 A 
ATOM     16  S   UNL     1      -0.611  -2.758  -3.970  0.00  0.00    -0.099 S 
ENDBRANCH   4  12
BRANCH   3  17
ATOM     17  C   UNL     1       1.700  -2.420  -2.113  0.00  0.00    +0.224 C 
ATOM     18  O   UNL     1       2.479  -2.583  -3.028  0.00  0.00    -0.275 OA
ATOM     19  N   UNL     1       1.120  -3.485  -1.524  0.00  0.00    -0.285 N 
ATOM     20  H   UNL     1       0.443  -3.352  -0.842  0.00  0.00    +0.155 HD
BRANCH  19  21
ATOM     21  C   UNL     1       1.496  -4.781  -1.895  0.00  0.00    +0.033 A 
ATOM     22  C   UNL     1       0.551  -5.798  -1.923  0.00  0.00    +0.025 A 
ATOM     23  C   UNL     1       0.924  -7.076  -2.290  0.00  0.00    +0.022 A 
ATOM     24  C   UNL     1       2.239  -7.343  -2.628  0.00  0.00    +0.041 A 
ATOM     25  C   UNL     1       3.183  -6.332  -2.600  0.00  0.00    +0.022 A 
ATOM     26  C   UNL     1       2.814  -5.051  -2.240  0.00  0.00    +0.025 A 
ATOM     27 CL   UNL     1       2.705  -8.951  -3.088  0.00  0.00    -0.084 Cl
ENDBRANCH  19  21
ENDBRANCH   3  17
TORSDOF 3
