REMARK  Name = ZINC39015606
REMARK  11 active torsions:
REMARK  status: ('A' for Active; 'I' for Inactive)
REMARK    1  A    between atoms: C_1  and  C_2
REMARK    2  A    between atoms: C_4  and  C_36
REMARK    3  A    between atoms: C_5  and  N_9
REMARK    4  A    between atoms: C_10  and  C_12
REMARK    5  A    between atoms: C_12  and  S_13
REMARK    6  A    between atoms: S_13  and  C_14
REMARK    7  A    between atoms: C_18  and  C_22
REMARK    8  A    between atoms: N_20  and  N_21
REMARK    9  A    between atoms: C_25  and  C_28
REMARK   10  A    between atoms: C_31  and  O_34
REMARK   11  A    between atoms: O_34  and  C_35
REMARK                            x       y       z     vdW  Elec       q    Type
REMARK                         _______ _______ _______ _____ _____    ______ ____
ROOT
ATOM      1  C   UNL     1       1.271  -8.753   2.411  0.00  0.00    +0.214 C 
ATOM      2  N   UNL     1       2.151  -9.095   1.264  0.00  0.00    -0.228 NA
ATOM      3  N   UNL     1       1.698 -10.421   0.835  0.00  0.00    -0.234 NA
ATOM      4  C   UNL     1       0.300 -10.564   1.291  0.00  0.00    +0.185 C 
ATOM      5  N   UNL     1      -0.046  -9.307   1.998  0.00  0.00    -0.197 NA
ATOM      6  H   UNL     1       2.053  -8.422   0.519  0.00  0.00    +0.143 HD
ATOM      7  H   UNL     1       1.763 -10.520  -0.167  0.00  0.00    +0.143 HD
ENDROOT
BRANCH   4   8
ATOM      8  C   UNL     1      -0.625 -10.766   0.090  0.00  0.00    +0.187 C 
ATOM      9  C   UNL     1      -0.303 -12.068  -0.622  0.00  0.00    +0.034 C 
ATOM     10  C   UNL     1       0.065 -11.678  -1.858  0.00  0.00    +0.091 C 
ATOM     11  N   UNL     1       0.002 -10.325  -1.966  0.00  0.00    -0.154 NA
ATOM     12  N   UNL     1      -0.371  -9.745  -0.940  0.00  0.00    -0.176 NA
BRANCH  10  13
ATOM     13  C   UNL     1       0.480 -12.597  -2.946  0.00  0.00    +0.002 A 
ATOM     14  C   UNL     1       0.504 -13.973  -2.728  0.00  0.00    +0.013 A 
ATOM     15  C   UNL     1       0.890 -14.824  -3.742  0.00  0.00    +0.046 A 
ATOM     16  C   UNL     1       1.256 -14.311  -4.979  0.00  0.00    +0.120 A 
ATOM     17  C   UNL     1       1.233 -12.941  -5.200  0.00  0.00    +0.046 A 
ATOM     18  C   UNL     1       0.843 -12.085  -4.191  0.00  0.00    +0.013 A 
BRANCH  16  19
ATOM     19  O   UNL     1       1.636 -15.152  -5.976  0.00  0.00    -0.495 OA
ATOM     20  C   UNL     1       2.000 -14.557  -7.224  0.00  0.00    +0.277 C 
ENDBRANCH  16  19
ENDBRANCH  10  13
ENDBRANCH   4   8
BRANCH   5  21
ATOM     21  N   UNL     1      -0.887  -9.569   3.154  0.00  0.00    -0.264 NA
ATOM     22  H   UNL     1      -1.055  -8.724   3.679  0.00  0.00    +0.137 HD
ATOM     23  H   UNL     1      -1.756 -10.002   2.879  0.00  0.00    +0.137 HD
ENDBRANCH   5  21
BRANCH   1  24
ATOM     24  S   UNL     1       1.171  -6.955   2.631  0.00  0.00    -0.115 S 
BRANCH  24  25
ATOM     25  C   UNL     1       0.598  -6.347   1.021  0.00  0.00    +0.168 C 
BRANCH  25  27
ATOM     26  N   UNL     1       0.057  -4.171  -0.023  0.00  0.00    -0.283 N 
ATOM     27  C   UNL     1       0.471  -4.846   1.067  0.00  0.00    +0.227 C 
ATOM     28  O   UNL     1       0.741  -4.246   2.086  0.00  0.00    -0.275 OA
ATOM     29  H   UNL     1      -0.228  -4.655  -0.814  0.00  0.00    +0.155 HD
BRANCH  26  34
ATOM     30  C   UNL     1      -0.016   1.503   0.014  0.00  0.00    +0.044 C 
ATOM     31  C   UNL     1       0.004  -0.004   0.004  0.00  0.00    -0.049 A 
ATOM     32  C   UNL     1      -1.135  -0.711   0.340  0.00  0.00    +0.008 A 
ATOM     33  C   UNL     1      -1.121  -2.092   0.333  0.00  0.00    -0.028 A 
ATOM     34  C   UNL     1       0.039  -2.771  -0.015  0.00  0.00    +0.055 A 
ATOM     35  C   UNL     1       1.183  -2.058  -0.353  0.00  0.00    +0.063 A 
ATOM     36  C   UNL     1       1.160  -0.676  -0.348  0.00  0.00    +0.025 A 
ATOM     37 CL   UNL     1       2.636  -2.902  -0.788  0.00  0.00    -0.082 Cl
ATOM     38  C   UNL     1      -2.363  -2.862   0.701  0.00  0.00    +0.046 C 
ENDBRANCH  26  34
ENDBRANCH  25  27
ENDBRANCH  24  25
ENDBRANCH   1  24
TORSDOF 8
