REMARK  Name = ZINC24750407
REMARK  5 active torsions:
REMARK  status: ('A' for Active; 'I' for Inactive)
REMARK    1  A    between atoms: N_13  and  C_17
REMARK    2  A    between atoms: C_17  and  C_18
REMARK    3  A    between atoms: C_18  and  O_20
REMARK    4  A    between atoms: O_20  and  C_21
REMARK    5  A    between atoms: C_21  and  C_22
REMARK                            x       y       z     vdW  Elec       q    Type
REMARK                         _______ _______ _______ _____ _____    ______ ____
ROOT
ATOM      1  C   UNL     1       1.250  -2.363  -2.685  0.00  0.00    +0.238 C 
ENDROOT
BRANCH   1  14
ATOM      2  C   UNL     1       1.460  -7.752   1.619  0.00  0.00    +0.000 A 
ATOM      3  C   UNL     1       1.046  -6.452   1.389  0.00  0.00    +0.000 A 
ATOM      4  C   UNL     1       1.166  -5.909   0.127  0.00  0.00    +0.006 A 
ATOM      5  C   UNL     1       1.697  -6.656  -0.916  0.00  0.00    -0.012 A 
ATOM      6  C   UNL     1       2.112  -7.950  -0.685  0.00  0.00    -0.042 A 
ATOM      7  C   UNL     1       1.989  -8.496   0.586  0.00  0.00    +0.004 A 
ATOM      8  C   UNL     1       2.709  -8.812  -1.767  0.00  0.00    +0.035 C 
ATOM      9  C   UNL     1       2.364  -8.259  -3.148  0.00  0.00    +0.008 C 
ATOM     10  C   UNL     1       2.743  -6.774  -3.186  0.00  0.00    +0.040 C 
ATOM     11  C   UNL     1       1.796  -6.010  -2.269  0.00  0.00    +0.138 C 
ATOM     12  C   UNL     1       2.250  -4.573  -2.134  0.00  0.00    +0.252 C 
ATOM     13  O   UNL     1       3.301  -4.176  -1.679  0.00  0.00    -0.272 OA
ATOM     14  N   UNL     1       1.238  -3.827  -2.623  0.00  0.00    -0.213 N 
ATOM     15  C   UNL     1       0.225  -4.590  -3.050  0.00  0.00    +0.310 C 
ATOM     16  O   UNL     1      -0.797  -4.146  -3.535  0.00  0.00    -0.252 OA
ATOM     17  N   UNL     1       0.465  -5.904  -2.882  0.00  0.00    -0.281 N 
ATOM     18  H   UNL     1      -0.112  -6.813  -3.105  0.00  0.00    +0.152 HD
ENDBRANCH   1  14
BRANCH   1  19
ATOM     19  C   UNL     1       0.666  -1.802  -1.414  0.00  0.00    +0.326 C 
ATOM     20  O   UNL     1       0.280  -2.548  -0.546  0.00  0.00    -0.249 OA
BRANCH  19  21
ATOM     21  O   UNL     1       0.575  -0.473  -1.247  0.00  0.00    -0.457 OA
BRANCH  21  22
ATOM     22  C   UNL     1       0.002  -0.004   0.002  0.00  0.00    +0.287 C 
BRANCH  22  23
ATOM     23  C   UNL     1      -0.018   1.503   0.010  0.00  0.00    +0.087 A 
ATOM     24  C   UNL     1      -1.206   2.180   0.020  0.00  0.00    +0.097 A 
ATOM     25  C   UNL     1      -1.207   3.577   0.033  0.00  0.00    +0.260 A 
ATOM     26  O   UNL     1      -2.264   4.188   0.046  0.00  0.00    -0.267 OA
ATOM     27  N   UNL     1      -0.021   4.259   0.025  0.00  0.00    -0.255 N 
ATOM     28  C   UNL     1       0.109   5.652   0.032  0.00  0.00    +0.066 A 
ATOM     29  C   UNL     1      -0.939   6.589   0.048  0.00  0.00    +0.027 A 
ATOM     30  C   UNL     1      -0.676   7.938   0.055  0.00  0.00    +0.002 A 
ATOM     31  C   UNL     1       0.623   8.417   0.045  0.00  0.00    +0.001 A 
ATOM     32  C   UNL     1       1.674   7.517   0.029  0.00  0.00    +0.017 A 
ATOM     33  C   UNL     1       1.409   6.167   0.023  0.00  0.00    +0.040 A 
ATOM     34  S   UNL     1       2.425   4.710   0.004  0.00  0.00    -0.049 S 
ATOM     35  C   UNL     1       1.116   3.505   0.010  0.00  0.00    +0.181 A 
ATOM     36  N   UNL     1       1.119   2.194   0.003  0.00  0.00    -0.224 NA
ENDBRANCH  22  23
ENDBRANCH  21  22
ENDBRANCH  19  21
ENDBRANCH   1  19
TORSDOF 5
