REMARK  Name = ZINC05525427
REMARK  3 active torsions:
REMARK  status: ('A' for Active; 'I' for Inactive)
REMARK    1  A    between atoms: C_1  and  C_2
REMARK    2  A    between atoms: C_16  and  C_18
REMARK    3  A    between atoms: C_27  and  N_52
REMARK                            x       y       z     vdW  Elec       q    Type
REMARK                         _______ _______ _______ _____ _____    ______ ____
ROOT
ATOM      1  C   UNL     1      -1.708  10.085   2.503  0.00  0.00    +0.044 C 
ATOM      2  C   UNL     1      -1.704   9.394   1.164  0.00  0.00    -0.050 A 
ATOM      3  C   UNL     1      -0.942   8.256   0.996  0.00  0.00    +0.005 A 
ATOM      4  C   UNL     1      -0.903   7.578  -0.213  0.00  0.00    +0.024 A 
ATOM      5  C   UNL     1      -1.670   8.088  -1.257  0.00  0.00    +0.040 A 
ATOM      6  C   UNL     1      -2.438   9.257  -1.082  0.00  0.00    -0.023 A 
ATOM      7  C   UNL     1      -2.468   9.918   0.129  0.00  0.00    +0.009 A 
ATOM      8  C   UNL     1      -3.101   9.519  -2.375  0.00  0.00    +0.025 C 
ATOM      9  C   UNL     1      -3.239  10.922  -2.909  0.00  0.00    -0.069 C 
ATOM     10  C   UNL     1      -3.282   9.960  -5.183  0.00  0.00    -0.077 C 
ATOM     11  C   UNL     1      -3.017   8.537  -4.621  0.00  0.00    +0.005 C 
ATOM     12  C   UNL     1      -2.192   8.741  -3.369  0.00  0.00    +0.086 C 
ATOM     13  N   UNL     1      -1.801   7.593  -2.566  0.00  0.00    -0.263 N 
ATOM     14  C   UNL     1      -1.612   6.327  -2.985  0.00  0.00    +0.258 C 
ATOM     15  O   UNL     1      -1.651   6.067  -4.174  0.00  0.00    -0.269 OA
ATOM     16  C   UNL     1      -4.213  12.151  -4.765  0.00  0.00    -0.096 C 
ATOM     17  N   UNL     1      -3.997  10.809  -4.198  0.00  0.00    +0.378 N 
ATOM     18  H   UNL     1      -4.910  10.381  -4.002  0.00  0.00    -0.082 HD
ENDROOT
BRANCH  14  19
ATOM     19  C   UNL     1      -1.360   5.262  -2.010  0.00  0.00    +0.075 A 
ATOM     20  C   UNL     1      -0.644   4.089  -2.165  0.00  0.00    +0.024 A 
ATOM     21  C   UNL     1      -0.549   3.233  -1.081  0.00  0.00    -0.036 A 
ATOM     22  C   UNL     1      -1.177   3.622   0.068  0.00  0.00    -0.006 A 
ATOM     23  S   UNL     1      -1.896   5.141  -0.312  0.00  0.00    -0.088 S 
ATOM     24  C   UNL     1      -1.225   2.880   1.368  0.00  0.00    +0.043 C 
ATOM     25  C   UNL     1      -0.774   1.434   1.115  0.00  0.00    +0.005 C 
ATOM     26  C   UNL     1       0.518   1.458   0.292  0.00  0.00    +0.005 C 
ATOM     27  C   UNL     1       0.216   1.913  -1.136  0.00  0.00    +0.036 C 
ENDBRANCH  14  19
TORSDOF 1
