REMARK  Name = ZINC13075504
REMARK  11 active torsions:
REMARK  status: ('A' for Active; 'I' for Inactive)
REMARK    1  A    between atoms: C_1  and  C_2
REMARK    2  A    between atoms: C_7  and  C_8
REMARK    3  A    between atoms: C_8  and  C_10
REMARK    4  A    between atoms: C_8  and  N_11
REMARK    5  A    between atoms: C_12  and  C_14
REMARK    6  A    between atoms: C_14  and  S_15
REMARK    7  A    between atoms: S_15  and  C_16
REMARK    8  A    between atoms: C_19  and  C_28
REMARK    9  A    between atoms: N_20  and  C_21
REMARK   10  A    between atoms: C_28  and  C_30
REMARK   11  A    between atoms: C_28  and  N_66
REMARK                            x       y       z     vdW  Elec       q    Type
REMARK                         _______ _______ _______ _____ _____    ______ ____
ROOT
ATOM      1  C   UNL     1       5.262  -6.350   2.964  0.00  0.00    +0.197 A 
ATOM      2  N   UNL     1       6.289  -5.535   2.898  0.00  0.00    -0.122 NA
ATOM      3  N   UNL     1       7.319  -6.085   3.434  0.00  0.00    -0.135 NA
ATOM      4  C   UNL     1       7.016  -7.274   3.872  0.00  0.00    +0.125 A 
ATOM      5  N   UNL     1       5.692  -7.486   3.594  0.00  0.00    -0.275 N 
ENDROOT
BRANCH   5   6
ATOM      6  C   UNL     1       4.936  -8.630   3.890  0.00  0.00    +0.050 A 
ATOM      7  C   UNL     1       4.700  -8.984   5.211  0.00  0.00    +0.029 A 
ATOM      8  C   UNL     1       3.950 -10.107   5.500  0.00  0.00    +0.040 A 
ATOM      9  C   UNL     1       3.443 -10.886   4.474  0.00  0.00    +0.124 A 
ATOM     10  C   UNL     1       3.683 -10.537   3.155  0.00  0.00    +0.040 A 
ATOM     11  C   UNL     1       4.427  -9.412   2.862  0.00  0.00    +0.029 A 
ATOM     12  F   UNL     1       2.715 -11.988   4.758  0.00  0.00    -0.205 F 
ENDBRANCH   5   6
BRANCH   4  13
ATOM     13  C   UNL     1       7.949  -8.236   4.563  0.00  0.00    -0.002 C 
ATOM     14  C   UNL     1       8.191  -7.769   6.000  0.00  0.00    -0.005 C 
BRANCH  13  20
ATOM     15  C   UNL     1       9.023  -8.630   2.429  0.00  0.00    -0.078 C 
ATOM     16  C   UNL     1      10.352  -8.526   1.679  0.00  0.00    -0.019 C 
ATOM     17  C   UNL     1      11.368  -9.478   2.317  0.00  0.00    -0.004 C 
ATOM     18  C   UNL     1      11.527  -9.125   3.798  0.00  0.00    -0.019 C 
ATOM     19  C   UNL     1      10.163  -9.211   4.487  0.00  0.00    -0.078 C 
ATOM     20  N   UNL     1       9.239  -8.254   3.843  0.00  0.00    +0.386 N 
ATOM     21  H   UNL     1       9.654  -7.316   3.878  0.00  0.00    -0.081 HD
ENDBRANCH  13  20
ENDBRANCH   4  13
BRANCH   1  22
ATOM     22  S   UNL     1       3.635  -6.038   2.363  0.00  0.00    -0.076 S 
BRANCH  22  23
ATOM     23  C   UNL     1       3.863  -4.372   1.693  0.00  0.00    +0.173 C 
BRANCH  23  25
ATOM     24  N   UNL     1       2.493  -2.660   0.548  0.00  0.00    -0.308 N 
ATOM     25  C   UNL     1       2.562  -3.884   1.108  0.00  0.00    +0.224 C 
ATOM     26  O   UNL     1       1.579  -4.593   1.140  0.00  0.00    -0.275 OA
ATOM     27  H   UNL     1       3.279  -2.093   0.522  0.00  0.00    +0.149 HD
BRANCH  24  28
ATOM     28  C   UNL     1       1.229  -2.186  -0.021  0.00  0.00    +0.100 C 
ATOM     29  C   UNL     1       1.096  -2.690  -1.459  0.00  0.00    +0.033 C 
BRANCH  28  36
ATOM     30  C   UNL     1      -1.293  -0.775   0.011  0.00  0.00    +0.044 C 
ATOM     31  C   UNL     1       0.002  -0.004   0.002  0.00  0.00    -0.046 A 
ATOM     32  C   UNL     1      -0.017   1.378   0.010  0.00  0.00    +0.004 A 
ATOM     33  C   UNL     1       1.171   2.086   0.002  0.00  0.00    +0.000 A 
ATOM     34  C   UNL     1       2.377   1.411  -0.015  0.00  0.00    +0.000 A 
ATOM     35  C   UNL     1       2.396   0.029  -0.022  0.00  0.00    +0.006 A 
ATOM     36  C   UNL     1       1.208  -0.679  -0.013  0.00  0.00    -0.025 A 
ENDBRANCH  28  36
ENDBRANCH  24  28
ENDBRANCH  23  25
ENDBRANCH  22  23
ENDBRANCH   1  22
TORSDOF 8
