REMARK  Name = ZINC12316501
REMARK  13 active torsions:
REMARK  status: ('A' for Active; 'I' for Inactive)
REMARK    1  A    between atoms: C_1  and  C_2
REMARK    2  A    between atoms: C_2  and  O_3
REMARK    3  A    between atoms: O_3  and  C_4
REMARK    4  A    between atoms: C_4  and  C_6
REMARK    5  A    between atoms: C_7  and  C_12
REMARK    6  A    between atoms: C_12  and  N_58
REMARK    7  A    between atoms: C_13  and  N_58
REMARK    8  A    between atoms: C_16  and  C_28
REMARK    9  A    between atoms: C_16  and  C_29
REMARK   10  A    between atoms: C_22  and  C_24
REMARK   11  A    between atoms: C_24  and  C_25
REMARK   12  A    between atoms: C_24  and  C_26
REMARK   13  A    between atoms: C_24  and  C_27
REMARK                            x       y       z     vdW  Elec       q    Type
REMARK                         _______ _______ _______ _____ _____    ______ ____
ROOT
ATOM      1  C   UNL     1      -0.839  -6.372   1.253  0.00  0.00    -0.037 C 
ATOM      2  C   UNL     1       0.125  -6.361   2.439  0.00  0.00    -0.005 C 
ATOM      3  C   UNL     1       0.893  -7.686   2.454  0.00  0.00    -0.031 C 
ATOM      4  C   UNL     1      -0.076  -8.801   2.846  0.00  0.00    +0.062 C 
ATOM      5  C   UNL     1      -1.312  -8.747   1.989  0.00  0.00    +0.047 A 
ATOM      6  C   UNL     1      -1.664  -7.629   1.264  0.00  0.00    -0.022 A 
ATOM      7  C   UNL     1      -2.831  -7.669   0.510  0.00  0.00    +0.116 A 
ATOM      8  N   UNL     1      -3.562  -8.770   0.508  0.00  0.00    -0.240 NA
ATOM      9  C   UNL     1      -3.193  -9.823   1.211  0.00  0.00    +0.135 A 
ATOM     10  N   UNL     1      -2.095  -9.819   1.936  0.00  0.00    -0.236 NA
ATOM     11  C   UNL     1       2.029  -7.611   3.477  0.00  0.00    +0.011 C 
ATOM     12  C   UNL     1       1.470  -7.971   1.066  0.00  0.00    +0.011 C 
ENDROOT
BRANCH   9  13
ATOM     13  C   UNL     1      -4.051 -11.062   1.183  0.00  0.00    +0.022 C 
ATOM     14  C   UNL     1      -5.261 -10.824   0.278  0.00  0.00    +0.019 C 
ATOM     15  C   UNL     1      -3.232 -12.236   0.641  0.00  0.00    +0.019 C 
ATOM     16  C   UNL     1      -4.529 -11.383   2.600  0.00  0.00    +0.019 C 
ENDBRANCH   9  13
BRANCH   1  17
ATOM     17  N   UNL     1      -1.739  -5.207   1.344  0.00  0.00    +0.386 N 
ATOM     18  H   UNL     1      -2.615  -5.415   0.851  0.00  0.00    -0.085 HD
ATOM     19  H   UNL     1      -1.941  -5.011   2.332  0.00  0.00    -0.085 HD
BRANCH  17  20
ATOM     20  C   UNL     1      -1.106  -4.022   0.733  0.00  0.00    -0.042 C 
BRANCH  20  22
ATOM     21  C   UNL     1      -2.427  -2.031   1.802  0.00  0.00    +0.170 A 
ATOM     22  C   UNL     1      -2.094  -2.884   0.724  0.00  0.00    -0.013 A 
ATOM     23  C   UNL     1      -2.852  -2.466  -0.317  0.00  0.00    +0.107 A 
ATOM     24  N   UNL     1      -3.584  -1.418   0.118  0.00  0.00    -0.284 N 
ATOM     25  H   UNL     1      -4.234  -0.903  -0.441  0.00  0.00    +0.188 HD
ATOM     26  N   UNL     1      -3.326  -1.177   1.353  0.00  0.00    -0.167 NA
BRANCH  21  27
ATOM     27  C   UNL     1      -1.870  -2.082   3.168  0.00  0.00    +0.360 C 
ATOM     28  O   UNL     1      -1.042  -2.924   3.455  0.00  0.00    -0.243 OA
BRANCH  27  29
ATOM     29  O   UNL     1      -2.280  -1.196   4.097  0.00  0.00    -0.460 OA
BRANCH  29  31
ATOM     30  C   UNL     1      -2.273  -0.224   6.330  0.00  0.00    +0.048 C 
ATOM     31  C   UNL     1      -1.689  -1.306   5.419  0.00  0.00    +0.229 C 
ENDBRANCH  29  31
ENDBRANCH  27  29
ENDBRANCH  21  27
ENDBRANCH  20  22
ENDBRANCH  17  20
ENDBRANCH   1  17
TORSDOF 7
