REMARK  Name = ZINC49152274
REMARK  3 active torsions:
REMARK  status: ('A' for Active; 'I' for Inactive)
REMARK    1  A    between atoms: C_3  and  N_9
REMARK    2  A    between atoms: N_9  and  C_10
REMARK    3  A    between atoms: C_15  and  N_16
REMARK                            x       y       z     vdW  Elec       q    Type
REMARK                         _______ _______ _______ _____ _____    ______ ____
ROOT
ATOM      1  C   UNL     1       3.513   3.520  -0.106  0.00  0.00    +0.054 A 
ATOM      2  C   UNL     1       2.281   4.153  -0.077  0.00  0.00    +0.048 A 
ATOM      3  C   UNL     1       2.205   5.542  -0.162  0.00  0.00    +0.039 A 
ATOM      4  C   UNL     1       3.379   6.277  -0.274  0.00  0.00    -0.016 A 
ATOM      5  C   UNL     1       4.607   5.653  -0.302  0.00  0.00    +0.030 A 
ATOM      6  C   UNL     1       4.684   4.270  -0.213  0.00  0.00    +0.046 A 
ATOM      7  C   UNL     1       2.965   7.729  -0.344  0.00  0.00    +0.133 C 
ATOM      8  C   UNL     1       1.454   7.688  -0.257  0.00  0.00    +0.222 C 
ATOM      9  O   UNL     1       0.705   8.642  -0.276  0.00  0.00    -0.275 OA
ATOM     10  N   UNL     1       1.099   6.396  -0.154  0.00  0.00    -0.285 N 
ATOM     11  H   UNL     1       0.181   6.092  -0.083  0.00  0.00    +0.155 HD
ENDROOT
BRANCH   6  12
ATOM     12  N   UNL     1       5.931   3.631  -0.237  0.00  0.00    -0.357 N 
ATOM     13  H   UNL     1       5.981   2.664  -0.178  0.00  0.00    +0.142 HD
ATOM     14  H   UNL     1       6.744   4.155  -0.312  0.00  0.00    +0.142 HD
ENDBRANCH   6  12
BRANCH   1  15
ATOM     15  N   UNL     1       3.583   2.125  -0.021  0.00  0.00    -0.312 N 
ATOM     16  H   UNL     1       4.436   1.675  -0.125  0.00  0.00    +0.152 HD
BRANCH  15  19
ATOM     17  C   UNL     1       0.360   1.064   1.394  0.00  0.00    +0.017 A 
ATOM     18  C   UNL     1       1.506   1.802   1.166  0.00  0.00    +0.025 A 
ATOM     19  C   UNL     1       2.423   1.380   0.213  0.00  0.00    +0.046 A 
ATOM     20  C   UNL     1       2.187   0.215  -0.508  0.00  0.00    +0.040 A 
ATOM     21  C   UNL     1       1.040  -0.519  -0.275  0.00  0.00    +0.032 A 
ATOM     22  C   UNL     1       0.127  -0.095   0.675  0.00  0.00    +0.019 A 
ATOM     23 BR   UNL     1      -1.442  -1.102   0.992  0.00  0.00    -0.050 Br
ATOM     24 BR   UNL     1       3.433  -0.364  -1.808  0.00  0.00    -0.048 Br
ENDBRANCH  15  19
ENDBRANCH   1  15
TORSDOF 3
