REMARK  Name = ZINC07927868
REMARK  5 active torsions:
REMARK  status: ('A' for Active; 'I' for Inactive)
REMARK    1  A    between atoms: C_4  and  O_7
REMARK    2  A    between atoms: O_7  and  C_8
REMARK    3  A    between atoms: C_13  and  N_14
REMARK    4  A    between atoms: N_14  and  S_15
REMARK    5  A    between atoms: S_15  and  C_18
REMARK                            x       y       z     vdW  Elec       q    Type
REMARK                         _______ _______ _______ _____ _____    ______ ____
ROOT
ATOM      1  N   UNL     1      -0.030   0.987  -0.038  0.00  0.00    -0.213 N 
ATOM      2  H   UNL     1      -0.025   0.017  -0.043  0.00  0.00    +0.174 HD
ENDROOT
BRANCH   1   8
ATOM      3  C   UNL     1       2.289   1.192  -0.700  0.00  0.00    +0.151 A 
ATOM      4  C   UNL     1       3.481   1.897  -0.686  0.00  0.00    +0.049 A 
ATOM      5  C   UNL     1       3.572   3.088   0.009  0.00  0.00    +0.024 A 
ATOM      6  C   UNL     1       2.473   3.584   0.687  0.00  0.00    +0.043 A 
ATOM      7  C   UNL     1       1.277   2.889   0.672  0.00  0.00    +0.048 A 
ATOM      8  C   UNL     1       1.179   1.692  -0.022  0.00  0.00    +0.092 A 
ATOM      9 CL   UNL     1       2.594   5.081   1.557  0.00  0.00    -0.083 Cl
BRANCH   3  10
ATOM     10  O   UNL     1       2.200   0.016  -1.377  0.00  0.00    -0.454 OA
BRANCH  10  14
ATOM     11  C   UNL     1       2.871  -3.478   0.710  0.00  0.00    +0.000 A 
ATOM     12  C   UNL     1       2.666  -3.520  -0.656  0.00  0.00    +0.004 A 
ATOM     13  C   UNL     1       2.441  -2.351  -1.358  0.00  0.00    +0.046 A 
ATOM     14  C   UNL     1       2.421  -1.135  -0.690  0.00  0.00    +0.129 A 
ATOM     15  C   UNL     1       2.633  -1.096   0.681  0.00  0.00    +0.046 A 
ATOM     16  C   UNL     1       2.851  -2.268   1.379  0.00  0.00    +0.004 A 
ENDBRANCH  10  14
ENDBRANCH   3  10
ENDBRANCH   1   8
BRANCH   1  17
ATOM     17  S   UNL     1      -1.467   1.809  -0.057  0.00  0.00    +0.072 S 
ATOM     18  O   UNL     1      -2.495   0.829  -0.104  0.00  0.00    -0.150 OA
ATOM     19  O   UNL     1      -1.391   2.784   0.974  0.00  0.00    -0.150 OA
BRANCH  17  20
ATOM     20  C   UNL     1      -1.543   2.692  -1.580  0.00  0.00    +0.109 A 
ATOM     21  C   UNL     1      -1.048   3.981  -1.659  0.00  0.00    +0.030 A 
ATOM     22  C   UNL     1      -1.100   4.676  -2.850  0.00  0.00    +0.025 A 
ATOM     23  C   UNL     1      -1.663   4.086  -3.980  0.00  0.00    +0.037 A 
ATOM     24  C   UNL     1      -2.162   2.793  -3.886  0.00  0.00    -0.016 A 
ATOM     25  C   UNL     1      -2.104   2.099  -2.698  0.00  0.00    +0.034 A 
ATOM     26  C   UNL     1      -2.696   2.442  -5.256  0.00  0.00    +0.133 C 
ATOM     27  C   UNL     1      -2.429   3.681  -6.083  0.00  0.00    +0.222 C 
ATOM     28  O   UNL     1      -2.700   3.837  -7.255  0.00  0.00    -0.275 OA
ATOM     29  N   UNL     1      -1.834   4.575  -5.275  0.00  0.00    -0.285 N 
ATOM     30  H   UNL     1      -1.556   5.460  -5.560  0.00  0.00    +0.155 HD
ENDBRANCH  17  20
ENDBRANCH   1  17
TORSDOF 5
