REMARK  Name = ZINC15947586
REMARK  8 active torsions:
REMARK  status: ('A' for Active; 'I' for Inactive)
REMARK    1  A    between atoms: C_1  and  C_2
REMARK    2  A    between atoms: C_2  and  C_3
REMARK    3  A    between atoms: C_3  and  N_4
REMARK    4  A    between atoms: C_13  and  C_15
REMARK    5  A    between atoms: N_17  and  N_18
REMARK    6  A    between atoms: C_19  and  C_21
REMARK    7  A    between atoms: C_25  and  C_28
REMARK    8  A    between atoms: C_26  and  C_27
REMARK                            x       y       z     vdW  Elec       q    Type
REMARK                         _______ _______ _______ _____ _____    ______ ____
ROOT
ATOM      1  C   UNL     1      -1.071   1.536  -1.137  0.00  0.00    +0.281 C 
ATOM      2  O   UNL     1      -1.111   2.751  -1.110  0.00  0.00    -0.267 OA
ATOM      3  N   UNL     1       0.098   0.895  -0.937  0.00  0.00    -0.229 N 
ATOM      4  H   UNL     1       0.130  -0.074  -0.959  0.00  0.00    +0.173 HD
ENDROOT
BRANCH   1  14
ATOM      5  N   UNL     1      -3.289  -1.290  -1.632  0.00  0.00    -0.228 N 
ATOM      6  C   UNL     1      -4.530  -0.807  -1.850  0.00  0.00    +0.275 A 
ATOM      7  O   UNL     1      -5.466  -1.560  -2.046  0.00  0.00    -0.266 OA
ATOM      8  C   UNL     1      -4.724   0.650  -1.845  0.00  0.00    +0.050 A 
ATOM      9  C   UNL     1      -5.962   1.248  -2.059  0.00  0.00    +0.014 A 
ATOM     10  C   UNL     1      -6.061   2.623  -2.038  0.00  0.00    +0.001 A 
ATOM     11  C   UNL     1      -4.941   3.411  -1.806  0.00  0.00    +0.001 A 
ATOM     12  C   UNL     1      -3.706   2.838  -1.592  0.00  0.00    +0.011 A 
ATOM     13  C   UNL     1      -3.585   1.452  -1.603  0.00  0.00    +0.020 A 
ATOM     14  C   UNL     1      -2.303   0.762  -1.390  0.00  0.00    +0.155 A 
ATOM     15  N   UNL     1      -2.269  -0.548  -1.420  0.00  0.00    -0.163 NA
BRANCH   5  16
ATOM     16  C   UNL     1      -3.100  -2.743  -1.638  0.00  0.00    +0.147 C 
BRANCH  16  18
ATOM     17  C   UNL     1      -2.573  -4.726  -3.064  0.00  0.00    +0.005 C 
ATOM     18  C   UNL     1      -2.770  -3.208  -3.058  0.00  0.00    +0.020 C 
ENDBRANCH  16  18
ENDBRANCH   5  16
ENDBRANCH   1  14
BRANCH   3  19
ATOM     19  N   UNL     1       1.268   1.630  -0.704  0.00  0.00    -0.230 N 
ATOM     20  C   UNL     1       2.438   0.989  -0.509  0.00  0.00    +0.260 C 
ATOM     21  O   UNL     1       2.478  -0.225  -0.536  0.00  0.00    -0.269 OA
ATOM     22  H   UNL     1       1.236   2.599  -0.682  0.00  0.00    +0.173 HD
BRANCH  20  23
ATOM     23  C   UNL     1       3.672   1.764  -0.263  0.00  0.00    +0.041 A 
ATOM     24  C   UNL     1       3.657   3.157  -0.359  0.00  0.00    +0.013 A 
ATOM     25  C   UNL     1       4.812   3.874  -0.127  0.00  0.00    +0.001 A 
ATOM     26  C   UNL     1       5.985   3.216   0.199  0.00  0.00    +0.003 A 
ATOM     27  C   UNL     1       6.007   1.836   0.296  0.00  0.00    -0.047 A 
ATOM     28  C   UNL     1       4.857   1.107   0.073  0.00  0.00    -0.035 A 
ATOM     29  C   UNL     1       4.881  -0.396   0.184  0.00  0.00    +0.045 C 
ATOM     30  C   UNL     1       7.289   1.127   0.652  0.00  0.00    +0.044 C 
ENDBRANCH  20  23
ENDBRANCH   3  19
TORSDOF 5
