REMARK  Name = ZINC54268077
REMARK  3 active torsions:
REMARK  status: ('A' for Active; 'I' for Inactive)
REMARK    1  A    between atoms: C_3  and  N_11
REMARK    2  A    between atoms: C_6  and  N_7
REMARK    3  A    between atoms: C_16  and  C_18
REMARK                            x       y       z     vdW  Elec       q    Type
REMARK                         _______ _______ _______ _____ _____    ______ ____
ROOT
ATOM      1  C   UNL     1      -0.017   1.378   0.010  0.00  0.00    +0.034 A 
ATOM      2  C   UNL     1       1.169   2.087   0.002  0.00  0.00    +0.026 A 
ATOM      3  C   UNL     1       2.381   1.410  -0.013  0.00  0.00    +0.045 A 
ATOM      4  C   UNL     1       2.397   0.020  -0.021  0.00  0.00    +0.041 A 
ATOM      5  C   UNL     1       1.207  -0.682  -0.013  0.00  0.00    +0.049 A 
ATOM      6  C   UNL     1       0.002  -0.004   0.002  0.00  0.00    +0.127 A 
ATOM      7 BR   UNL     1       4.044  -0.908  -0.042  0.00  0.00    -0.048 Br
ENDROOT
BRANCH   3   8
ATOM      8  N   UNL     1       3.582   2.124  -0.021  0.00  0.00    -0.319 N 
ATOM      9  C   UNL     1       4.210   2.518  -1.290  0.00  0.00    +0.106 C 
ATOM     10  C   UNL     1       5.660   2.021  -1.298  0.00  0.00    +0.019 C 
ATOM     11  C   UNL     1       6.380   2.542  -0.051  0.00  0.00    +0.004 C 
ATOM     12  C   UNL     1       5.690   1.999   1.202  0.00  0.00    +0.030 C 
ATOM     13  C   UNL     1       4.238   2.500   1.239  0.00  0.00    +0.136 C 
BRANCH  13  14
ATOM     14  C   UNL     1       3.511   1.865   2.396  0.00  0.00    +0.245 C 
ATOM     15  O   UNL     1       3.021   2.558   3.255  0.00  0.00    -0.299 OA
ENDBRANCH  13  14
ENDBRANCH   3   8
BRANCH   6  16
ATOM     16  N   UNL     1      -1.270  -0.760   0.010  0.00  0.00    +0.056 N 
ATOM     17  O   UNL     1      -2.325  -0.168   0.023  0.00  0.00    -0.126 OA
ATOM     18  O   UNL     1      -1.256  -1.969   0.003  0.00  0.00    -0.126 OA
ENDBRANCH   6  16
TORSDOF 3
