REMARK  Name = ZINC54248448
REMARK  11 active torsions:
REMARK  status: ('A' for Active; 'I' for Inactive)
REMARK    1  A    between atoms: C_1  and  C_2
REMARK    2  A    between atoms: C_4  and  C_27
REMARK    3  A    between atoms: C_5  and  N_9
REMARK    4  A    between atoms: C_6  and  C_8
REMARK    5  A    between atoms: C_10  and  C_12
REMARK    6  A    between atoms: C_12  and  C_14
REMARK    7  A    between atoms: C_12  and  O_15
REMARK    8  A    between atoms: O_15  and  C_16
REMARK    9  A    between atoms: C_19  and  N_22
REMARK   10  A    between atoms: C_23  and  O_25
REMARK   11  A    between atoms: O_25  and  C_26
REMARK                            x       y       z     vdW  Elec       q    Type
REMARK                         _______ _______ _______ _____ _____    ______ ____
ROOT
ATOM      1  C   UNL     1      -0.231  -6.173   0.966  0.00  0.00    +0.256 C 
ATOM      2  C   UNL     1      -1.481  -6.638   0.217  0.00  0.00    +0.062 C 
ENDROOT
BRANCH   1   4
ATOM      3  N   UNL     1      -0.216  -3.876   0.050  0.00  0.00    -0.282 N 
ATOM      4  C   UNL     1      -0.273  -4.676   1.133  0.00  0.00    +0.258 C 
ATOM      5  O   UNL     1      -0.357  -4.191   2.241  0.00  0.00    -0.271 OA
ATOM      6  H   UNL     1      -0.067  -4.259  -0.829  0.00  0.00    +0.155 HD
BRANCH   3  11
ATOM      7  C   UNL     1      -0.847   1.732   0.628  0.00  0.00    +0.044 C 
ATOM      8  C   UNL     1      -0.679   0.242   0.475  0.00  0.00    -0.050 A 
ATOM      9  C   UNL     1       0.311  -0.417   1.180  0.00  0.00    +0.008 A 
ATOM     10  C   UNL     1       0.467  -1.782   1.041  0.00  0.00    -0.029 A 
ATOM     11  C   UNL     1      -0.372  -2.493   0.193  0.00  0.00    +0.039 A 
ATOM     12  C   UNL     1      -1.366  -1.828  -0.514  0.00  0.00    -0.029 A 
ATOM     13  C   UNL     1      -1.520  -0.463  -0.367  0.00  0.00    +0.008 A 
ATOM     14  C   UNL     1      -2.278  -2.595  -1.436  0.00  0.00    +0.045 C 
ATOM     15  C   UNL     1       1.547  -2.499   1.809  0.00  0.00    +0.045 C 
ENDBRANCH   3  11
ENDBRANCH   1   4
BRANCH   1  16
ATOM     16  O   UNL     1      -0.187  -6.794   2.252  0.00  0.00    -0.480 OA
BRANCH  16  17
ATOM     17  C   UNL     1       0.340  -8.046   2.316  0.00  0.00    +0.122 A 
ATOM     18  C   UNL     1       0.443  -8.694   3.538  0.00  0.00    +0.047 A 
ATOM     19  C   UNL     1       0.979  -9.965   3.604  0.00  0.00    +0.027 A 
ATOM     20  C   UNL     1       1.414 -10.595   2.445  0.00  0.00    +0.037 A 
ATOM     21  C   UNL     1       1.310  -9.946   1.222  0.00  0.00    +0.027 A 
ATOM     22  C   UNL     1       0.769  -8.677   1.158  0.00  0.00    +0.047 A 
BRANCH  20  23
ATOM     23  N   UNL     1       1.958 -11.885   2.511  0.00  0.00    -0.251 N 
ATOM     24  C   UNL     1       1.506 -12.761   3.430  0.00  0.00    +0.404 C 
ATOM     25  O   UNL     1       0.560 -12.469   4.134  0.00  0.00    -0.226 OA
ATOM     26  H   UNL     1       2.660 -12.147   1.895  0.00  0.00    +0.158 HD
BRANCH  24  27
ATOM     27  O   UNL     1       2.102 -13.961   3.567  0.00  0.00    -0.453 OA
ATOM     28  C   UNL     1       1.570 -14.840   4.560  0.00  0.00    +0.282 C 
ENDBRANCH  24  27
ENDBRANCH  20  23
ENDBRANCH  16  17
ENDBRANCH   1  16
TORSDOF 6
