REMARK  Name = ZINC45334163
REMARK  6 active torsions:
REMARK  status: ('A' for Active; 'I' for Inactive)
REMARK    1  A    between atoms: C_1  and  C_2
REMARK    2  A    between atoms: C_3  and  C_15
REMARK    3  A    between atoms: N_5  and  C_7
REMARK    4  A    between atoms: N_16  and  N_17
REMARK    5  A    between atoms: C_18  and  C_20
REMARK    6  A    between atoms: C_23  and  N_26
REMARK                            x       y       z     vdW  Elec       q    Type
REMARK                         _______ _______ _______ _____ _____    ______ ____
ROOT
ATOM      1  C   UNL     1      -0.005  -0.370  -2.549  0.00  0.00    +0.143 C 
ATOM      2  N   UNL     1       0.002  -1.238  -3.514  0.00  0.00    -0.187 NA
ENDROOT
BRANCH   1   5
ATOM      3  C   UNL     1      -0.018   1.503   0.010  0.00  0.00    +0.068 C 
ATOM      4  C   UNL     1       0.002  -0.004   0.002  0.00  0.00    +0.070 A 
ATOM      5  C   UNL     1       0.008  -0.826  -1.146  0.00  0.00    +0.054 A 
ATOM      6  C   UNL     1       0.029  -2.136  -0.712  0.00  0.00    +0.142 A 
ATOM      7  N   UNL     1       0.035  -2.112   0.639  0.00  0.00    -0.221 N 
ATOM      8  N   UNL     1       0.023  -0.775   1.055  0.00  0.00    -0.170 NA
ATOM      9 CL   UNL     1       0.043  -3.553  -1.715  0.00  0.00    -0.061 Cl
BRANCH   7  10
ATOM     10  C   UNL     1       0.055  -3.233   1.480  0.00  0.00    +0.068 A 
ATOM     11  C   UNL     1      -0.615  -4.391   1.110  0.00  0.00    +0.028 A 
ATOM     12  C   UNL     1      -0.594  -5.495   1.940  0.00  0.00    +0.003 A 
ATOM     13  C   UNL     1       0.094  -5.448   3.139  0.00  0.00    +0.020 A 
ATOM     14  C   UNL     1       0.762  -4.295   3.510  0.00  0.00    +0.043 A 
ATOM     15  C   UNL     1       0.749  -3.189   2.681  0.00  0.00    +0.047 A 
ATOM     16 CL   UNL     1       1.624  -4.239   5.016  0.00  0.00    -0.083 Cl
ENDBRANCH   7  10
ENDBRANCH   1   5
BRANCH   2  17
ATOM     17  N   UNL     1      -0.010  -0.805  -4.846  0.00  0.00    -0.203 N 
ATOM     18  C   UNL     1      -0.002  -1.706  -5.848  0.00  0.00    +0.263 C 
ATOM     19  O   UNL     1       0.016  -2.896  -5.595  0.00  0.00    -0.268 OA
ATOM     20  H   UNL     1      -0.025   0.144  -5.047  0.00  0.00    +0.178 HD
BRANCH  18  21
ATOM     21  C   UNL     1      -0.016  -1.250  -7.252  0.00  0.00    +0.038 A 
ATOM     22  C   UNL     1      -0.031   0.116  -7.544  0.00  0.00    +0.015 A 
ATOM     23  C   UNL     1      -0.043   0.539  -8.855  0.00  0.00    +0.028 A 
ATOM     24  C   UNL     1      -0.041  -0.393  -9.887  0.00  0.00    +0.069 A 
ATOM     25  C   UNL     1      -0.026  -1.753  -9.600  0.00  0.00    +0.028 A 
ATOM     26  C   UNL     1      -0.008  -2.183  -8.292  0.00  0.00    +0.015 A 
BRANCH  24  27
ATOM     27  N   UNL     1      -0.053   0.040 -11.218  0.00  0.00    -0.200 N 
ATOM     28  C   UNL     1      -0.059  -0.727 -12.331  0.00  0.00    +0.250 A 
ATOM     29  N   UNL     1      -0.071   0.080 -13.358  0.00  0.00    -0.116 NA
ATOM     30  N   UNL     1      -0.075   1.305 -12.973  0.00  0.00    -0.023 NA
ATOM     31  N   UNL     1      -0.070   1.367 -11.685  0.00  0.00    -0.039 NA
ENDBRANCH  24  27
ENDBRANCH  18  21
ENDBRANCH   2  17
TORSDOF 5
