REMARK  Name = ZINC67339908
REMARK  11 active torsions:
REMARK  status: ('A' for Active; 'I' for Inactive)
REMARK    1  A    between atoms: C_1  and  C_2
REMARK    2  A    between atoms: C_8  and  C_13
REMARK    3  A    between atoms: C_10  and  C_12
REMARK    4  A    between atoms: N_15  and  C_16
REMARK    5  A    between atoms: C_16  and  C_17
REMARK    6  A    between atoms: C_17  and  N_18
REMARK    7  A    between atoms: C_19  and  O_21
REMARK    8  A    between atoms: O_21  and  C_22
REMARK    9  A    between atoms: C_22  and  C_23
REMARK   10  A    between atoms: C_22  and  C_24
REMARK   11  A    between atoms: C_22  and  C_25
REMARK                            x       y       z     vdW  Elec       q    Type
REMARK                         _______ _______ _______ _____ _____    ______ ____
ROOT
ATOM      1  C   UNL     1       0.050  -2.150   3.699  0.00  0.00    +0.245 C 
ATOM      2  O   UNL     1       0.126  -0.938   3.758  0.00  0.00    -0.270 OA
ATOM      3  N   UNL     1      -0.037  -2.876   4.831  0.00  0.00    -0.310 N 
ATOM      4  H   UNL     1      -0.098  -3.843   4.784  0.00  0.00    +0.149 HD
ENDROOT
BRANCH   1  12
ATOM      5  C   UNL     1      -0.089   1.501   0.011  0.00  0.00    +0.044 C 
ATOM      6  C   UNL     1      -0.049  -0.005   0.003  0.00  0.00    -0.050 A 
ATOM      7  C   UNL     1      -0.045  -0.686  -1.213  0.00  0.00    +0.005 A 
ATOM      8  C   UNL     1      -0.010  -2.046  -1.256  0.00  0.00    +0.028 A 
ATOM      9  C   UNL     1       0.023  -2.781  -0.057  0.00  0.00    +0.072 A 
ATOM     10  C   UNL     1       0.019  -2.084   1.177  0.00  0.00    +0.013 A 
ATOM     11  C   UNL     1      -0.013  -0.683   1.183  0.00  0.00    +0.014 A 
ATOM     12  C   UNL     1       0.052  -2.827   2.384  0.00  0.00    +0.048 A 
ATOM     13  C   UNL     1       0.087  -4.213   2.291  0.00  0.00    +0.036 A 
ATOM     14  C   UNL     1       0.088  -4.817   1.036  0.00  0.00    +0.040 A 
ATOM     15  N   UNL     1       0.058  -4.116  -0.070  0.00  0.00    -0.252 NA
ATOM     16  C   UNL     1       0.127  -6.321   0.949  0.00  0.00    +0.065 C 
ENDBRANCH   1  12
BRANCH   3  17
ATOM     17  C   UNL     1      -0.039  -2.205   6.133  0.00  0.00    +0.123 C 
BRANCH  17  18
ATOM     18  C   UNL     1      -0.145  -3.250   7.246  0.00  0.00    +0.126 C 
BRANCH  18  19
ATOM     19  N   UNL     1      -0.147  -2.579   8.548  0.00  0.00    -0.280 N 
ATOM     20  C   UNL     1      -0.233  -3.305   9.680  0.00  0.00    +0.401 C 
ATOM     21  O   UNL     1      -0.310  -4.516   9.621  0.00  0.00    -0.226 OA
ATOM     22  H   UNL     1      -0.086  -1.612   8.595  0.00  0.00    +0.152 HD
BRANCH  20  23
ATOM     23  O   UNL     1      -0.235  -2.688  10.877  0.00  0.00    -0.445 OA
BRANCH  23  24
ATOM     24  C   UNL     1      -0.330  -3.520  12.035  0.00  0.00    +0.107 C 
ATOM     25  C   UNL     1       0.860  -4.482  12.070  0.00  0.00    +0.055 C 
ATOM     26  C   UNL     1      -0.317  -2.648  13.292  0.00  0.00    +0.055 C 
ATOM     27  C   UNL     1      -1.632  -4.321  11.983  0.00  0.00    +0.055 C 
ENDBRANCH  23  24
ENDBRANCH  20  23
ENDBRANCH  18  19
ENDBRANCH  17  18
ENDBRANCH   3  17
TORSDOF 6
