REMARK  Name = ZINC14196818
REMARK  6 active torsions:
REMARK  status: ('A' for Active; 'I' for Inactive)
REMARK    1  A    between atoms: C_1  and  C_2
REMARK    2  A    between atoms: C_7  and  N_12
REMARK    3  A    between atoms: C_9  and  C_11
REMARK    4  A    between atoms: C_16  and  C_18
REMARK    5  A    between atoms: C_18  and  N_19
REMARK    6  A    between atoms: C_27  and  C_29
REMARK                            x       y       z     vdW  Elec       q    Type
REMARK                         _______ _______ _______ _____ _____    ______ ____
ROOT
ATOM      1  N   UNL     1       1.471  -2.526   2.420  0.00  0.00    -0.296 N 
ATOM      2  C   UNL     1       2.056  -3.740   2.406  0.00  0.00    +0.306 C 
ATOM      3  O   UNL     1       1.996  -4.432   1.409  0.00  0.00    -0.252 OA
ATOM      4  N   UNL     1       2.708  -4.187   3.498  0.00  0.00    -0.239 N 
ATOM      5  C   UNL     1       3.293  -5.401   3.484  0.00  0.00    +0.234 C 
ATOM      6  O   UNL     1       3.233  -6.091   2.489  0.00  0.00    -0.274 OA
ATOM      7  H   UNL     1       1.520  -1.974   3.216  0.00  0.00    +0.151 HD
ATOM      8  H   UNL     1       2.756  -3.634   4.294  0.00  0.00    +0.159 HD
ENDROOT
BRANCH   1  14
ATOM      9  C   UNL     1      -0.019   1.526   0.010  0.00  0.00    +0.008 C 
ATOM     10  C   UNL     1       0.002  -0.004   0.002  0.00  0.00    -0.009 C 
ATOM     11  C   UNL     1      -1.433  -0.534   0.013  0.00  0.00    +0.003 C 
ATOM     12  C   UNL     1      -1.413  -2.063   0.004  0.00  0.00    +0.002 C 
ATOM     13  C   UNL     1      -0.673  -2.570   1.244  0.00  0.00    +0.022 C 
ATOM     14  C   UNL     1       0.763  -2.041   1.233  0.00  0.00    +0.078 C 
ATOM     15  C   UNL     1       0.742  -0.511   1.242  0.00  0.00    +0.009 C 
ATOM     16  C   UNL     1       0.026  -0.018   2.500  0.00  0.00    +0.009 C 
ENDBRANCH   1  14
BRANCH   5  17
ATOM     17  C   UNL     1       4.022  -5.900   4.705  0.00  0.00    +0.181 C 
BRANCH  17  18
ATOM     18  N   UNL     1       4.566  -7.238   4.437  0.00  0.00    -0.284 NA
ATOM     19  C   UNL     1       5.607  -7.186   3.401  0.00  0.00    +0.107 C 
ATOM     20  C   UNL     1       5.883  -8.598   2.870  0.00  0.00    +0.137 C 
ATOM     21  N   UNL     1       6.105  -9.484   4.019  0.00  0.00    -0.348 N 
ATOM     22  C   UNL     1       6.673 -10.717   4.027  0.00  0.00    +0.086 A 
ATOM     23  C   UNL     1       6.679 -11.169   5.300  0.00  0.00    +0.019 A 
ATOM     24  C   UNL     1       6.089 -10.174   6.107  0.00  0.00    +0.024 A 
ATOM     25  C   UNL     1       5.746  -9.158   5.301  0.00  0.00    +0.036 A 
ATOM     26  C   UNL     1       5.077  -7.857   5.673  0.00  0.00    +0.101 C 
ATOM     27  C   UNL     1       3.918  -8.127   6.634  0.00  0.00    +0.031 C 
ENDBRANCH  17  18
ENDBRANCH   5  17
TORSDOF 3
