REMARK  Name = ZINC38612350
REMARK  8 active torsions:
REMARK  status: ('A' for Active; 'I' for Inactive)
REMARK    1  A    between atoms: C_1  and  C_2
REMARK    2  A    between atoms: C_2  and  O_3
REMARK    3  A    between atoms: O_3  and  C_4
REMARK    4  A    between atoms: C_8  and  C_11
REMARK    5  A    between atoms: C_9  and  O_10
REMARK    6  A    between atoms: N_12  and  N_13
REMARK    7  A    between atoms: C_14  and  C_16
REMARK    8  A    between atoms: C_19  and  C_22
REMARK                            x       y       z     vdW  Elec       q    Type
REMARK                         _______ _______ _______ _____ _____    ______ ____
ROOT
ATOM      1  C   UNL     1      -1.498  -1.849   0.006  0.00  0.00    +0.163 A 
ATOM      2  C   UNL     1      -0.388  -2.679  -0.003  0.00  0.00    +0.064 A 
ATOM      3  C   UNL     1      -0.543  -4.055  -0.008  0.00  0.00    +0.022 A 
ATOM      4  C   UNL     1      -1.804  -4.613  -0.005  0.00  0.00    +0.028 A 
ATOM      5  C   UNL     1      -2.933  -3.789   0.004  0.00  0.00    +0.041 A 
ATOM      6  C   UNL     1      -2.775  -2.398   0.016  0.00  0.00    +0.167 A 
ATOM      7 BR   UNL     1       0.982  -5.173  -0.021  0.00  0.00    -0.050 Br
ENDROOT
BRANCH   6   8
ATOM      8  O   UNL     1      -3.866  -1.587   0.030  0.00  0.00    -0.503 OA
ATOM      9  H   UNL     1      -4.190  -1.348  -0.849  0.00  0.00    +0.292 HD
ENDBRANCH   6   8
BRANCH   5  10
ATOM     10  C   UNL     1      -4.282  -4.381   0.007  0.00  0.00    +0.142 C 
ATOM     11  N   UNL     1      -5.328  -3.613   0.016  0.00  0.00    -0.188 NA
BRANCH  11  12
ATOM     12  N   UNL     1      -6.611  -4.176   0.019  0.00  0.00    -0.205 N 
ATOM     13  C   UNL     1      -7.697  -3.378   0.028  0.00  0.00    +0.262 C 
ATOM     14  O   UNL     1      -7.564  -2.172   0.034  0.00  0.00    -0.271 OA
ATOM     15  H   UNL     1      -6.718  -5.140   0.015  0.00  0.00    +0.177 HD
BRANCH  13  16
ATOM     16  C   UNL     1      -9.077  -3.983   0.031  0.00  0.00    +0.240 C 
ATOM     17  C   UNL     1      -9.487  -4.378   1.439  0.00  0.00    +0.035 C 
ATOM     18  C   UNL     1     -10.567  -3.631   1.680  0.00  0.00    +0.059 C 
ATOM     19  N   UNL     1     -10.858  -2.850   0.617  0.00  0.00    -0.159 NA
ATOM     20  N   UNL     1     -10.088  -2.979  -0.343  0.00  0.00    -0.170 NA
ATOM     21  C   UNL     1     -11.356  -3.657   2.964  0.00  0.00    +0.067 C 
ENDBRANCH  13  16
ENDBRANCH  11  12
ENDBRANCH   5  10
BRANCH   1  22
ATOM     22  O   UNL     1      -1.339  -0.499   0.012  0.00  0.00    -0.489 OA
BRANCH  22  24
ATOM     23  C   UNL     1      -0.019   1.526   0.010  0.00  0.00    +0.048 C 
ATOM     24  C   UNL     1       0.002  -0.004   0.002  0.00  0.00    +0.226 C 
ENDBRANCH  22  24
ENDBRANCH   1  22
TORSDOF 6
