REMARK  Name = ZINC28670107
REMARK  8 active torsions:
REMARK  status: ('A' for Active; 'I' for Inactive)
REMARK    1  A    between atoms: C_1  and  C_2
REMARK    2  A    between atoms: C_2  and  C_4
REMARK    3  A    between atoms: C_2  and  O_17
REMARK    4  A    between atoms: N_6  and  C_7
REMARK    5  A    between atoms: C_9  and  N_14
REMARK    6  A    between atoms: O_17  and  C_18
REMARK    7  A    between atoms: C_18  and  C_20
REMARK    8  A    between atoms: C_25  and  O_26
REMARK                            x       y       z     vdW  Elec       q    Type
REMARK                         _______ _______ _______ _____ _____    ______ ____
ROOT
ATOM      1  C   UNL     1      -3.844  -1.724  -0.991  0.00  0.00    +0.062 C 
ATOM      2  C   UNL     1      -3.658  -0.848   0.249  0.00  0.00    +0.259 C 
ENDROOT
BRANCH   2   3
ATOM      3  C   UNL     1      -2.373  -0.070   0.127  0.00  0.00    +0.258 C 
ATOM      4  O   UNL     1      -2.395   1.143   0.134  0.00  0.00    -0.271 OA
ATOM      5  N   UNL     1      -1.200  -0.722   0.010  0.00  0.00    -0.281 N 
ATOM      6  H   UNL     1      -1.185  -1.819  -0.070  0.00  0.00    +0.155 HD
BRANCH   5   7
ATOM      7  C   UNL     1       0.001  -0.003  -0.009  0.00  0.00    +0.054 A 
ATOM      8  C   UNL     1       0.054   1.248  -0.608  0.00  0.00    +0.057 A 
ATOM      9  C   UNL     1       1.240   1.955  -0.625  0.00  0.00    +0.128 A 
ATOM     10  C   UNL     1       2.376   1.418  -0.047  0.00  0.00    +0.034 A 
ATOM     11  C   UNL     1       2.328   0.172   0.550  0.00  0.00    +0.024 A 
ATOM     12  C   UNL     1       1.144  -0.540   0.571  0.00  0.00    +0.062 A 
ATOM     13 CL   UNL     1       1.084  -2.104   1.322  0.00  0.00    -0.082 Cl
BRANCH   9  14
ATOM     14  N   UNL     1       1.296   3.290  -1.264  0.00  0.00    +0.056 N 
ATOM     15  O   UNL     1       0.296   3.763  -1.774  0.00  0.00    -0.126 OA
ATOM     16  O   UNL     1       2.342   3.914  -1.280  0.00  0.00    -0.126 OA
ENDBRANCH   9  14
ENDBRANCH   5   7
ENDBRANCH   2   3
BRANCH   2  17
ATOM     17  O   UNL     1      -4.774   0.075   0.361  0.00  0.00    -0.449 OA
BRANCH  17  18
ATOM     18  C   UNL     1      -5.843  -0.341   1.067  0.00  0.00    +0.343 C 
ATOM     19  O   UNL     1      -5.844  -1.445   1.575  0.00  0.00    -0.245 OA
BRANCH  18  20
ATOM     20  C   UNL     1      -7.013   0.543   1.223  0.00  0.00    +0.101 A 
ATOM     21  C   UNL     1      -7.014   1.816   0.646  0.00  0.00    +0.034 A 
ATOM     22  C   UNL     1      -8.112   2.636   0.792  0.00  0.00    +0.019 A 
ATOM     23  C   UNL     1      -9.213   2.207   1.518  0.00  0.00    +0.019 A 
ATOM     24  C   UNL     1      -9.223   0.954   2.098  0.00  0.00    +0.047 A 
ATOM     25  C   UNL     1      -8.128   0.114   1.957  0.00  0.00    +0.131 A 
ATOM     26 BR   UNL     1      -8.115   4.355   0.005  0.00  0.00    -0.050 Br
BRANCH  25  27
ATOM     27  O   UNL     1      -8.136  -1.118   2.526  0.00  0.00    -0.506 OA
ATOM     28  H   UNL     1      -9.013  -1.452   3.100  0.00  0.00    +0.292 HD
ENDBRANCH  25  27
ENDBRANCH  18  20
ENDBRANCH  17  18
ENDBRANCH   2  17
TORSDOF 7
