REMARK  Name = ZINC34868634
REMARK  12 active torsions:
REMARK  status: ('A' for Active; 'I' for Inactive)
REMARK    1  A    between atoms: C_1  and  C_2
REMARK    2  A    between atoms: C_5  and  C_37
REMARK    3  A    between atoms: C_6  and  S_8
REMARK    4  A    between atoms: S_8  and  N_11
REMARK    5  A    between atoms: N_11  and  C_12
REMARK    6  A    between atoms: N_11  and  C_13
REMARK    7  A    between atoms: C_16  and  O_19
REMARK    8  A    between atoms: O_19  and  C_20
REMARK    9  A    between atoms: C_20  and  C_22
REMARK   10  A    between atoms: C_22  and  N_23
REMARK   11  A    between atoms: C_26  and  C_30
REMARK   12  A    between atoms: C_26  and  C_31
REMARK                            x       y       z     vdW  Elec       q    Type
REMARK                         _______ _______ _______ _____ _____    ______ ____
ROOT
ATOM      1  C   UNL     1      -2.729  -2.812   3.576  0.00  0.00    +0.051 A 
ATOM      2  C   UNL     1      -2.340  -1.636   4.204  0.00  0.00    +0.028 A 
ATOM      3  C   UNL     1      -3.266  -0.887   4.902  0.00  0.00    +0.048 A 
ATOM      4  C   UNL     1      -4.585  -1.309   4.977  0.00  0.00    +0.132 A 
ATOM      5  C   UNL     1      -4.975  -2.484   4.351  0.00  0.00    +0.048 A 
ATOM      6  C   UNL     1      -4.051  -3.231   3.647  0.00  0.00    +0.028 A 
ENDROOT
BRANCH   1   7
ATOM      7  N   UNL     1      -1.792  -3.571   2.869  0.00  0.00    -0.206 N 
ATOM      8  C   UNL     1      -1.993  -5.012   2.699  0.00  0.00    +0.157 C 
BRANCH   7   9
ATOM      9  S   UNL     1      -0.453  -2.841   2.222  0.00  0.00    +0.075 S 
ATOM     10  O   UNL     1      -0.843  -1.522   1.864  0.00  0.00    -0.150 OA
ATOM     11  O   UNL     1       0.094  -3.755   1.281  0.00  0.00    -0.150 OA
BRANCH   9  17
ATOM     12  C   UNL     1       2.411   0.063   5.491  0.00  0.00    +0.044 C 
ATOM     13  C   UNL     1       2.019  -1.304   4.991  0.00  0.00    -0.049 A 
ATOM     14  C   UNL     1       2.589  -2.433   5.549  0.00  0.00    +0.004 A 
ATOM     15  C   UNL     1       2.230  -3.687   5.090  0.00  0.00    +0.005 A 
ATOM     16  C   UNL     1       1.301  -3.811   4.074  0.00  0.00    -0.024 A 
ATOM     17  C   UNL     1       0.731  -2.682   3.517  0.00  0.00    +0.112 A 
ATOM     18  C   UNL     1       1.086  -1.428   3.979  0.00  0.00    +0.032 A 
ATOM     19  C   UNL     1       0.910  -5.178   3.574  0.00  0.00    +0.046 C 
ENDBRANCH   9  17
ENDBRANCH   7   9
ENDBRANCH   1   7
BRANCH   4  20
ATOM     20  O   UNL     1      -5.497  -0.571   5.665  0.00  0.00    -0.425 OA
BRANCH  20  21
ATOM     21  C   UNL     1      -5.966   0.547   5.090  0.00  0.00    +0.330 C 
ATOM     22  O   UNL     1      -5.643   0.826   3.960  0.00  0.00    -0.249 OA
BRANCH  21  23
ATOM     23  C   UNL     1      -6.894   1.456   5.855  0.00  0.00    +0.238 C 
BRANCH  23  24
ATOM     24  N   UNL     1      -7.260   2.599   5.015  0.00  0.00    -0.213 N 
ATOM     25  C   UNL     1      -6.570   3.755   4.967  0.00  0.00    +0.251 C 
ATOM     26  O   UNL     1      -5.567   4.035   5.587  0.00  0.00    -0.272 OA
ATOM     27  C   UNL     1      -7.308   4.632   3.975  0.00  0.00    +0.135 C 
ATOM     28  N   UNL     1      -8.434   3.789   3.539  0.00  0.00    -0.281 N 
ATOM     29  C   UNL     1      -8.318   2.621   4.196  0.00  0.00    +0.310 C 
ATOM     30  O   UNL     1      -9.090   1.692   4.064  0.00  0.00    -0.252 OA
ATOM     31  C   UNL     1      -7.820   5.903   4.657  0.00  0.00    +0.047 C 
ATOM     32  H   UNL     1      -9.124   4.028   2.899  0.00  0.00    +0.152 HD
BRANCH  27  33
ATOM     33  C   UNL     1      -6.420   4.976   2.808  0.00  0.00    -0.016 A 
ATOM     34  C   UNL     1      -5.051   5.064   2.983  0.00  0.00    +0.006 A 
ATOM     35  C   UNL     1      -4.236   5.380   1.912  0.00  0.00    +0.000 A 
ATOM     36  C   UNL     1      -4.790   5.607   0.665  0.00  0.00    +0.000 A 
ATOM     37  C   UNL     1      -6.158   5.518   0.490  0.00  0.00    +0.000 A 
ATOM     38  C   UNL     1      -6.973   5.198   1.560  0.00  0.00    +0.006 A 
ENDBRANCH  27  33
ENDBRANCH  23  24
ENDBRANCH  21  23
ENDBRANCH  20  21
ENDBRANCH   4  20
TORSDOF 8
