REMARK  Name = ZINC56925340
REMARK  7 active torsions:
REMARK  status: ('A' for Active; 'I' for Inactive)
REMARK    1  A    between atoms: C_3  and  C_6
REMARK    2  A    between atoms: C_9  and  C_11
REMARK    3  A    between atoms: C_11  and  O_12
REMARK    4  A    between atoms: O_12  and  C_13
REMARK    5  A    between atoms: C_16  and  C_19
REMARK    6  A    between atoms: C_24  and  C_27
REMARK    7  A    between atoms: C_27  and  C_28
REMARK                            x       y       z     vdW  Elec       q    Type
REMARK                         _______ _______ _______ _____ _____    ______ ____
ROOT
ATOM      1  C   UNL     1       7.765   4.221   1.491  0.00  0.00    +0.121 A 
ATOM      2  C   UNL     1       8.293   4.882   0.388  0.00  0.00    +0.046 A 
ATOM      3  C   UNL     1       9.173   5.926   0.566  0.00  0.00    +0.016 A 
ATOM      4  C   UNL     1       9.535   6.320   1.857  0.00  0.00    +0.037 A 
ATOM      5  C   UNL     1       9.002   5.652   2.963  0.00  0.00    +0.016 A 
ATOM      6  C   UNL     1       8.118   4.613   2.776  0.00  0.00    +0.046 A 
ENDROOT
BRANCH   4   7
ATOM      7  C   UNL     1      10.478   7.438   2.052  0.00  0.00    +0.250 C 
ATOM      8  O   UNL     1      10.941   8.018   1.089  0.00  0.00    -0.270 OA
ATOM      9  N   UNL     1      10.826   7.817   3.298  0.00  0.00    -0.261 N 
ATOM     10  C   UNL     1      11.714   8.869   3.481  0.00  0.00    +0.165 A 
ATOM     11  N   UNL     1      12.167   9.369   4.611  0.00  0.00    -0.229 NA
ATOM     12  C   UNL     1      13.016  10.380   4.618  0.00  0.00    +0.059 A 
ATOM     13  C   UNL     1      13.395  10.875   3.413  0.00  0.00    +0.072 A 
ATOM     14  S   UNL     1      12.476   9.810   2.313  0.00  0.00    -0.060 S 
ATOM     15  H   UNL     1      10.457   7.354   4.066  0.00  0.00    +0.157 HD
BRANCH  12  16
ATOM     16  C   UNL     1      13.541  10.959   5.906  0.00  0.00    +0.151 C 
BRANCH  16  17
ATOM     17  C   UNL     1      12.383  11.358   6.785  0.00  0.00    +0.216 C 
ATOM     18  O   UNL     1      11.245  11.190   6.402  0.00  0.00    -0.276 OA
ATOM     19  N   UNL     1      12.614  11.903   7.996  0.00  0.00    -0.329 N 
ATOM     20  H   UNL     1      13.524  12.038   8.302  0.00  0.00    +0.145 HD
ATOM     21  H   UNL     1      11.869  12.161   8.562  0.00  0.00    +0.145 HD
ENDBRANCH  16  17
ENDBRANCH  12  16
ENDBRANCH   4   7
BRANCH   1  22
ATOM     22  O   UNL     1       6.897   3.192   1.311  0.00  0.00    -0.485 OA
BRANCH  22  23
ATOM     23  C   UNL     1       6.577   2.841  -0.036  0.00  0.00    +0.291 C 
BRANCH  23  27
ATOM     24  C   UNL     1       3.575   0.619  -0.029  0.00  0.00    +0.114 A 
ATOM     25  C   UNL     1       4.269  -0.564  -0.047  0.00  0.00    +0.078 A 
ATOM     26  S   UNL     1       5.949   0.040  -0.058  0.00  0.00    -0.076 S 
ATOM     27  C   UNL     1       5.608   1.688  -0.038  0.00  0.00    +0.116 A 
ATOM     28  N   UNL     1       4.301   1.729  -0.030  0.00  0.00    -0.237 NA
BRANCH  24  31
ATOM     29  C   UNL     1      -0.016   1.342   0.009  0.00  0.00    +0.042 A 
ATOM     30  C   UNL     1       1.327   1.774  -0.001  0.00  0.00    +0.051 A 
ATOM     31  C   UNL     1       2.097   0.654  -0.015  0.00  0.00    +0.153 A 
ATOM     32  O   UNL     1       1.281  -0.417  -0.012  0.00  0.00    -0.461 OA
ATOM     33  C   UNL     1       0.002  -0.004   0.002  0.00  0.00    +0.196 A 
ENDBRANCH  24  31
ENDBRANCH  23  27
ENDBRANCH  22  23
ENDBRANCH   1  22
TORSDOF 7
