REMARK  Name = ZINC09348288
REMARK  7 active torsions:
REMARK  status: ('A' for Active; 'I' for Inactive)
REMARK    1  A    between atoms: C_1  and  C_2
REMARK    2  A    between atoms: C_5  and  C_8
REMARK    3  A    between atoms: C_16  and  C_18
REMARK    4  A    between atoms: C_23  and  O_24
REMARK    5  A    between atoms: O_24  and  C_25
REMARK    6  A    between atoms: N_26  and  C_33
REMARK    7  A    between atoms: N_29  and  C_32
REMARK                            x       y       z     vdW  Elec       q    Type
REMARK                         _______ _______ _______ _____ _____    ______ ____
ROOT
ATOM      1  C   UNL     1       2.797   3.601  -0.090  0.00  0.00    +0.064 A 
ATOM      2  C   UNL     1       3.984   3.342   0.544  0.00  0.00    +0.089 A 
ATOM      3  C   UNL     1       4.888   4.476   0.226  0.00  0.00    +0.083 A 
ATOM      4  C   UNL     1       4.196   5.308  -0.543  0.00  0.00    +0.078 A 
ATOM      5  N   UNL     1       2.930   4.790  -0.743  0.00  0.00    -0.337 N 
ATOM      6  C   UNL     1       1.910   5.467  -1.555  0.00  0.00    +0.150 C 
ATOM      7  C   UNL     1       2.608   6.526  -2.417  0.00  0.00    +0.182 C 
ATOM      8  O   UNL     1       3.473   7.318  -1.599  0.00  0.00    -0.364 OA
ATOM      9  C   UNL     1       4.641   6.623  -1.143  0.00  0.00    +0.200 C 
ATOM     10  N   UNL     1       6.190   4.471   0.748  0.00  0.00    -0.294 N 
ATOM     11  C   UNL     1       6.540   3.423   1.527  0.00  0.00    +0.332 A 
ATOM     12  O   UNL     1       7.666   3.421   1.984  0.00  0.00    -0.246 OA
ATOM     13  N   UNL     1       5.754   2.386   1.832  0.00  0.00    -0.263 N 
ATOM     14  C   UNL     1       4.475   2.253   1.396  0.00  0.00    +0.266 A 
ATOM     15  O   UNL     1       3.784   1.296   1.690  0.00  0.00    -0.267 OA
ATOM     16  C   UNL     1       6.304   1.331   2.687  0.00  0.00    +0.157 C 
ATOM     17  C   UNL     1       7.126   5.564   0.473  0.00  0.00    +0.154 C 
ENDROOT
BRANCH   1  22
ATOM     18  C   UNL     1      -1.903   0.285  -0.004  0.00  0.00    +0.044 C 
ATOM     19  C   UNL     1      -0.672   1.154  -0.024  0.00  0.00    -0.050 A 
ATOM     20  C   UNL     1       0.572   0.581  -0.228  0.00  0.00    +0.004 A 
ATOM     21  C   UNL     1       1.702   1.370  -0.252  0.00  0.00    +0.010 A 
ATOM     22  C   UNL     1       1.591   2.750  -0.066  0.00  0.00    -0.001 A 
ATOM     23  C   UNL     1       0.334   3.321   0.144  0.00  0.00    +0.010 A 
ATOM     24  C   UNL     1      -0.789   2.519   0.167  0.00  0.00    +0.004 A 
ENDBRANCH   1  22
BRANCH   9  25
ATOM     25  C   UNL     1       5.348   7.447  -0.098  0.00  0.00    +0.029 A 
ATOM     26  C   UNL     1       4.937   7.391   1.220  0.00  0.00    +0.010 A 
ATOM     27  C   UNL     1       5.588   8.143   2.181  0.00  0.00    +0.001 A 
ATOM     28  C   UNL     1       6.645   8.960   1.823  0.00  0.00    +0.004 A 
ATOM     29  C   UNL     1       7.056   9.023   0.506  0.00  0.00    +0.046 A 
ATOM     30  C   UNL     1       6.408   8.266  -0.459  0.00  0.00    +0.126 A 
BRANCH  30  31
ATOM     31  O   UNL     1       6.811   8.325  -1.755  0.00  0.00    -0.495 OA
ATOM     32  C   UNL     1       7.977   9.102  -2.037  0.00  0.00    +0.277 C 
ENDBRANCH  30  31
ENDBRANCH   9  25
TORSDOF 3
