REMARK  Name = ZINC04723431
REMARK  7 active torsions:
REMARK  status: ('A' for Active; 'I' for Inactive)
REMARK    1  A    between atoms: C_1  and  C_2
REMARK    2  A    between atoms: C_3  and  C_21
REMARK    3  A    between atoms: C_4  and  C_12
REMARK    4  A    between atoms: C_15  and  C_18
REMARK    5  A    between atoms: C_18  and  C_19
REMARK    6  A    between atoms: C_18  and  C_20
REMARK    7  A    between atoms: N_23  and  C_24
REMARK                            x       y       z     vdW  Elec       q    Type
REMARK                         _______ _______ _______ _____ _____    ______ ____
ROOT
ATOM      1  C   UNL     1      -0.018   1.502   0.016  0.00  0.00    +0.061 C 
ATOM      2  C   UNL     1       0.002  -0.004  -0.004  0.00  0.00    +0.018 C 
ATOM      3  C   UNL     1      -1.163  -0.668  -0.004  0.00  0.00    +0.060 C 
ATOM      4  C   UNL     1      -1.253  -2.171  -0.035  0.00  0.00    +0.177 C 
ATOM      5  N   UNL     1       0.064  -2.742   0.227  0.00  0.00    -0.221 N 
ATOM      6  C   UNL     1       1.211  -2.018   0.224  0.00  0.00    +0.218 A 
ATOM      7  N   UNL     1       2.200  -2.828   0.485  0.00  0.00    -0.201 NA
ATOM      8  C   UNL     1       1.728  -4.066   0.664  0.00  0.00    +0.247 A 
ATOM      9  N   UNL     1       0.426  -4.057   0.516  0.00  0.00    -0.156 NA
ATOM     10  N   UNL     1       1.213  -0.652  -0.027  0.00  0.00    -0.287 N 
ATOM     11  H   UNL     1       2.037  -0.173  -0.209  0.00  0.00    +0.155 HD
ENDROOT
BRANCH   4  12
ATOM     12  C   UNL     1      -1.734  -2.617  -1.392  0.00  0.00    -0.018 A 
ATOM     13  C   UNL     1      -0.999  -2.307  -2.522  0.00  0.00    +0.006 A 
ATOM     14  C   UNL     1      -1.439  -2.716  -3.766  0.00  0.00    +0.004 A 
ATOM     15  C   UNL     1      -2.614  -3.435  -3.882  0.00  0.00    -0.045 A 
ATOM     16  C   UNL     1      -3.349  -3.746  -2.752  0.00  0.00    +0.004 A 
ATOM     17  C   UNL     1      -2.906  -3.340  -1.507  0.00  0.00    +0.006 A 
BRANCH  15  18
ATOM     18  C   UNL     1      -3.095  -3.881  -5.239  0.00  0.00    +0.013 C 
ATOM     19  C   UNL     1      -3.193  -5.407  -5.270  0.00  0.00    +0.012 C 
ATOM     20  C   UNL     1      -4.473  -3.276  -5.515  0.00  0.00    +0.012 C 
ENDBRANCH  15  18
ENDBRANCH   4  12
BRANCH   3  21
ATOM     21  C   UNL     1      -2.364   0.079   0.028  0.00  0.00    +0.248 C 
ATOM     22  O   UNL     1      -2.324   1.296   0.055  0.00  0.00    -0.270 OA
ATOM     23  N   UNL     1      -3.553  -0.556   0.029  0.00  0.00    -0.282 N 
ATOM     24  H   UNL     1      -3.587  -1.522  -0.058  0.00  0.00    +0.155 HD
BRANCH  23  25
ATOM     25  C   UNL     1      -4.738   0.177   0.157  0.00  0.00    +0.034 A 
ATOM     26  C   UNL     1      -4.843   1.435  -0.420  0.00  0.00    +0.025 A 
ATOM     27  C   UNL     1      -6.013   2.157  -0.292  0.00  0.00    +0.022 A 
ATOM     28  C   UNL     1      -7.081   1.626   0.410  0.00  0.00    +0.041 A 
ATOM     29  C   UNL     1      -6.979   0.372   0.986  0.00  0.00    +0.022 A 
ATOM     30  C   UNL     1      -5.813  -0.356   0.857  0.00  0.00    +0.025 A 
ATOM     31 CL   UNL     1      -8.551   2.536   0.569  0.00  0.00    -0.084 Cl
ENDBRANCH  23  25
ENDBRANCH   3  21
TORSDOF 4
