REMARK  Name = ZINC54256485
REMARK  6 active torsions:
REMARK  status: ('A' for Active; 'I' for Inactive)
REMARK    1  A    between atoms: C_1  and  C_2
REMARK    2  A    between atoms: C_2  and  C_3
REMARK    3  A    between atoms: N_12  and  C_13
REMARK    4  A    between atoms: C_13  and  C_14
REMARK    5  A    between atoms: C_14  and  C_15
REMARK    6  A    between atoms: N_17  and  N_18
REMARK                            x       y       z     vdW  Elec       q    Type
REMARK                         _______ _______ _______ _____ _____    ______ ____
ROOT
ATOM      1  C   UNL     1      -3.131   3.110   2.532  0.00  0.00    +0.228 C 
ATOM      2  O   UNL     1      -2.849   3.775   1.557  0.00  0.00    -0.274 OA
ATOM      3  N   UNL     1      -3.627   3.705   3.634  0.00  0.00    -0.224 N 
ATOM      4  H   UNL     1      -3.852   3.173   4.413  0.00  0.00    +0.174 HD
ENDROOT
BRANCH   3   5
ATOM      5  N   UNL     1      -3.817   5.093   3.655  0.00  0.00    -0.137 N 
ATOM      6  C   UNL     1      -3.016   5.959   4.311  0.00  0.00    +0.263 C 
ATOM      7  O   UNL     1      -2.033   5.694   4.969  0.00  0.00    -0.271 OA
ATOM      8  C   UNL     1      -3.603   7.327   4.051  0.00  0.00    +0.114 C 
ATOM      9  C   UNL     1      -4.030   7.979   5.362  0.00  0.00    +0.035 C 
ATOM     10  C   UNL     1      -4.649   9.350   5.074  0.00  0.00    +0.003 C 
ATOM     11  C   UNL     1      -3.623  10.231   4.357  0.00  0.00    +0.000 C 
ATOM     12  C   UNL     1      -3.221   9.575   3.035  0.00  0.00    +0.003 C 
ATOM     13  C   UNL     1      -2.598   8.205   3.314  0.00  0.00    +0.035 C 
ATOM     14  N   UNL     1      -4.771   7.060   3.204  0.00  0.00    -0.284 N 
ATOM     15  C   UNL     1      -4.812   5.726   3.022  0.00  0.00    +0.326 C 
ATOM     16  O   UNL     1      -5.660   5.160   2.359  0.00  0.00    -0.251 OA
ATOM     17  H   UNL     1      -5.390   7.714   2.844  0.00  0.00    +0.151 HD
ENDBRANCH   3   5
BRANCH   1  18
ATOM     18  C   UNL     1      -2.926   1.617   2.509  0.00  0.00    +0.079 C 
BRANCH  18  19
ATOM     19  C   UNL     1      -2.358   1.200   1.151  0.00  0.00    -0.069 C 
BRANCH  19  28
ATOM     20  C   UNL     1      -1.475  -0.630  -0.114  0.00  0.00    -0.037 C 
ATOM     21  C   UNL     1      -1.364  -2.151  -0.177  0.00  0.00    -0.051 A 
ATOM     22  C   UNL     1      -0.461  -2.833  -0.987  0.00  0.00    +0.010 A 
ATOM     23  C   UNL     1      -0.431  -4.187  -0.976  0.00  0.00    +0.045 A 
ATOM     24  S   UNL     1      -1.711  -4.575   0.210  0.00  0.00    -0.101 S 
ATOM     25  C   UNL     1      -2.186  -2.915   0.597  0.00  0.00    -0.010 A 
ATOM     26  C   UNL     1      -3.234  -2.417   1.538  0.00  0.00    +0.024 C 
ATOM     27  C   UNL     1      -3.462  -0.926   1.232  0.00  0.00    -0.073 C 
ATOM     28  N   UNL     1      -2.158  -0.255   1.130  0.00  0.00    +0.385 N 
ATOM     29  H   UNL     1      -1.586  -0.523   1.917  0.00  0.00    -0.081 HD
BRANCH  20  31
ATOM     30  C   UNL     1       0.727  -0.523   1.062  0.00  0.00    +0.002 C 
ATOM     31  C   UNL     1      -0.075  -0.013  -0.137  0.00  0.00    -0.014 C 
ENDBRANCH  20  31
ENDBRANCH  19  28
ENDBRANCH  18  19
ENDBRANCH   1  18
TORSDOF 5
