REMARK  Name = ZINC20378548
REMARK  8 active torsions:
REMARK  status: ('A' for Active; 'I' for Inactive)
REMARK    1  A    between atoms: C_1  and  C_2
REMARK    2  A    between atoms: C_4  and  C_15
REMARK    3  A    between atoms: C_5  and  C_9
REMARK    4  A    between atoms: C_6  and  C_8
REMARK    5  A    between atoms: C_9  and  C_10
REMARK    6  A    between atoms: C_9  and  C_11
REMARK    7  A    between atoms: C_9  and  N_13
REMARK    8  A    between atoms: N_13  and  C_14
REMARK                            x       y       z     vdW  Elec       q    Type
REMARK                         _______ _______ _______ _____ _____    ______ ____
ROOT
ATOM      1  C   UNL     1       1.303   0.468   3.479  0.00  0.00    +0.044 C 
ATOM      2  C   UNL     1       1.819   0.790   2.101  0.00  0.00    -0.050 A 
ATOM      3  C   UNL     1       1.312   1.874   1.409  0.00  0.00    +0.007 A 
ATOM      4  C   UNL     1       1.786   2.171   0.145  0.00  0.00    -0.044 A 
ATOM      5  C   UNL     1       2.766   1.382  -0.428  0.00  0.00    -0.008 A 
ATOM      6  C   UNL     1       3.274   0.299   0.264  0.00  0.00    -0.044 A 
ATOM      7  C   UNL     1       2.801   0.003   1.528  0.00  0.00    +0.007 A 
ATOM      8  C   UNL     1       4.344  -0.560  -0.360  0.00  0.00    +0.044 C 
ATOM      9  C   UNL     1       1.233   3.353  -0.609  0.00  0.00    +0.044 C 
ENDROOT
BRANCH   5  10
ATOM     10  C   UNL     1       3.282   1.705  -1.807  0.00  0.00    +0.130 C 
ATOM     11  C   UNL     1       3.443   3.220  -1.950  0.00  0.00    +0.049 C 
BRANCH  10  12
ATOM     12  N   UNL     1       4.584   1.054  -2.007  0.00  0.00    -0.299 NA
ATOM     13  C   UNL     1       5.051   1.226  -3.389  0.00  0.00    +0.102 C 
ATOM     14  H   UNL     1       5.325   1.498  -1.327  0.00  0.00    +0.123 HD
ENDBRANCH  10  12
BRANCH  10  15
ATOM     15  C   UNL     1       2.328   1.216  -2.815  0.00  0.00    +0.089 C 
ATOM     16  N   UNL     1       1.591   0.838  -3.593  0.00  0.00    -0.194 NA
ENDBRANCH  10  15
ENDBRANCH   5  10
TORSDOF 3
