REMARK  Name = ZINC12478774
REMARK  6 active torsions:
REMARK  status: ('A' for Active; 'I' for Inactive)
REMARK    1  A    between atoms: C_1  and  C_2
REMARK    2  A    between atoms: C_5  and  C_8
REMARK    3  A    between atoms: C_8  and  C_13
REMARK    4  A    between atoms: C_15  and  C_18
REMARK    5  A    between atoms: C_18  and  N_58
REMARK    6  A    between atoms: N_21  and  C_24
REMARK                            x       y       z     vdW  Elec       q    Type
REMARK                         _______ _______ _______ _____ _____    ______ ____
ROOT
ATOM      1  C   UNL     1      -0.161   1.178  -0.133  0.00  0.00    +0.182 A 
ATOM      2  N   UNL     1      -0.344  -0.147  -0.275  0.00  0.00    -0.197 NA
ATOM      3  C   UNL     1       0.858  -0.660  -0.379  0.00  0.00    +0.211 A 
ATOM      4  O   UNL     1       1.723   0.356  -0.298  0.00  0.00    -0.340 OA
ATOM      5  N   UNL     1       1.119   1.399  -0.157  0.00  0.00    -0.060 NA
ENDROOT
BRANCH   1   6
ATOM      6  C   UNL     1      -1.243   2.216   0.020  0.00  0.00    +0.059 C 
ATOM      7  C   UNL     1      -2.126   2.249  -1.244  0.00  0.00    +0.019 C 
ATOM      8  C   UNL     1      -2.462   3.750  -1.433  0.00  0.00    +0.001 C 
ATOM      9  C   UNL     1      -1.140   4.449  -1.032  0.00  0.00    +0.001 C 
ATOM     10  C   UNL     1      -0.616   3.615   0.155  0.00  0.00    +0.019 C 
BRANCH   6  15
ATOM     11  C   UNL     1      -4.472   1.038   4.665  0.00  0.00    +0.044 C 
ATOM     12  C   UNL     1      -3.631   1.345   3.453  0.00  0.00    -0.050 A 
ATOM     13  C   UNL     1      -3.982   2.384   2.612  0.00  0.00    +0.003 A 
ATOM     14  C   UNL     1      -3.210   2.666   1.501  0.00  0.00    +0.005 A 
ATOM     15  C   UNL     1      -2.085   1.909   1.232  0.00  0.00    -0.034 A 
ATOM     16  C   UNL     1      -1.736   0.866   2.070  0.00  0.00    +0.005 A 
ATOM     17  C   UNL     1      -2.506   0.587   3.183  0.00  0.00    +0.003 A 
ENDBRANCH   6  15
ENDBRANCH   1   6
BRANCH   3  18
ATOM     18  C   UNL     1       1.200  -2.117  -0.556  0.00  0.00    +0.022 C 
BRANCH  18  24
ATOM     19  C   UNL     1      -0.068  -2.314  -2.609  0.00  0.00    -0.059 C 
ATOM     20  C   UNL     1       0.049  -2.576  -4.113  0.00  0.00    +0.088 C 
ATOM     21  N   UNL     1       0.608  -3.917  -4.331  0.00  0.00    -0.320 N 
ATOM     22  C   UNL     1       1.934  -4.040  -3.711  0.00  0.00    +0.088 C 
ATOM     23  C   UNL     1       1.817  -3.777  -2.207  0.00  0.00    -0.059 C 
ATOM     24  N   UNL     1       1.275  -2.418  -2.002  0.00  0.00    +0.388 N 
ATOM     25  H   UNL     1       1.899  -1.738  -2.452  0.00  0.00    -0.081 HD
BRANCH  21  26
ATOM     26  C   UNL     1       0.662  -4.219  -5.688  0.00  0.00    +0.099 A 
ATOM     27  C   UNL     1      -0.498  -4.166  -6.453  0.00  0.00    +0.043 A 
ATOM     28  C   UNL     1      -0.429  -4.463  -7.802  0.00  0.00    +0.025 A 
ATOM     29  C   UNL     1       0.802  -4.816  -8.341  0.00  0.00    +0.057 A 
ATOM     30  C   UNL     1       1.913  -4.854  -7.521  0.00  0.00    +0.104 A 
ATOM     31 CL   UNL     1       0.943  -5.205 -10.027  0.00  0.00    -0.082 Cl
ATOM     32  N   UNL     1       1.882  -4.563  -6.192  0.00  0.00    -0.348 N 
ATOM     33  H   UNL     1       2.724  -4.599  -5.606  0.00  0.00    +0.167 HD
ENDBRANCH  21  26
ENDBRANCH  18  24
ENDBRANCH   3  18
TORSDOF 5
