REMARK  Name = ZINC24988643
REMARK  8 active torsions:
REMARK  status: ('A' for Active; 'I' for Inactive)
REMARK    1  A    between atoms: C_1  and  C_2
REMARK    2  A    between atoms: C_2  and  C_3
REMARK    3  A    between atoms: C_2  and  C_4
REMARK    4  A    between atoms: C_4  and  C_6
REMARK    5  A    between atoms: C_4  and  N_19
REMARK    6  A    between atoms: C_6  and  N_7
REMARK    7  A    between atoms: N_7  and  S_8
REMARK    8  A    between atoms: S_8  and  C_11
REMARK                            x       y       z     vdW  Elec       q    Type
REMARK                         _______ _______ _______ _____ _____    ______ ____
ROOT
ATOM      1  N   UNL     1       3.132  -0.569   4.742  0.00  0.00    -0.188 NA
ATOM      2  H   UNL     1       3.880  -1.357   4.568  0.00  0.00    +0.148 HD
ENDROOT
BRANCH   1   3
ATOM      3  S   UNL     1       2.823  -0.076   6.293  0.00  0.00    +0.059 S 
ATOM      4  O   UNL     1       3.804  -0.690   7.117  0.00  0.00    -0.153 OA
ATOM      5  O   UNL     1       2.644   1.333   6.242  0.00  0.00    -0.153 OA
BRANCH   3   6
ATOM      6  C   UNL     1       1.270  -0.765   6.759  0.00  0.00    +0.108 A 
ATOM      7  C   UNL     1       0.104  -0.061   6.527  0.00  0.00    +0.048 A 
ATOM      8  C   UNL     1      -1.116  -0.604   6.888  0.00  0.00    +0.044 A 
ATOM      9  C   UNL     1      -1.168  -1.848   7.491  0.00  0.00    +0.040 A 
ATOM     10  C   UNL     1       0.000  -2.550   7.729  0.00  0.00    +0.044 A 
ATOM     11  C   UNL     1       1.219  -2.008   7.362  0.00  0.00    +0.048 A 
ATOM     12 CL   UNL     1      -0.064  -4.111   8.485  0.00  0.00    -0.083 Cl
ATOM     13 CL   UNL     1      -2.581   0.278   6.589  0.00  0.00    -0.083 Cl
ENDBRANCH   3   6
ENDBRANCH   1   3
BRANCH   1  14
ATOM     14  C   UNL     1       2.269  -0.123   3.646  0.00  0.00    +0.125 C 
BRANCH  14  15
ATOM     15  C   UNL     1       2.979  -0.356   2.311  0.00  0.00    +0.075 C 
BRANCH  15  16
ATOM     16  N   UNL     1       2.045  -0.095   1.207  0.00  0.00    -0.294 NA
ATOM     17  C   UNL     1       0.958  -1.084   1.192  0.00  0.00    +0.113 C 
ATOM     18  C   UNL     1       0.043  -0.811  -0.005  0.00  0.00    +0.175 C 
ATOM     19  O   UNL     1      -0.446   0.531   0.071  0.00  0.00    -0.377 OA
ATOM     20  C   UNL     1       0.586   1.520   0.087  0.00  0.00    +0.175 C 
ATOM     21  C   UNL     1       1.506   1.271   1.285  0.00  0.00    +0.113 C 
ENDBRANCH  15  16
BRANCH  15  23
ATOM     22  C   UNL     1       5.221   0.216   3.254  0.00  0.00    +0.009 C 
ATOM     23  C   UNL     1       4.178   0.589   2.199  0.00  0.00    +0.001 C 
ATOM     24  C   UNL     1       4.795   0.466   0.804  0.00  0.00    +0.009 C 
ENDBRANCH  15  23
ENDBRANCH  14  15
ENDBRANCH   1  14
TORSDOF 6
