REMARK  Name = ZINC38606643
REMARK  13 active torsions:
REMARK  status: ('A' for Active; 'I' for Inactive)
REMARK    1  A    between atoms: C_1  and  C_2
REMARK    2  A    between atoms: C_3  and  C_38
REMARK    3  A    between atoms: N_6  and  C_31
REMARK    4  A    between atoms: C_10  and  C_11
REMARK    5  A    between atoms: N_13  and  C_25
REMARK    6  A    between atoms: C_15  and  C_16
REMARK    7  A    between atoms: C_20  and  N_22
REMARK    8  A    between atoms: C_31  and  C_32
REMARK    9  A    between atoms: C_32  and  C_33
REMARK   10  A    between atoms: C_33  and  O_34
REMARK   11  A    between atoms: O_34  and  C_35
REMARK   12  A    between atoms: C_35  and  C_36
REMARK   13  A    between atoms: C_35  and  C_37
REMARK                            x       y       z     vdW  Elec       q    Type
REMARK                         _______ _______ _______ _____ _____    ______ ____
ROOT
ATOM      1  C   UNL     1      -0.060  -0.796   3.641  0.00  0.00    +0.021 A 
ATOM      2  C   UNL     1      -0.616  -2.058   3.814  0.00  0.00    +0.123 A 
ATOM      3  N   UNL     1      -0.490  -2.386   5.109  0.00  0.00    -0.239 N 
ATOM      4  N   UNL     1       0.144  -1.351   5.801  0.00  0.00    -0.166 NA
ATOM      5  C   UNL     1       0.427  -0.379   4.965  0.00  0.00    +0.100 A 
ENDROOT
BRANCH   1  15
ATOM      6  C   UNL     1      -0.229   1.351  -0.069  0.00  0.00    +0.046 C 
ATOM      7  C   UNL     1       0.365  -0.030   0.025  0.00  0.00    -0.016 C 
ATOM      8  C   UNL     1       0.825  -0.681  -1.110  0.00  0.00    +0.117 C 
ATOM      9  C   UNL     1       1.399  -2.023  -0.993  0.00  0.00    +0.264 C 
ATOM     10  O   UNL     1       1.802  -2.594  -1.989  0.00  0.00    -0.269 OA
ATOM     11  N   UNL     1       1.486  -2.633   0.202  0.00  0.00    -0.233 N 
ATOM     12  C   UNL     1       1.052  -2.035   1.326  0.00  0.00    +0.253 C 
ATOM     13  O   UNL     1       1.145  -2.613   2.393  0.00  0.00    -0.270 OA
ATOM     14  C   UNL     1       0.471  -0.686   1.273  0.00  0.00    +0.042 C 
ATOM     15  C   UNL     1       0.025  -0.063   2.436  0.00  0.00    +0.025 C 
BRANCH   8  16
ATOM     16  C   UNL     1       0.738  -0.044  -2.390  0.00  0.00    +0.105 C 
ATOM     17  N   UNL     1       0.668   0.461  -3.405  0.00  0.00    -0.191 NA
ENDBRANCH   8  16
BRANCH  11  18
ATOM     18  C   UNL     1       2.066  -3.976   0.282  0.00  0.00    +0.119 C 
BRANCH  18  19
ATOM     19  C   UNL     1       3.575  -3.867   0.508  0.00  0.00    +0.047 C 
BRANCH  19  20
ATOM     20  C   UNL     1       4.181  -5.270   0.590  0.00  0.00    +0.161 C 
BRANCH  20  21
ATOM     21  O   UNL     1       5.591  -5.168   0.801  0.00  0.00    -0.377 OA
BRANCH  21  22
ATOM     22  C   UNL     1       6.257  -6.429   0.894  0.00  0.00    +0.112 C 
ATOM     23  C   UNL     1       6.707  -6.872  -0.499  0.00  0.00    +0.037 C 
ATOM     24  C   UNL     1       7.478  -6.295   1.806  0.00  0.00    +0.037 C 
ENDBRANCH  21  22
ENDBRANCH  20  21
ENDBRANCH  19  20
ENDBRANCH  18  19
ENDBRANCH  11  18
ENDBRANCH   1  15
BRANCH   5  25
ATOM     25  C   UNL     1       1.105   0.897   5.295  0.00  0.00    +0.005 A 
ATOM     26  C   UNL     1       1.962   1.493   4.370  0.00  0.00    +0.010 A 
ATOM     27  C   UNL     1       2.591   2.681   4.682  0.00  0.00    +0.003 A 
ATOM     28  C   UNL     1       2.373   3.280   5.909  0.00  0.00    +0.033 A 
ATOM     29  C   UNL     1       1.524   2.694   6.831  0.00  0.00    +0.127 A 
ATOM     30  C   UNL     1       0.885   1.509   6.528  0.00  0.00    +0.042 A 
BRANCH  29  31
ATOM     31  N   UNL     1       1.297   3.341   8.142  0.00  0.00    +0.056 N 
ATOM     32  O   UNL     1       1.853   4.382   8.407  0.00  0.00    -0.126 OA
ATOM     33  O   UNL     1       0.555   2.830   8.948  0.00  0.00    -0.126 OA
ENDBRANCH  29  31
ENDBRANCH   5  25
BRANCH   3  34
ATOM     34  C   UNL     1      -0.931  -3.586   5.682  0.00  0.00    +0.065 A 
ATOM     35  C   UNL     1      -1.547  -4.548   4.893  0.00  0.00    +0.028 A 
ATOM     36  C   UNL     1      -1.980  -5.730   5.461  0.00  0.00    +0.002 A 
ATOM     37  C   UNL     1      -1.800  -5.956   6.814  0.00  0.00    +0.000 A 
ATOM     38  C   UNL     1      -1.187  -4.999   7.602  0.00  0.00    +0.002 A 
ATOM     39  C   UNL     1      -0.747  -3.817   7.039  0.00  0.00    +0.028 A 
ENDBRANCH   3  34
TORSDOF 10
