REMARK  Name = ZINC60346295
REMARK  8 active torsions:
REMARK  status: ('A' for Active; 'I' for Inactive)
REMARK    1  A    between atoms: C_1  and  C_2
REMARK    2  A    between atoms: C_4  and  C_8
REMARK    3  A    between atoms: C_5  and  C_7
REMARK    4  A    between atoms: C_8  and  C_25
REMARK    5  A    between atoms: N_11  and  C_15
REMARK    6  A    between atoms: C_15  and  C_16
REMARK    7  A    between atoms: C_16  and  O_17
REMARK    8  A    between atoms: O_17  and  C_18
REMARK                            x       y       z     vdW  Elec       q    Type
REMARK                         _______ _______ _______ _____ _____    ______ ____
ROOT
ATOM      1  C   UNL     1      -1.449  -3.363   0.002  0.00  0.00    +0.138 C 
ATOM      2  C   UNL     1      -1.355  -4.069  -1.337  0.00  0.00    +0.251 C 
ATOM      3  O   UNL     1      -0.360  -4.534  -1.851  0.00  0.00    -0.272 OA
ATOM      4  N   UNL     1      -2.607  -4.072  -1.836  0.00  0.00    -0.221 N 
ATOM      5  C   UNL     1      -3.470  -3.472  -1.007  0.00  0.00    +0.310 C 
ATOM      6  O   UNL     1      -4.657  -3.352  -1.240  0.00  0.00    -0.252 OA
ATOM      7  N   UNL     1      -2.877  -3.018   0.111  0.00  0.00    -0.281 N 
ATOM      8  C   UNL     1      -1.032  -4.299   1.138  0.00  0.00    +0.047 C 
ATOM      9  H   UNL     1      -3.306  -2.554   0.847  0.00  0.00    +0.152 HD
ENDROOT
BRANCH   1  13
ATOM     10  C   UNL     1       0.050   1.493   0.356  0.00  0.00    +0.086 C 
ATOM     11  C   UNL     1       0.037  -0.001   0.162  0.00  0.00    +0.103 A 
ATOM     12  C   UNL     1      -1.041  -0.798   0.261  0.00  0.00    +0.051 A 
ATOM     13  C   UNL     1      -0.601  -2.117   0.005  0.00  0.00    +0.025 A 
ATOM     14  C   UNL     1       0.721  -2.047  -0.236  0.00  0.00    +0.108 A 
ATOM     15  O   UNL     1       1.101  -0.762  -0.145  0.00  0.00    -0.465 OA
ATOM     16  C   UNL     1       1.621  -3.211  -0.558  0.00  0.00    +0.086 C 
ENDBRANCH   1  13
BRANCH   4  17
ATOM     17  C   UNL     1      -2.977  -4.659  -3.126  0.00  0.00    +0.159 C 
BRANCH  17  18
ATOM     18  C   UNL     1      -3.361  -6.127  -2.928  0.00  0.00    +0.248 C 
BRANCH  18  19
ATOM     19  O   UNL     1      -4.540  -6.206  -2.124  0.00  0.00    -0.490 OA
BRANCH  19  20
ATOM     20  C   UNL     1      -5.018  -7.449  -1.851  0.00  0.00    +0.122 A 
ATOM     21  C   UNL     1      -4.362  -8.569  -2.342  0.00  0.00    +0.046 A 
ATOM     22  C   UNL     1      -4.849  -9.831  -2.063  0.00  0.00    +0.005 A 
ATOM     23  C   UNL     1      -5.989  -9.979  -1.296  0.00  0.00    +0.020 A 
ATOM     24  C   UNL     1      -6.646  -8.865  -0.805  0.00  0.00    +0.044 A 
ATOM     25  C   UNL     1      -6.158  -7.599  -1.077  0.00  0.00    +0.065 A 
ATOM     26 CL   UNL     1      -8.077  -9.055   0.158  0.00  0.00    -0.083 Cl
ENDBRANCH  19  20
ENDBRANCH  18  19
ENDBRANCH  17  18
ENDBRANCH   4  17
TORSDOF 5
