REMARK  Name = ZINC63622996
REMARK  12 active torsions:
REMARK  status: ('A' for Active; 'I' for Inactive)
REMARK    1  A    between atoms: C_1  and  C_2
REMARK    2  A    between atoms: C_2  and  C_3
REMARK    3  A    between atoms: C_6  and  C_9
REMARK    4  A    between atoms: N_11  and  C_12
REMARK    5  A    between atoms: C_12  and  C_14
REMARK    6  A    between atoms: C_12  and  C_24
REMARK    7  A    between atoms: C_14  and  C_15
REMARK    8  A    between atoms: C_24  and  O_26
REMARK    9  A    between atoms: O_26  and  C_27
REMARK   10  A    between atoms: C_27  and  C_28
REMARK   11  A    between atoms: C_28  and  C_30
REMARK   12  A    between atoms: C_33  and  C_36
REMARK                            x       y       z     vdW  Elec       q    Type
REMARK                         _______ _______ _______ _____ _____    ______ ____
ROOT
ATOM      1  C   UNL     1       4.586  -2.553  -5.859  0.00  0.00    +0.186 C 
ENDROOT
BRANCH   1   4
ATOM      2  C   UNL     1       2.413  -2.112  -4.847  0.00  0.00    +0.245 C 
ATOM      3  O   UNL     1       1.898  -2.341  -5.924  0.00  0.00    -0.270 OA
ATOM      4  N   UNL     1       3.752  -2.192  -4.710  0.00  0.00    -0.298 N 
ATOM      5  H   UNL     1       4.163  -2.009  -3.850  0.00  0.00    +0.150 HD
BRANCH   2   9
ATOM      6  C   UNL     1      -0.004  -1.065  -1.515  0.00  0.00    -0.048 A 
ATOM      7  C   UNL     1      -0.594  -1.324  -2.739  0.00  0.00    +0.004 A 
ATOM      8  C   UNL     1       0.186  -1.665  -3.825  0.00  0.00    +0.013 A 
ATOM      9  C   UNL     1       1.572  -1.748  -3.687  0.00  0.00    +0.037 A 
ATOM     10  C   UNL     1       2.161  -1.485  -2.449  0.00  0.00    +0.013 A 
ATOM     11  C   UNL     1       1.370  -1.140  -1.372  0.00  0.00    +0.004 A 
BRANCH   6  13
ATOM     12  C   UNL     1      -1.039   0.826  -0.289  0.00  0.00    +0.009 C 
ATOM     13  C   UNL     1      -0.862  -0.694  -0.333  0.00  0.00    +0.032 C 
ENDBRANCH   6  13
ENDBRANCH   2   9
ENDBRANCH   1   4
BRANCH   1  14
ATOM     14  C   UNL     1       5.949  -1.929  -5.707  0.00  0.00    +0.328 C 
ATOM     15  O   UNL     1       6.198  -1.251  -4.738  0.00  0.00    -0.249 OA
BRANCH  14  16
ATOM     16  O   UNL     1       6.886  -2.125  -6.648  0.00  0.00    -0.455 OA
BRANCH  16  17
ATOM     17  C   UNL     1       8.155  -1.503  -6.439  0.00  0.00    +0.311 C 
BRANCH  17  18
ATOM     18  C   UNL     1       9.071  -1.833  -7.589  0.00  0.00    +0.200 C 
ATOM     19  O   UNL     1       8.676  -2.532  -8.498  0.00  0.00    -0.288 OA
BRANCH  18  20
ATOM     20  C   UNL     1      10.446  -1.307  -7.609  0.00  0.00    +0.021 A 
ATOM     21  C   UNL     1      10.907  -0.506  -6.560  0.00  0.00    +0.012 A 
ATOM     22  C   UNL     1      12.196  -0.017  -6.586  0.00  0.00    +0.004 A 
ATOM     23  C   UNL     1      13.033  -0.318  -7.646  0.00  0.00    -0.050 A 
ATOM     24  C   UNL     1      12.584  -1.110  -8.689  0.00  0.00    +0.004 A 
ATOM     25  C   UNL     1      11.299  -1.611  -8.675  0.00  0.00    +0.012 A 
ATOM     26  C   UNL     1      14.441   0.220  -7.667  0.00  0.00    +0.044 C 
ENDBRANCH  18  20
ENDBRANCH  17  18
ENDBRANCH  16  17
ENDBRANCH  14  16
ENDBRANCH   1  14
BRANCH   1  27
ATOM     27  C   UNL     1       4.727  -4.075  -5.928  0.00  0.00    +0.067 C 
BRANCH  27  28
ATOM     28  C   UNL     1       5.342  -4.581  -4.649  0.00  0.00    -0.039 C 
ATOM     29  C   UNL     1       4.689  -5.048  -3.561  0.00  0.00    -0.001 A 
ATOM     30  C   UNL     1       3.263  -5.218  -3.254  0.00  0.00    +0.010 A 
ATOM     31  C   UNL     1       2.907  -5.723  -2.051  0.00  0.00    +0.001 A 
ATOM     32  C   UNL     1       3.862  -6.087  -1.092  0.00  0.00    +0.002 A 
ATOM     33  C   UNL     1       5.190  -5.960  -1.300  0.00  0.00    +0.026 A 
ATOM     34  C   UNL     1       5.677  -5.440  -2.531  0.00  0.00    +0.043 A 
ATOM     35  N   UNL     1       6.895  -5.224  -2.966  0.00  0.00    -0.380 N 
ATOM     36  C   UNL     1       6.816  -4.675  -4.324  0.00  0.00    +0.144 C 
ATOM     37  H   UNL     1       7.712  -5.401  -2.473  0.00  0.00    +0.160 HD
ENDBRANCH  27  28
ENDBRANCH   1  27
TORSDOF 10
