REMARK  Name = ZINC12056646
REMARK  10 active torsions:
REMARK  status: ('A' for Active; 'I' for Inactive)
REMARK    1  A    between atoms: C_1  and  C_2
REMARK    2  A    between atoms: C_2  and  C_3
REMARK    3  A    between atoms: C_2  and  C_4
REMARK    4  A    between atoms: C_4  and  C_5
REMARK    5  A    between atoms: C_5  and  C_19
REMARK    6  A    between atoms: N_8  and  C_12
REMARK    7  A    between atoms: C_12  and  C_13
REMARK    8  A    between atoms: C_13  and  C_14
REMARK    9  A    between atoms: C_24  and  C_25
REMARK   10  A    between atoms: C_24  and  N_69
REMARK                            x       y       z     vdW  Elec       q    Type
REMARK                         _______ _______ _______ _____ _____    ______ ____
ROOT
ATOM      1  C   UNL     1       2.816  -0.199  -2.585  0.00  0.00    +0.115 C 
ATOM      2  C   UNL     1       2.036   0.216  -3.817  0.00  0.00    +0.247 C 
ATOM      3  O   UNL     1       1.867   1.343  -4.231  0.00  0.00    -0.273 OA
ATOM      4  N   UNL     1       1.569  -0.927  -4.356  0.00  0.00    -0.224 N 
ATOM      5  C   UNL     1       1.942  -1.997  -3.643  0.00  0.00    +0.309 C 
ATOM      6  O   UNL     1       1.642  -3.139  -3.932  0.00  0.00    -0.252 OA
ATOM      7  N   UNL     1       2.686  -1.667  -2.572  0.00  0.00    -0.285 N 
ATOM      8  H   UNL     1       3.063  -2.276  -1.918  0.00  0.00    +0.151 HD
ENDROOT
BRANCH   1   9
ATOM      9  C   UNL     1       2.196   0.408  -1.325  0.00  0.00    +0.018 C 
ATOM     10  C   UNL     1       0.711   0.040  -1.258  0.00  0.00    -0.013 C 
ATOM     11  C   UNL     1       0.082   0.700  -0.028  0.00  0.00    -0.078 C 
ATOM     12  C   UNL     1       1.659   2.537  -0.137  0.00  0.00    -0.078 C 
ATOM     13  C   UNL     1       2.334   1.932  -1.370  0.00  0.00    -0.013 C 
ATOM     14  N   UNL     1       0.227   2.166  -0.144  0.00  0.00    +0.382 N 
ATOM     15  H   UNL     1      -0.192   2.474  -1.029  0.00  0.00    -0.081 HD
BRANCH  14  16
ATOM     16  C   UNL     1      -0.471   2.832   0.975  0.00  0.00    -0.043 C 
BRANCH  16  17
ATOM     17  C   UNL     1      -0.091   4.290   0.997  0.00  0.00    -0.062 A 
ATOM     18  C   UNL     1      -0.835   5.205   0.254  0.00  0.00    +0.002 A 
ATOM     19  C   UNL     1      -0.517   6.528   0.253  0.00  0.00    +0.010 A 
ATOM     20  C   UNL     1       0.576   6.979   1.011  0.00  0.00    +0.000 A 
ATOM     21  C   UNL     1       0.938   8.339   1.038  0.00  0.00    +0.011 A 
ATOM     22  C   UNL     1       2.013   8.706   1.797  0.00  0.00    +0.020 A 
ATOM     23  C   UNL     1       2.716   7.742   2.518  0.00  0.00    +0.111 A 
ATOM     24  N   UNL     1       2.376   6.476   2.490  0.00  0.00    -0.255 NA
ATOM     25  C   UNL     1       1.335   6.051   1.767  0.00  0.00    +0.071 A 
ATOM     26  C   UNL     1       0.971   4.694   1.746  0.00  0.00    +0.030 A 
ENDBRANCH  16  17
ENDBRANCH  14  16
ENDBRANCH   1   9
BRANCH   1  27
ATOM     27  C   UNL     1       4.284   0.213  -2.713  0.00  0.00    +0.038 C 
BRANCH  27  29
ATOM     28  C   UNL     1       6.254   0.234  -4.249  0.00  0.00    +0.007 C 
ATOM     29  C   UNL     1       4.861  -0.352  -4.013  0.00  0.00    -0.015 C 
ATOM     30  C   UNL     1       4.959  -1.875  -3.907  0.00  0.00    +0.007 C 
ENDBRANCH  27  29
ENDBRANCH   1  27
BRANCH   4  31
ATOM     31  C   UNL     1       0.755  -0.992  -5.572  0.00  0.00    +0.123 C 
BRANCH  31  32
ATOM     32  C   UNL     1       1.669  -1.128  -6.791  0.00  0.00    +0.062 C 
BRANCH  32  33
ATOM     33  C   UNL     1       0.831  -1.195  -8.042  0.00  0.00    -0.009 A 
ATOM     34  C   UNL     1       0.400  -0.184  -8.835  0.00  0.00    +0.011 A 
ATOM     35  C   UNL     1      -0.366  -0.483  -9.946  0.00  0.00    +0.008 A 
ATOM     36  C   UNL     1      -0.663  -1.780 -10.210  0.00  0.00    +0.045 A 
ATOM     37  S   UNL     1       0.156  -2.626  -8.868  0.00  0.00    -0.102 S 
ENDBRANCH  32  33
ENDBRANCH  31  32
ENDBRANCH   4  31
TORSDOF 8
