REMARK  Name = ZINC20571992
REMARK  7 active torsions:
REMARK  status: ('A' for Active; 'I' for Inactive)
REMARK    1  A    between atoms: C_1  and  C_2
REMARK    2  A    between atoms: C_5  and  S_8
REMARK    3  A    between atoms: S_8  and  N_11
REMARK    4  A    between atoms: N_11  and  C_12
REMARK    5  A    between atoms: C_15  and  C_18
REMARK    6  A    between atoms: C_29  and  O_35
REMARK    7  A    between atoms: O_35  and  C_36
REMARK                            x       y       z     vdW  Elec       q    Type
REMARK                         _______ _______ _______ _____ _____    ______ ____
ROOT
ATOM      1  C   UNL     1      -2.610  -7.213  -2.161  0.00  0.00    +0.247 C 
ATOM      2  O   UNL     1      -3.744  -6.902  -2.470  0.00  0.00    -0.270 OA
ATOM      3  N   UNL     1      -2.142  -6.917  -0.933  0.00  0.00    -0.295 N 
ATOM      4  C   UNL     1      -0.811  -7.374  -0.502  0.00  0.00    +0.127 C 
ATOM      5  C   UNL     1      -0.953  -8.076   0.853  0.00  0.00    +0.126 C 
ATOM      6  N   UNL     1      -1.638  -7.181   1.795  0.00  0.00    -0.307 N 
ATOM      7  C   UNL     1      -3.004  -6.880   1.347  0.00  0.00    +0.126 C 
ATOM      8  C   UNL     1      -2.946  -6.129   0.013  0.00  0.00    +0.127 C 
ATOM      9  C   UNL     1      -1.641  -7.713   3.070  0.00  0.00    +0.162 A 
ATOM     10  N   UNL     1      -2.152  -7.212   4.170  0.00  0.00    -0.221 NA
ATOM     11  C   UNL     1      -2.079  -7.850   5.360  0.00  0.00    +0.122 A 
ATOM     12  C   UNL     1      -2.585  -7.423   6.614  0.00  0.00    +0.146 A 
ATOM     13  C   UNL     1      -2.422  -8.201   7.737  0.00  0.00    +0.048 A 
ATOM     14  C   UNL     1      -1.764  -9.421   7.683  0.00  0.00    +0.005 A 
ATOM     15  C   UNL     1      -1.259  -9.865   6.475  0.00  0.00    +0.017 A 
ATOM     16  C   UNL     1      -1.416  -9.096   5.347  0.00  0.00    +0.044 A 
ATOM     17  S   UNL     1      -0.949  -9.259   3.641  0.00  0.00    -0.052 S 
ENDROOT
BRANCH   1  21
ATOM     18  C   UNL     1      -0.125  -9.227  -4.954  0.00  0.00    +0.048 A 
ATOM     19  C   UNL     1      -1.498  -9.459  -4.952  0.00  0.00    +0.025 A 
ATOM     20  C   UNL     1      -2.306  -8.808  -4.048  0.00  0.00    +0.015 A 
ATOM     21  C   UNL     1      -1.747  -7.913  -3.131  0.00  0.00    +0.037 A 
ATOM     22  C   UNL     1      -0.369  -7.677  -3.140  0.00  0.00    +0.015 A 
ATOM     23  C   UNL     1       0.434  -8.336  -4.043  0.00  0.00    +0.025 A 
BRANCH  18  24
ATOM     24  N   UNL     1       0.689  -9.886  -5.869  0.00  0.00    -0.216 N 
ATOM     25  H   UNL     1       0.573 -10.969  -6.028  0.00  0.00    +0.174 HD
BRANCH  24  26
ATOM     26  S   UNL     1       1.832  -9.042  -6.719  0.00  0.00    +0.072 S 
ATOM     27  O   UNL     1       2.608  -8.333  -5.763  0.00  0.00    -0.150 OA
ATOM     28  O   UNL     1       2.409  -9.956  -7.641  0.00  0.00    -0.150 OA
BRANCH  26  33
ATOM     29  C   UNL     1      -1.080  -4.895  -9.993  0.00  0.00    +0.044 C 
ATOM     30  C   UNL     1      -0.353  -5.931  -9.176  0.00  0.00    -0.050 A 
ATOM     31  C   UNL     1       0.171  -5.594  -7.941  0.00  0.00    +0.005 A 
ATOM     32  C   UNL     1       0.838  -6.544  -7.191  0.00  0.00    +0.029 A 
ATOM     33  C   UNL     1       0.981  -7.831  -7.675  0.00  0.00    +0.109 A 
ATOM     34  C   UNL     1       0.462  -8.166  -8.912  0.00  0.00    +0.029 A 
ATOM     35  C   UNL     1      -0.209  -7.218  -9.660  0.00  0.00    +0.005 A 
ENDBRANCH  26  33
ENDBRANCH  24  26
ENDBRANCH  18  24
ENDBRANCH   1  21
BRANCH  12  36
ATOM     36  O   UNL     1      -3.237  -6.234   6.708  0.00  0.00    -0.493 OA
ATOM     37  C   UNL     1      -3.723  -5.860   7.998  0.00  0.00    +0.277 C 
ENDBRANCH  12  36
TORSDOF 5
