REMARK  Name = ZINC13915657
REMARK  9 active torsions:
REMARK  status: ('A' for Active; 'I' for Inactive)
REMARK    1  A    between atoms: C_1  and  C_2
REMARK    2  A    between atoms: C_2  and  O_3
REMARK    3  A    between atoms: O_3  and  C_4
REMARK    4  A    between atoms: C_6  and  C_12
REMARK    5  A    between atoms: C_9  and  O_10
REMARK    6  A    between atoms: C_19  and  C_31
REMARK    7  A    between atoms: C_20  and  C_28
REMARK    8  A    between atoms: C_21  and  C_23
REMARK    9  A    between atoms: C_28  and  C_30
REMARK                            x       y       z     vdW  Elec       q    Type
REMARK                         _______ _______ _______ _____ _____    ______ ____
ROOT
ATOM      1  C   UNL     1       3.348  -0.302  -0.219  0.00  0.00    +0.029 C 
ATOM      2  C   UNL     1       4.578   0.270  -0.292  0.00  0.00    +0.081 A 
ATOM      3  C   UNL     1       4.950   1.691  -0.276  0.00  0.00    +0.268 A 
ATOM      4  O   UNL     1       4.112   2.569  -0.189  0.00  0.00    -0.266 OA
ATOM      5  N   UNL     1       6.259   1.972  -0.363  0.00  0.00    -0.272 N 
ATOM      6  C   UNL     1       7.151   0.933  -0.459  0.00  0.00    +0.178 A 
ATOM      7  N   UNL     1       8.452   1.089  -0.548  0.00  0.00    -0.228 NA
ATOM      8  C   UNL     1       9.077   2.256  -0.557  0.00  0.00    +0.050 C 
ATOM      9  C   UNL     1       8.359   3.434  -0.469  0.00  0.00    +0.046 C 
ATOM     10  C   UNL     1       6.855   3.338  -0.364  0.00  0.00    +0.194 C 
ATOM     11  C   UNL     1      10.579   2.299  -0.664  0.00  0.00    +0.066 C 
ATOM     12  S   UNL     1       6.182  -0.502  -0.424  0.00  0.00    -0.046 S 
ENDROOT
BRANCH   1  15
ATOM     13  C   UNL     1       1.112   2.279   1.330  0.00  0.00    +0.162 A 
ATOM     14  C   UNL     1       2.223   1.503   1.067  0.00  0.00    +0.058 A 
ATOM     15  C   UNL     1       2.170   0.526   0.065  0.00  0.00    -0.006 A 
ATOM     16  C   UNL     1       0.988   0.341  -0.664  0.00  0.00    +0.029 A 
ATOM     17  C   UNL     1      -0.117   1.121  -0.394  0.00  0.00    +0.065 A 
ATOM     18  C   UNL     1      -0.061   2.089   0.599  0.00  0.00    +0.160 A 
ATOM     19 BR   UNL     1       0.908  -0.977  -2.019  0.00  0.00    -0.050 Br
BRANCH  18  20
ATOM     20  O   UNL     1      -1.151   2.858   0.857  0.00  0.00    -0.503 OA
ATOM     21  H   UNL     1      -1.744   2.488   1.524  0.00  0.00    +0.292 HD
ENDBRANCH  18  20
BRANCH  13  22
ATOM     22  O   UNL     1       1.161   3.229   2.302  0.00  0.00    -0.489 OA
BRANCH  22  24
ATOM     23  C   UNL     1       2.257   4.478   4.056  0.00  0.00    +0.048 C 
ATOM     24  C   UNL     1       2.393   3.369   3.010  0.00  0.00    +0.226 C 
ENDBRANCH  22  24
ENDBRANCH  13  22
ENDBRANCH   1  15
BRANCH  10  25
ATOM     25  C   UNL     1       6.259   4.102  -1.518  0.00  0.00    +0.132 A 
ATOM     26  C   UNL     1       5.911   5.401  -1.506  0.00  0.00    +0.047 A 
ATOM     27  C   UNL     1       5.397   5.701  -2.789  0.00  0.00    +0.041 A 
ATOM     28  C   UNL     1       5.463   4.566  -3.509  0.00  0.00    +0.195 A 
ATOM     29  O   UNL     1       5.990   3.603  -2.736  0.00  0.00    -0.465 OA
ENDBRANCH  10  25
BRANCH   9  30
ATOM     30  C   UNL     1       9.002   4.671  -0.478  0.00  0.00    +0.160 C 
ATOM     31  O   UNL     1       9.581   5.049  -1.479  0.00  0.00    -0.293 OA
ATOM     32  C   UNL     1       8.982   5.539   0.753  0.00  0.00    +0.091 C 
ENDBRANCH   9  30
TORSDOF 6
