REMARK  Name = ZINC35337453
REMARK  4 active torsions:
REMARK  status: ('A' for Active; 'I' for Inactive)
REMARK    1  A    between atoms: C_3  and  N_35
REMARK    2  A    between atoms: C_6  and  C_7
REMARK    3  A    between atoms: C_18  and  S_31
REMARK    4  A    between atoms: S_31  and  N_34
REMARK                            x       y       z     vdW  Elec       q    Type
REMARK                         _______ _______ _______ _____ _____    ______ ____
ROOT
ATOM      1  C   UNL     1      -1.293  -0.775   0.010  0.00  0.00    +0.108 C 
ATOM      2  C   UNL     1      -1.671  -1.176  -1.404  0.00  0.00    +0.029 C 
ATOM      3  C   UNL     1      -1.724  -0.058  -2.454  0.00  0.00    +0.033 C 
ATOM      4  C   UNL     1      -1.360  -0.818  -3.731  0.00  0.00    -0.030 C 
ATOM      5  C   UNL     1      -0.633  -1.887  -3.432  0.00  0.00    -0.023 C 
ATOM      6  C   UNL     1      -0.424  -1.935  -1.955  0.00  0.00    +0.049 C 
ATOM      7  C   UNL     1      -0.329  -3.216  -1.218  0.00  0.00    -0.017 A 
ATOM      8  C   UNL     1       0.097  -4.375  -1.830  0.00  0.00    +0.034 A 
ATOM      9  C   UNL     1       0.177  -5.556  -1.117  0.00  0.00    +0.106 A 
ATOM     10  C   UNL     1      -0.173  -5.571   0.220  0.00  0.00    +0.034 A 
ATOM     11  C   UNL     1      -0.601  -4.420   0.843  0.00  0.00    -0.017 A 
ATOM     12  C   UNL     1      -0.688  -3.214   0.136  0.00  0.00    +0.038 A 
ATOM     13  N   UNL     1      -1.129  -2.037   0.766  0.00  0.00    -0.322 N 
ATOM     14  C   UNL     1      -1.446  -2.004   2.212  0.00  0.00    +0.110 C 
ATOM     15  C   UNL     1      -0.534  -3.026   2.864  0.00  0.00    +0.021 C 
ATOM     16  C   UNL     1      -0.984  -4.405   2.275  0.00  0.00    +0.048 C 
ATOM     17  C   UNL     1      -0.414  -5.385   3.237  0.00  0.00    -0.023 C 
ATOM     18  C   UNL     1      -0.311  -4.804   4.425  0.00  0.00    -0.030 C 
ATOM     19  C   UNL     1      -0.777  -3.332   4.349  0.00  0.00    +0.033 C 
ENDROOT
BRANCH   1  25
ATOM     20  C   UNL     1      -0.013   1.370  -0.148  0.00  0.00    +0.008 A 
ATOM     21  C   UNL     1       1.175   2.077  -0.156  0.00  0.00    +0.033 A 
ATOM     22  C   UNL     1       2.377   1.411  -0.013  0.00  0.00    +0.126 A 
ATOM     23  C   UNL     1       2.392   0.037   0.138  0.00  0.00    +0.033 A 
ATOM     24  C   UNL     1       1.204  -0.671   0.146  0.00  0.00    +0.008 A 
ATOM     25  C   UNL     1       0.002  -0.004   0.002  0.00  0.00    -0.027 A 
BRANCH  22  26
ATOM     26  N   UNL     1       3.649   2.168  -0.022  0.00  0.00    +0.056 N 
ATOM     27  O   UNL     1       3.636   3.370  -0.154  0.00  0.00    -0.126 OA
ATOM     28  O   UNL     1       4.701   1.585   0.103  0.00  0.00    -0.126 OA
ENDBRANCH  22  26
ENDBRANCH   1  25
BRANCH   9  29
ATOM     29  S   UNL     1       0.723  -7.033  -1.908  0.00  0.00    +0.056 S 
ATOM     30  O   UNL     1       0.187  -8.116  -1.159  0.00  0.00    -0.153 OA
ATOM     31  O   UNL     1       0.469  -6.868  -3.296  0.00  0.00    -0.153 OA
BRANCH  29  32
ATOM     32  N   UNL     1       2.368  -7.104  -1.733  0.00  0.00    -0.204 NA
ATOM     33  H   UNL     1       2.836  -6.399  -1.259  0.00  0.00    +0.144 HD
ATOM     34  H   UNL     1       2.863  -7.851  -2.103  0.00  0.00    +0.144 HD
ENDBRANCH  29  32
ENDBRANCH   9  29
TORSDOF 4
