REMARK  Name = ZINC36694795
REMARK  7 active torsions:
REMARK  status: ('A' for Active; 'I' for Inactive)
REMARK    1  A    between atoms: C_1  and  C_2
REMARK    2  A    between atoms: C_2  and  C_4
REMARK    3  A    between atoms: C_2  and  N_11
REMARK    4  A    between atoms: C_12  and  C_14
REMARK    5  A    between atoms: C_14  and  N_15
REMARK    6  A    between atoms: C_18  and  C_22
REMARK    7  A    between atoms: C_18  and  C_23
REMARK                            x       y       z     vdW  Elec       q    Type
REMARK                         _______ _______ _______ _____ _____    ______ ____
ROOT
ATOM      1  N   UNL     1      -0.240  -1.150  -4.711  0.00  0.00    -0.215 N 
ATOM      2  C   UNL     1      -0.988  -2.230  -5.014  0.00  0.00    +0.251 C 
ATOM      3  O   UNL     1      -1.000  -3.297  -4.439  0.00  0.00    -0.272 OA
ATOM      4  C   UNL     1      -1.811  -1.831  -6.223  0.00  0.00    +0.135 C 
ATOM      5  N   UNL     1      -1.392  -0.444  -6.485  0.00  0.00    -0.281 N 
ATOM      6  C   UNL     1      -0.477  -0.134  -5.549  0.00  0.00    +0.310 C 
ATOM      7  O   UNL     1       0.074   0.946  -5.474  0.00  0.00    -0.252 OA
ATOM      8  C   UNL     1      -3.305  -1.891  -5.899  0.00  0.00    +0.047 C 
ATOM      9  H   UNL     1      -1.716   0.135  -7.193  0.00  0.00    +0.152 HD
ENDROOT
BRANCH   4  10
ATOM     10  C   UNL     1      -1.487  -2.715  -7.400  0.00  0.00    -0.015 A 
ATOM     11  C   UNL     1      -1.085  -4.031  -7.180  0.00  0.00    +0.007 A 
ATOM     12  C   UNL     1      -0.784  -4.855  -8.221  0.00  0.00    +0.009 A 
ATOM     13  C   UNL     1      -0.879  -4.374  -9.538  0.00  0.00    -0.018 A 
ATOM     14  C   UNL     1      -0.578  -5.195 -10.638  0.00  0.00    +0.008 A 
ATOM     15  C   UNL     1      -0.681  -4.695 -11.900  0.00  0.00    +0.001 A 
ATOM     16  C   UNL     1      -1.083  -3.379 -12.120  0.00  0.00    +0.001 A 
ATOM     17  C   UNL     1      -1.383  -2.555 -11.079  0.00  0.00    +0.008 A 
ATOM     18  C   UNL     1      -1.288  -3.036  -9.761  0.00  0.00    -0.018 A 
ATOM     19  C   UNL     1      -1.595  -2.216  -8.662  0.00  0.00    +0.014 A 
ENDBRANCH   4  10
BRANCH   1  20
ATOM     20  C   UNL     1       0.712  -1.094  -3.598  0.00  0.00    +0.213 C 
BRANCH  20  22
ATOM     21  N   UNL     1       0.688  -0.476  -1.203  0.00  0.00    -0.307 N 
ATOM     22  C   UNL     1       0.006  -0.608  -2.358  0.00  0.00    +0.231 C 
ATOM     23  O   UNL     1      -1.175  -0.336  -2.400  0.00  0.00    -0.274 OA
ATOM     24  H   UNL     1       1.632  -0.695  -1.170  0.00  0.00    +0.149 HD
BRANCH  21  26
ATOM     25  C   UNL     1      -0.019   1.526   0.010  0.00  0.00    +0.033 C 
ATOM     26  C   UNL     1       0.002  -0.004   0.002  0.00  0.00    +0.102 C 
BRANCH  26  27
ATOM     27  C   UNL     1       0.731  -0.503   1.223  0.00  0.00    -0.009 A 
ATOM     28  C   UNL     1       2.077  -0.808   1.148  0.00  0.00    +0.007 A 
ATOM     29  C   UNL     1       2.746  -1.266   2.268  0.00  0.00    +0.000 A 
ATOM     30  C   UNL     1       2.069  -1.419   3.463  0.00  0.00    +0.001 A 
ATOM     31  C   UNL     1       0.723  -1.115   3.539  0.00  0.00    +0.020 A 
ATOM     32  C   UNL     1       0.054  -0.651   2.420  0.00  0.00    +0.046 A 
ATOM     33 CL   UNL     1      -1.635  -0.263   2.517  0.00  0.00    -0.083 Cl
ENDBRANCH  26  27
ENDBRANCH  21  26
ENDBRANCH  20  22
ENDBRANCH   1  20
TORSDOF 5
