REMARK  Name = ZINC38669314
REMARK  5 active torsions:
REMARK  status: ('A' for Active; 'I' for Inactive)
REMARK    1  A    between atoms: C_1  and  C_2
REMARK    2  A    between atoms: N_10  and  N_11
REMARK    3  A    between atoms: C_12  and  C_13
REMARK    4  A    between atoms: C_20  and  C_25
REMARK    5  A    between atoms: C_20  and  C_26
REMARK                            x       y       z     vdW  Elec       q    Type
REMARK                         _______ _______ _______ _____ _____    ______ ____
ROOT
ATOM      1  C   UNL     1       0.202   1.803   0.487  0.00  0.00    +0.044 C 
ATOM      2  C   UNL     1       0.210   0.301   0.368  0.00  0.00    -0.050 A 
ATOM      3  C   UNL     1       0.255  -0.282  -0.900  0.00  0.00    +0.005 A 
ATOM      4  C   UNL     1       0.266  -1.628  -1.066  0.00  0.00    +0.026 A 
ATOM      5  C   UNL     1       0.233  -2.481   0.064  0.00  0.00    +0.044 A 
ATOM      6  N   UNL     1       0.216  -3.801   0.160  0.00  0.00    -0.372 N 
ATOM      7  C   UNL     1       0.258  -4.181   1.570  0.00  0.00    +0.163 C 
ATOM      8  C   UNL     1      -0.911  -5.044   1.963  0.00  0.00    +0.070 C 
ATOM      9  N   UNL     1      -1.604  -5.638   1.044  0.00  0.00    -0.156 NA
ATOM     10  C   UNL     1      -1.286  -5.227   3.409  0.00  0.00    +0.072 C 
ATOM     11  C   UNL     1      -0.259  -4.611   4.358  0.00  0.00    +0.021 C 
ATOM     12  S   UNL     1      -0.079  -2.835   3.985  0.00  0.00    -0.120 S 
ATOM     13  C   UNL     1       0.146  -2.871   2.336  0.00  0.00    +0.023 C 
ATOM     14  C   UNL     1       0.181  -1.863   1.403  0.00  0.00    +0.010 A 
ATOM     15  C   UNL     1       0.179  -0.453   1.496  0.00  0.00    +0.014 A 
ATOM     16  C   UNL     1      -0.732  -4.783   5.803  0.00  0.00    +0.023 C 
ATOM     17  C   UNL     1       1.089  -5.310   4.174  0.00  0.00    +0.023 C 
ATOM     18  H   UNL     1       0.180  -4.419  -0.587  0.00  0.00    +0.161 HD
ENDROOT
BRANCH   9  19
ATOM     19  N   UNL     1      -2.695  -6.443   1.399  0.00  0.00    -0.157 NA
ATOM     20  C   UNL     1      -3.393  -7.041   0.472  0.00  0.00    +0.142 C 
BRANCH  20  21
ATOM     21  C   UNL     1      -4.538  -7.886   0.845  0.00  0.00    -0.005 A 
ATOM     22  C   UNL     1      -4.885  -8.047   2.190  0.00  0.00    +0.009 A 
ATOM     23  C   UNL     1      -5.960  -8.841   2.531  0.00  0.00    +0.001 A 
ATOM     24  C   UNL     1      -6.694  -9.479   1.546  0.00  0.00    +0.000 A 
ATOM     25  C   UNL     1      -6.356  -9.325   0.213  0.00  0.00    +0.001 A 
ATOM     26  C   UNL     1      -5.289  -8.529  -0.145  0.00  0.00    +0.009 A 
ENDBRANCH  20  21
ENDBRANCH   9  19
TORSDOF 2
