REMARK  Name = ZINC65373289
REMARK  6 active torsions:
REMARK  status: ('A' for Active; 'I' for Inactive)
REMARK    1  A    between atoms: C_1  and  C_2
REMARK    2  A    between atoms: C_11  and  C_12
REMARK    3  A    between atoms: C_12  and  C_13
REMARK    4  A    between atoms: N_15  and  C_16
REMARK    5  A    between atoms: C_16  and  C_17
REMARK    6  A    between atoms: C_22  and  C_23
REMARK                            x       y       z     vdW  Elec       q    Type
REMARK                         _______ _______ _______ _____ _____    ______ ____
ROOT
ATOM      1  C   UNL     1       1.116  -4.629   2.287  0.00  0.00    +0.215 C 
ATOM      2  O   UNL     1       1.419  -4.691   1.114  0.00  0.00    -0.276 OA
ATOM      3  N   UNL     1       0.653  -5.724   2.922  0.00  0.00    -0.314 N 
ATOM      4  H   UNL     1       0.411  -5.674   3.860  0.00  0.00    +0.149 HD
ENDROOT
BRANCH   1   5
ATOM      5  C   UNL     1       1.256  -3.327   3.033  0.00  0.00    +0.124 C 
BRANCH   5  15
ATOM      6  C   UNL     1       5.134   0.976   2.298  0.00  0.00    +0.043 C 
ATOM      7  C   UNL     1       3.713   0.626   2.660  0.00  0.00    -0.031 C 
ATOM      8  C   UNL     1       2.745   1.538   2.561  0.00  0.00    +0.004 C 
ATOM      9  C   UNL     1       1.352   1.233   2.911  0.00  0.00    +0.015 C 
ATOM     10  C   UNL     1       0.959  -0.060   3.007  0.00  0.00    +0.073 C 
ATOM     11  N   UNL     1       1.951  -0.990   2.785  0.00  0.00    -0.303 N 
ATOM     12  C   UNL     1       3.364  -0.762   3.136  0.00  0.00    +0.218 C 
ATOM     13  N   UNL     1       4.136  -1.790   2.450  0.00  0.00    -0.267 NA
ATOM     14  C   UNL     1       3.376  -2.650   1.893  0.00  0.00    +0.103 C 
ATOM     15  C   UNL     1       1.929  -2.291   2.130  0.00  0.00    +0.125 C 
ENDBRANCH   5  15
ENDBRANCH   1   5
BRANCH   3  16
ATOM     16  C   UNL     1       0.517  -6.989   2.197  0.00  0.00    +0.119 C 
BRANCH  16  17
ATOM     17  C   UNL     1      -0.025  -8.063   3.142  0.00  0.00    +0.101 C 
ATOM     18  C   UNL     1      -1.462  -7.766   3.520  0.00  0.00    +0.119 C 
ATOM     19  N   UNL     1      -2.162  -8.764   3.088  0.00  0.00    -0.161 NA
ATOM     20  N   UNL     1      -1.384  -9.726   2.451  0.00  0.00    -0.153 NA
ATOM     21  C   UNL     1      -0.112  -9.402   2.436  0.00  0.00    +0.087 C 
BRANCH  21  22
ATOM     22  C   UNL     1       0.957 -10.144   1.876  0.00  0.00    +0.036 A 
ATOM     23  C   UNL     1       0.923 -11.367   1.217  0.00  0.00    +0.017 A 
ATOM     24  C   UNL     1       2.138 -11.842   0.781  0.00  0.00    +0.008 A 
ATOM     25  C   UNL     1       3.254 -11.110   1.014  0.00  0.00    +0.046 A 
ATOM     26  S   UNL     1       2.695  -9.750   1.826  0.00  0.00    -0.095 S 
ENDBRANCH  21  22
ENDBRANCH  16  17
ENDBRANCH   3  16
TORSDOF 5
