REMARK  Name = ZINC35222032
REMARK  2 active torsions:
REMARK  status: ('A' for Active; 'I' for Inactive)
REMARK    1  A    between atoms: C_1  and  C_2
REMARK    2  A    between atoms: N_13  and  C_14
REMARK                            x       y       z     vdW  Elec       q    Type
REMARK                         _______ _______ _______ _____ _____    ______ ____
ROOT
ATOM      1  C   UNL     1       1.657   0.960  -0.596  0.00  0.00    +0.028 C 
ATOM      2  C   UNL     1       0.925  -0.349  -0.294  0.00  0.00    +0.073 C 
ATOM      3  C   UNL     1      -0.465  -0.320  -0.938  0.00  0.00    +0.022 C 
ATOM      4  C   UNL     1      -1.244  -1.569  -0.518  0.00  0.00    +0.003 C 
ATOM      5  C   UNL     1      -1.416  -1.578   1.003  0.00  0.00    +0.019 C 
ATOM      6  C   UNL     1      -0.036  -1.621   1.668  0.00  0.00    +0.108 C 
ATOM      7  N   UNL     1       0.773  -0.506   1.159  0.00  0.00    -0.297 N 
ATOM      8  C   UNL     1       1.379   0.385   2.032  0.00  0.00    +0.218 A 
ATOM      9  N   UNL     1       1.495   1.668   1.849  0.00  0.00    -0.137 NA
ATOM     10  N   UNL     1       2.166   2.206   2.956  0.00  0.00    -0.253 N 
ATOM     11  C   UNL     1       2.439   1.187   3.796  0.00  0.00    +0.177 A 
ATOM     12  N   UNL     1       1.953   0.060   3.239  0.00  0.00    -0.288 N 
ATOM     13  S   UNL     1       3.249   1.305   5.300  0.00  0.00    -0.011 S 
ATOM     14  H   UNL     1       2.392   3.140   3.092  0.00  0.00    +0.191 HD
ENDROOT
BRANCH  12  15
ATOM     15  C   UNL     1       2.027  -1.284   3.819  0.00  0.00    +0.092 C 
ATOM     16  C   UNL     1       3.488  -1.639   4.098  0.00  0.00    +0.025 C 
ATOM     17  C   UNL     1       3.565  -3.042   4.704  0.00  0.00    +0.002 C 
ATOM     18  C   UNL     1       2.773  -3.077   6.013  0.00  0.00    +0.000 C 
ATOM     19  C   UNL     1       1.312  -2.721   5.734  0.00  0.00    +0.002 C 
ATOM     20  C   UNL     1       1.235  -1.318   5.128  0.00  0.00    +0.025 C 
ENDBRANCH  12  15
TORSDOF 1
