REMARK  Name = ZINC33315008
REMARK  7 active torsions:
REMARK  status: ('A' for Active; 'I' for Inactive)
REMARK    1  A    between atoms: C_1  and  C_2
REMARK    2  A    between atoms: C_5  and  C_21
REMARK    3  A    between atoms: C_7  and  N_8
REMARK    4  A    between atoms: N_23  and  C_24
REMARK    5  A    between atoms: C_27  and  C_30
REMARK    6  A    between atoms: C_30  and  C_31
REMARK    7  A    between atoms: C_30  and  C_32
REMARK                            x       y       z     vdW  Elec       q    Type
REMARK                         _______ _______ _______ _____ _____    ______ ____
ROOT
ATOM      1  C   UNL     1      -3.542  -5.327  -0.541  0.00  0.00    +0.046 C 
ATOM      2  C   UNL     1      -4.026  -3.934  -0.232  0.00  0.00    -0.025 A 
ATOM      3  C   UNL     1      -5.382  -3.677  -0.151  0.00  0.00    +0.006 A 
ATOM      4  C   UNL     1      -5.833  -2.404   0.131  0.00  0.00    +0.013 A 
ATOM      5  C   UNL     1      -4.918  -1.369   0.337  0.00  0.00    +0.039 A 
ATOM      6  C   UNL     1      -3.550  -1.629   0.261  0.00  0.00    +0.041 A 
ATOM      7  C   UNL     1      -3.108  -2.911  -0.029  0.00  0.00    +0.070 A 
ENDROOT
BRANCH   7   8
ATOM      8  N   UNL     1      -1.736  -3.175  -0.111  0.00  0.00    -0.226 NA
ATOM      9  C   UNL     1      -0.825  -2.203   0.237  0.00  0.00    +0.155 C 
ATOM     10  N   UNL     1      -1.077  -0.953   0.609  0.00  0.00    -0.318 N 
ATOM     11  C   UNL     1       0.033  -0.177   1.056  0.00  0.00    +0.108 C 
ATOM     12  C   UNL     1       0.026   1.331   1.237  0.00  0.00    +0.189 C 
ATOM     13  S   UNL     1       1.841   1.634   1.461  0.00  0.00    -0.028 S 
ATOM     14  O   UNL     1       2.287   2.537   0.459  0.00  0.00    -0.174 OA
ATOM     15  O   UNL     1       2.098   1.920   2.829  0.00  0.00    -0.174 OA
ATOM     16  C   UNL     1       2.472  -0.067   1.068  0.00  0.00    +0.182 C 
ATOM     17  C   UNL     1       1.300  -0.547   0.194  0.00  0.00    +0.097 C 
ATOM     18  S   UNL     1       0.968  -2.345   0.271  0.00  0.00    -0.084 S 
ATOM     19  H   UNL     1      -2.083  -0.511   0.585  0.00  0.00    +0.148 HD
ENDBRANCH   7   8
BRANCH   5  20
ATOM     20  C   UNL     1      -5.399  -0.004   0.640  0.00  0.00    +0.248 C 
ATOM     21  O   UNL     1      -4.601   0.895   0.819  0.00  0.00    -0.270 OA
ATOM     22  N   UNL     1      -6.721   0.243   0.718  0.00  0.00    -0.282 N 
ATOM     23  H   UNL     1      -7.441  -0.585   0.638  0.00  0.00    +0.155 HD
BRANCH  22  24
ATOM     24  C   UNL     1      -7.178   1.552   0.901  0.00  0.00    +0.034 A 
ATOM     25  C   UNL     1      -8.336   1.789   1.630  0.00  0.00    +0.023 A 
ATOM     26  C   UNL     1      -8.782   3.084   1.813  0.00  0.00    +0.006 A 
ATOM     27  C   UNL     1      -8.083   4.142   1.261  0.00  0.00    -0.045 A 
ATOM     28  C   UNL     1      -6.933   3.908   0.530  0.00  0.00    +0.006 A 
ATOM     29  C   UNL     1      -6.479   2.617   0.348  0.00  0.00    +0.023 A 
BRANCH  27  30
ATOM     30  C   UNL     1      -8.576   5.552   1.457  0.00  0.00    +0.013 C 
ATOM     31  C   UNL     1      -9.981   5.688   0.867  0.00  0.00    +0.012 C 
ATOM     32  C   UNL     1      -8.617   5.875   2.952  0.00  0.00    +0.012 C 
ENDBRANCH  27  30
ENDBRANCH  22  24
ENDBRANCH   5  20
TORSDOF 4
