REMARK  Name = ZINC66592398
REMARK  5 active torsions:
REMARK  status: ('A' for Active; 'I' for Inactive)
REMARK    1  A    between atoms: C_1  and  N_2
REMARK    2  A    between atoms: C_3  and  C_24
REMARK    3  A    between atoms: C_4  and  C_7
REMARK    4  A    between atoms: N_9  and  N_10
REMARK    5  A    between atoms: C_11  and  C_13
REMARK                            x       y       z     vdW  Elec       q    Type
REMARK                         _______ _______ _______ _____ _____    ______ ____
ROOT
ATOM      1  N   UNL     1       0.073  -5.661  -1.780  0.00  0.00    -0.230 N 
ATOM      2  C   UNL     1       0.093  -6.888  -1.222  0.00  0.00    +0.267 C 
ATOM      3  O   UNL     1       0.101  -7.006  -0.011  0.00  0.00    -0.268 OA
ATOM      4  H   UNL     1       0.067  -5.567  -2.745  0.00  0.00    +0.173 HD
ENDROOT
BRANCH   2   5
ATOM      5  C   UNL     1       0.106  -8.080  -2.075  0.00  0.00    +0.076 A 
ATOM      6  C   UNL     1       0.121  -9.409  -1.714  0.00  0.00    +0.024 A 
ATOM      7  C   UNL     1       0.158 -10.348  -2.749  0.00  0.00    -0.036 A 
ATOM      8  C   UNL     1       0.217  -9.868  -4.005  0.00  0.00    -0.006 A 
ATOM      9  S   UNL     1       0.098  -8.194  -3.851  0.00  0.00    -0.088 S 
ATOM     10  C   UNL     1       0.426 -10.536  -5.342  0.00  0.00    +0.043 C 
ATOM     11  C   UNL     1       0.623 -12.046  -5.213  0.00  0.00    +0.005 C 
ATOM     12  C   UNL     1      -0.710 -12.754  -5.034  0.00  0.00    +0.000 C 
ATOM     13  C   UNL     1      -1.678 -11.978  -4.164  0.00  0.00    +0.000 C 
ATOM     14  C   UNL     1      -1.341 -12.321  -2.709  0.00  0.00    +0.005 C 
ATOM     15  C   UNL     1       0.072 -11.827  -2.399  0.00  0.00    +0.036 C 
ENDBRANCH   2   5
BRANCH   1  18
ATOM     16  C   UNL     1       0.041  -3.294  -1.522  0.00  0.00    +0.264 C 
ATOM     17  O   UNL     1       0.034  -3.176  -2.732  0.00  0.00    -0.269 OA
ATOM     18  N   UNL     1       0.061  -4.521  -0.965  0.00  0.00    -0.230 N 
ATOM     19  H   UNL     1       0.067  -4.615   0.001  0.00  0.00    +0.173 HD
BRANCH  16  23
ATOM     20  C   UNL     1      -0.018   1.461   0.010  0.00  0.00    +0.173 C 
ATOM     21  N   UNL     1       0.002  -0.004   0.002  0.00  0.00    -0.265 N 
ATOM     22  C   UNL     1       0.008  -0.782  -1.092  0.00  0.00    +0.116 A 
ATOM     23  C   UNL     1       0.028  -2.095  -0.665  0.00  0.00    +0.084 A 
ATOM     24  C   UNL     1       0.035  -2.074   0.748  0.00  0.00    +0.148 A 
ATOM     25  N   UNL     1       0.025  -0.828   1.133  0.00  0.00    -0.179 NA
BRANCH  22  26
ATOM     26  C   UNL     1      -0.007  -0.310  -2.523  0.00  0.00    +0.390 C 
ATOM     27  F   UNL     1       0.635   0.930  -2.611  0.00  0.00    -0.202 F 
ATOM     28  F   UNL     1       0.662  -1.239  -3.327  0.00  0.00    -0.202 F 
ENDBRANCH  22  26
ENDBRANCH  16  23
ENDBRANCH   1  18
TORSDOF 4
