REMARK  Name = ZINC40965078
REMARK  6 active torsions:
REMARK  status: ('A' for Active; 'I' for Inactive)
REMARK    1  A    between atoms: C_1  and  C_2
REMARK    2  A    between atoms: C_5  and  C_9
REMARK    3  A    between atoms: C_7  and  C_8
REMARK    4  A    between atoms: C_10  and  C_19
REMARK    5  A    between atoms: C_15  and  S_17
REMARK    6  A    between atoms: S_17  and  C_18
REMARK                            x       y       z     vdW  Elec       q    Type
REMARK                         _______ _______ _______ _____ _____    ______ ____
ROOT
ATOM      1  C   UNL     1       0.060  -4.255  -0.021  0.00  0.00    +0.095 A 
ATOM      2  C   UNL     1      -0.560  -5.057  -0.925  0.00  0.00    +0.069 A 
ATOM      3  N   UNL     1      -0.291  -6.371  -0.575  0.00  0.00    -0.209 N 
ATOM      4  C   UNL     1       0.493  -6.289   0.545  0.00  0.00    +0.197 A 
ATOM      5  N   UNL     1       0.701  -5.045   0.864  0.00  0.00    -0.220 NA
ATOM      6  S   UNL     1       0.793  -7.998   0.929  0.00  0.00    -0.022 S 
ATOM      7  C   UNL     1      -0.138  -8.712  -0.417  0.00  0.00    +0.158 A 
ATOM      8  N   UNL     1      -0.588  -7.651  -1.032  0.00  0.00    -0.151 NA
ATOM      9  C   UNL     1      -1.390  -4.600  -2.097  0.00  0.00    +0.068 C 
ENDROOT
BRANCH   1  14
ATOM     10  C   UNL     1      -0.018   1.503   0.010  0.00  0.00    +0.044 C 
ATOM     11  C   UNL     1       0.002  -0.004   0.002  0.00  0.00    -0.047 A 
ATOM     12  C   UNL     1       0.006  -0.687  -1.201  0.00  0.00    +0.004 A 
ATOM     13  C   UNL     1       0.024  -2.066  -1.215  0.00  0.00    +0.010 A 
ATOM     14  C   UNL     1       0.040  -2.772  -0.013  0.00  0.00    +0.002 A 
ATOM     15  C   UNL     1       0.037  -2.080   1.196  0.00  0.00    +0.013 A 
ATOM     16  C   UNL     1       0.023  -0.699   1.198  0.00  0.00    -0.047 A 
ATOM     17  C   UNL     1       0.025   0.051   2.504  0.00  0.00    +0.044 C 
ENDBRANCH   1  14
BRANCH   7  18
ATOM     18  S   UNL     1      -0.386 -10.411  -0.814  0.00  0.00    -0.100 S 
ATOM     19  C   UNL     1      -1.427 -10.367  -2.298  0.00  0.00    +0.092 C 
ENDBRANCH   7  18
TORSDOF 2
