REMARK  Name = ZINC39515109
REMARK  5 active torsions:
REMARK  status: ('A' for Active; 'I' for Inactive)
REMARK    1  A    between atoms: C_1  and  C_2
REMARK    2  A    between atoms: C_8  and  C_12
REMARK    3  A    between atoms: N_14  and  C_15
REMARK    4  A    between atoms: C_15  and  C_17
REMARK    5  A    between atoms: C_15  and  C_24
REMARK                            x       y       z     vdW  Elec       q    Type
REMARK                         _______ _______ _______ _____ _____    ______ ____
ROOT
ATOM      1  C   UNL     1       2.887   0.211   1.819  0.00  0.00    +0.235 C 
ATOM      2  O   UNL     1       2.273   0.994   2.512  0.00  0.00    -0.274 OA
ATOM      3  N   UNL     1       4.235   0.233   1.809  0.00  0.00    -0.307 N 
ATOM      4  H   UNL     1       4.726  -0.394   1.254  0.00  0.00    +0.149 HD
ENDROOT
BRANCH   1  12
ATOM      5  C   UNL     1      -0.019   1.526   0.010  0.00  0.00    +0.044 C 
ATOM      6  C   UNL     1       0.002  -0.004   0.002  0.00  0.00    +0.082 C 
ATOM      7  C   UNL     1      -1.404  -0.622   0.037  0.00  0.00    +0.046 C 
ATOM      8  C   UNL     1      -1.621  -0.740   1.566  0.00  0.00    +0.099 C 
ATOM      9  C   UNL     1      -0.224  -0.854   2.133  0.00  0.00    +0.217 C 
ATOM     10  O   UNL     1       0.033  -1.143   3.282  0.00  0.00    -0.276 OA
ATOM     11  N   UNL     1       0.703  -0.589   1.174  0.00  0.00    -0.275 N 
ATOM     12  C   UNL     1       2.143  -0.788   0.970  0.00  0.00    +0.173 C 
ATOM     13  C   UNL     1       2.620  -0.629  -0.494  0.00  0.00    +0.103 C 
ATOM     14  S   UNL     1       0.998  -0.704  -1.380  0.00  0.00    -0.133 S 
ENDBRANCH   1  12
BRANCH   3  15
ATOM     15  C   UNL     1       4.958   1.203   2.634  0.00  0.00    +0.106 C 
BRANCH  15  16
ATOM     16  C   UNL     1       6.335   0.674   2.941  0.00  0.00    -0.027 A 
ATOM     17  C   UNL     1       7.057   0.018   1.961  0.00  0.00    +0.007 A 
ATOM     18  C   UNL     1       8.320  -0.468   2.241  0.00  0.00    +0.020 A 
ATOM     19  C   UNL     1       8.863  -0.296   3.502  0.00  0.00    +0.041 A 
ATOM     20  C   UNL     1       8.140   0.362   4.482  0.00  0.00    +0.020 A 
ATOM     21  C   UNL     1       6.879   0.852   4.199  0.00  0.00    +0.007 A 
ATOM     22 CL   UNL     1      10.450  -0.905   3.855  0.00  0.00    -0.084 Cl
ENDBRANCH  15  16
BRANCH  15  23
ATOM     23  C   UNL     1       5.076   2.528   1.878  0.00  0.00    +0.014 C 
ATOM     24  C   UNL     1       4.634   3.799   2.606  0.00  0.00    +0.006 C 
ATOM     25  C   UNL     1       3.778   3.229   1.474  0.00  0.00    +0.006 C 
ENDBRANCH  15  23
ENDBRANCH   3  15
TORSDOF 4
