REMARK  Name = ZINC63140078
REMARK  13 active torsions:
REMARK  status: ('A' for Active; 'I' for Inactive)
REMARK    1  A    between atoms: C_1  and  C_2
REMARK    2  A    between atoms: C_2  and  C_3
REMARK    3  A    between atoms: C_3  and  C_4
REMARK    4  A    between atoms: C_4  and  N_5
REMARK    5  A    between atoms: N_5  and  C_6
REMARK    6  A    between atoms: N_5  and  C_10
REMARK    7  A    between atoms: C_6  and  C_7
REMARK    8  A    between atoms: C_7  and  C_8
REMARK    9  A    between atoms: C_8  and  C_9
REMARK   10  A    between atoms: C_10  and  C_11
REMARK   11  A    between atoms: C_11  and  C_12
REMARK   12  A    between atoms: C_12  and  N_13
REMARK   13  A    between atoms: C_33  and  C_35
REMARK                            x       y       z     vdW  Elec       q    Type
REMARK                         _______ _______ _______ _____ _____    ______ ____
ROOT
ATOM      1  N   UNL     1      -6.051  -5.644   0.762  0.00  0.00    -0.291 N 
ATOM      2  C   UNL     1      -6.675  -5.285   2.048  0.00  0.00    +0.203 C 
ATOM      3  C   UNL     1      -7.787  -4.293   1.782  0.00  0.00    +0.234 C 
ATOM      4  O   UNL     1      -7.937  -3.308   2.474  0.00  0.00    -0.274 OA
ATOM      5  N   UNL     1      -8.617  -4.559   0.721  0.00  0.00    -0.279 N 
ATOM      6  C   UNL     1      -8.368  -5.809   0.035  0.00  0.00    +0.167 C 
ATOM      7  C   UNL     1      -6.896  -5.930  -0.272  0.00  0.00    +0.237 C 
ATOM      8  O   UNL     1      -6.491  -6.262  -1.366  0.00  0.00    -0.274 OA
ATOM      9  C   UNL     1      -9.231  -6.160  -1.149  0.00  0.00    +0.065 C 
ATOM     10  C   UNL     1     -10.079  -4.979  -1.532  0.00  0.00    -0.034 C 
ATOM     11  C   UNL     1     -10.419  -4.472  -2.709  0.00  0.00    -0.001 A 
ATOM     12  C   UNL     1     -10.127  -4.907  -4.085  0.00  0.00    +0.010 A 
ATOM     13  C   UNL     1     -10.635  -4.132  -5.080  0.00  0.00    +0.001 A 
ATOM     14  C   UNL     1     -11.395  -2.982  -4.847  0.00  0.00    +0.002 A 
ATOM     15  C   UNL     1     -11.716  -2.511  -3.615  0.00  0.00    +0.026 A 
ATOM     16  C   UNL     1     -11.241  -3.244  -2.488  0.00  0.00    +0.043 A 
ATOM     17  N   UNL     1     -11.405  -3.029  -1.218  0.00  0.00    -0.375 N 
ATOM     18  C   UNL     1     -10.735  -4.100  -0.469  0.00  0.00    +0.131 C 
ATOM     19  C   UNL     1      -9.605  -3.544   0.384  0.00  0.00    +0.133 C 
ATOM     20  H   UNL     1     -11.889  -2.284  -0.828  0.00  0.00    +0.160 HD
ENDROOT
BRANCH  19  21
ATOM     21  C   UNL     1      -8.935  -2.453  -0.411  0.00  0.00    -0.025 A 
ATOM     22  C   UNL     1      -7.954  -2.771  -1.332  0.00  0.00    +0.005 A 
ATOM     23  C   UNL     1      -7.340  -1.770  -2.061  0.00  0.00    +0.000 A 
ATOM     24  C   UNL     1      -7.706  -0.451  -1.869  0.00  0.00    +0.000 A 
ATOM     25  C   UNL     1      -8.688  -0.133  -0.948  0.00  0.00    +0.000 A 
ATOM     26  C   UNL     1      -9.305  -1.134  -0.223  0.00  0.00    +0.005 A 
ENDBRANCH  19  21
BRANCH   1  27
ATOM     27  C   UNL     1      -4.595  -5.687   0.599  0.00  0.00    +0.106 C 
BRANCH  27  28
ATOM     28  C   UNL     1      -4.080  -4.288   0.252  0.00  0.00    +0.000 C 
BRANCH  28  29
ATOM     29  C   UNL     1      -2.578  -4.354  -0.031  0.00  0.00    -0.077 C 
BRANCH  29  30
ATOM     30  N   UNL     1      -2.107  -3.040  -0.488  0.00  0.00    +0.380 N 
ATOM     31  H   UNL     1      -2.658  -2.743  -1.280  0.00  0.00    -0.082 HD
BRANCH  30  32
ATOM     32  C   UNL     1      -2.248  -2.064   0.600  0.00  0.00    -0.079 C 
BRANCH  32  33
ATOM     33  C   UNL     1      -1.877  -0.671   0.087  0.00  0.00    -0.019 C 
BRANCH  33  35
ATOM     34  C   UNL     1      -1.651   1.739   0.708  0.00  0.00    +0.004 C 
ATOM     35  C   UNL     1      -2.023   0.346   1.221  0.00  0.00    -0.005 C 
ENDBRANCH  33  35
ENDBRANCH  32  33
ENDBRANCH  30  32
BRANCH  30  36
ATOM     36  C   UNL     1      -0.695  -3.135  -0.882  0.00  0.00    -0.079 C 
BRANCH  36  37
ATOM     37  C   UNL     1      -0.565  -4.051  -2.100  0.00  0.00    -0.019 C 
BRANCH  37  38
ATOM     38  C   UNL     1       0.883  -4.043  -2.592  0.00  0.00    -0.005 C 
ATOM     39  C   UNL     1       1.037  -5.040  -3.742  0.00  0.00    +0.004 C 
ENDBRANCH  37  38
ENDBRANCH  36  37
ENDBRANCH  30  36
ENDBRANCH  29  30
ENDBRANCH  28  29
ENDBRANCH  27  28
ENDBRANCH   1  27
TORSDOF 11
