REMARK  Name = ZINC03464416
REMARK  8 active torsions:
REMARK  status: ('A' for Active; 'I' for Inactive)
REMARK    1  A    between atoms: C_1  and  C_2
REMARK    2  A    between atoms: C_2  and  C_3
REMARK    3  A    between atoms: C_3  and  C_23
REMARK    4  A    between atoms: N_6  and  C_10
REMARK    5  A    between atoms: C_10  and  C_11
REMARK    6  A    between atoms: N_13  and  C_14
REMARK    7  A    between atoms: C_17  and  C_20
REMARK    8  A    between atoms: C_20  and  C_22
REMARK                            x       y       z     vdW  Elec       q    Type
REMARK                         _______ _______ _______ _____ _____    ______ ____
ROOT
ATOM      1  C   UNL     1      -0.404   3.892   0.019  0.00  0.00    +0.138 C 
ATOM      2  C   UNL     1       1.087   3.624   0.037  0.00  0.00    +0.251 C 
ATOM      3  O   UNL     1       1.978   4.444   0.092  0.00  0.00    -0.272 OA
ATOM      4  N   UNL     1       1.217   2.283  -0.021  0.00  0.00    -0.215 N 
ATOM      5  C   UNL     1       0.027   1.674  -0.073  0.00  0.00    +0.310 C 
ATOM      6  O   UNL     1      -0.113   0.468  -0.130  0.00  0.00    -0.252 OA
ATOM      7  N   UNL     1      -0.997   2.546  -0.059  0.00  0.00    -0.281 N 
ATOM      8  H   UNL     1      -1.942   2.330  -0.094  0.00  0.00    +0.152 HD
ENDROOT
BRANCH   1   9
ATOM      9  C   UNL     1      -0.832   4.595   1.282  0.00  0.00    -0.015 A 
ATOM     10  C   UNL     1      -0.839   5.977   1.334  0.00  0.00    +0.007 A 
ATOM     11  C   UNL     1      -1.237   6.622   2.490  0.00  0.00    +0.020 A 
ATOM     12  C   UNL     1      -1.616   5.886   3.598  0.00  0.00    +0.041 A 
ATOM     13  C   UNL     1      -1.603   4.503   3.547  0.00  0.00    +0.020 A 
ATOM     14  C   UNL     1      -1.211   3.859   2.389  0.00  0.00    +0.007 A 
ATOM     15 CL   UNL     1      -2.108   6.696   5.053  0.00  0.00    -0.084 Cl
ENDBRANCH   1   9
BRANCH   1  17
ATOM     16  C   UNL     1      -0.506   3.906  -2.477  0.00  0.00    +0.007 C 
ATOM     17  C   UNL     1      -0.788   4.717  -1.211  0.00  0.00    +0.037 C 
ENDBRANCH   1  17
BRANCH   4  18
ATOM     18  C   UNL     1       2.502   1.581  -0.026  0.00  0.00    +0.214 C 
BRANCH  18  19
ATOM     19  C   UNL     1       2.973   1.404  -1.447  0.00  0.00    +0.235 C 
ATOM     20  O   UNL     1       2.300   1.823  -2.365  0.00  0.00    -0.274 OA
ATOM     21  N   UNL     1       4.140   0.779  -1.698  0.00  0.00    -0.284 N 
ATOM     22  H   UNL     1       4.714   0.510  -0.963  0.00  0.00    +0.155 HD
BRANCH  21  23
ATOM     23  C   UNL     1       4.524   0.520  -3.012  0.00  0.00    +0.033 A 
ATOM     24  C   UNL     1       5.871   0.552  -3.361  0.00  0.00    +0.024 A 
ATOM     25  C   UNL     1       6.254   0.294  -4.651  0.00  0.00    +0.013 A 
ATOM     26  C   UNL     1       5.286   0.008  -5.622  0.00  0.00    +0.017 A 
ATOM     27  C   UNL     1       3.931  -0.018  -5.268  0.00  0.00    +0.013 A 
ATOM     28  C   UNL     1       3.558   0.237  -3.974  0.00  0.00    +0.024 A 
BRANCH  26  29
ATOM     29  C   UNL     1       5.690  -0.265  -7.007  0.00  0.00    +0.160 C 
ATOM     30  O   UNL     1       4.847  -0.414  -7.867  0.00  0.00    -0.292 OA
ATOM     31  C   UNL     1       7.152  -0.359  -7.361  0.00  0.00    +0.091 C 
ENDBRANCH  26  29
ENDBRANCH  21  23
ENDBRANCH  18  19
ENDBRANCH   4  18
TORSDOF 6
