REMARK  Name = ZINC08739093
REMARK  10 active torsions:
REMARK  status: ('A' for Active; 'I' for Inactive)
REMARK    1  A    between atoms: C_1  and  C_2
REMARK    2  A    between atoms: C_6  and  O_26
REMARK    3  A    between atoms: C_7  and  C_18
REMARK    4  A    between atoms: C_12  and  C_13
REMARK    5  A    between atoms: C_13  and  C_14
REMARK    6  A    between atoms: C_14  and  O_16
REMARK    7  A    between atoms: O_16  and  C_17
REMARK    8  A    between atoms: C_18  and  N_48
REMARK    9  A    between atoms: C_19  and  C_20
REMARK   10  A    between atoms: C_19  and  N_48
REMARK                            x       y       z     vdW  Elec       q    Type
REMARK                         _______ _______ _______ _____ _____    ______ ____
ROOT
ATOM      1  C   UNL     1      -2.537  -0.471   0.010  0.00  0.00    +0.045 C 
ATOM      2  C   UNL     1      -2.505   1.036   0.019  0.00  0.00    -0.029 A 
ATOM      3  C   UNL     1      -1.233   1.761   0.018  0.00  0.00    +0.021 A 
ATOM      4  C   UNL     1      -0.013   1.076   0.008  0.00  0.00    +0.015 A 
ATOM      5  C   UNL     1       1.159   1.776   0.001  0.00  0.00    +0.046 A 
ATOM      6  C   UNL     1       1.148   3.170   0.008  0.00  0.00    +0.122 A 
ATOM      7  C   UNL     1      -0.051   3.864   0.024  0.00  0.00    +0.020 A 
ATOM      8  C   UNL     1      -1.250   3.168   0.032  0.00  0.00    +0.144 A 
ATOM      9  O   UNL     1      -2.429   3.826   0.047  0.00  0.00    -0.422 OA
ATOM     10  C   UNL     1      -3.599   3.167   0.035  0.00  0.00    +0.341 A 
ATOM     11  O   UNL     1      -4.638   3.803   0.043  0.00  0.00    -0.245 OA
ATOM     12  C   UNL     1      -3.655   1.758   0.028  0.00  0.00    +0.051 A 
ENDROOT
BRANCH   6  13
ATOM     13  O   UNL     1       2.321   3.852   0.001  0.00  0.00    -0.506 OA
ATOM     14  H   UNL     1       2.653   4.055  -0.885  0.00  0.00    +0.292 HD
ENDBRANCH   6  13
BRANCH  12  15
ATOM     15  C   UNL     1      -4.989   1.056   0.029  0.00  0.00    +0.163 C 
BRANCH  15  16
ATOM     16  C   UNL     1      -5.427   0.813   1.451  0.00  0.00    +0.311 C 
ATOM     17  O   UNL     1      -4.729   1.174   2.368  0.00  0.00    -0.250 OA
BRANCH  16  18
ATOM     18  O   UNL     1      -6.594   0.196   1.697  0.00  0.00    -0.468 OA
ATOM     19  C   UNL     1      -6.952  -0.004   3.090  0.00  0.00    +0.280 C 
ENDBRANCH  16  18
ENDBRANCH  15  16
ENDBRANCH  12  15
BRANCH   7  20
ATOM     20  C   UNL     1      -0.051   5.371   0.033  0.00  0.00    -0.039 C 
BRANCH  20  21
ATOM     21  N   UNL     1      -0.065   5.863  -1.358  0.00  0.00    +0.384 N 
ATOM     22  H   UNL     1      -0.907   5.517  -1.831  0.00  0.00    -0.085 HD
ATOM     23  H   UNL     1       0.769   5.518  -1.847  0.00  0.00    -0.085 HD
BRANCH  21  24
ATOM     24  C   UNL     1      -0.065   7.338  -1.379  0.00  0.00    -0.050 C 
BRANCH  24  25
ATOM     25  C   UNL     1      -0.079   7.818  -2.832  0.00  0.00    +0.101 C 
ATOM     26  C   UNL     1       0.046   9.357  -2.891  0.00  0.00    +0.032 C 
ATOM     27  C   UNL     1      -0.873   9.764  -4.064  0.00  0.00    +0.030 C 
ATOM     28  C   UNL     1      -1.445   8.423  -4.575  0.00  0.00    +0.160 C 
ATOM     29  O   UNL     1      -1.354   7.528  -3.445  0.00  0.00    -0.378 OA
ENDBRANCH  24  25
ENDBRANCH  21  24
ENDBRANCH  20  21
ENDBRANCH   7  20
TORSDOF 8
