REMARK  Name = ZINC64002425
REMARK  9 active torsions:
REMARK  status: ('A' for Active; 'I' for Inactive)
REMARK    1  A    between atoms: C_1  and  C_2
REMARK    2  A    between atoms: C_6  and  C_12
REMARK    3  A    between atoms: C_10  and  C_11
REMARK    4  A    between atoms: C_12  and  N_13
REMARK    5  A    between atoms: N_13  and  C_14
REMARK    6  A    between atoms: C_15  and  C_17
REMARK    7  A    between atoms: C_19  and  C_22
REMARK    8  A    between atoms: C_22  and  C_23
REMARK    9  A    between atoms: C_22  and  C_29
REMARK                            x       y       z     vdW  Elec       q    Type
REMARK                         _______ _______ _______ _____ _____    ______ ____
ROOT
ATOM      1  N   UNL     1      -2.408  -4.528  -1.565  0.00  0.00    -0.294 N 
ATOM      2  C   UNL     1      -2.890  -3.398  -2.364  0.00  0.00    +0.132 C 
ATOM      3  C   UNL     1      -3.031  -4.854  -0.415  0.00  0.00    +0.285 C 
ATOM      4  O   UNL     1      -2.575  -5.728   0.296  0.00  0.00    -0.267 OA
ENDROOT
BRANCH   3   5
ATOM      5  C   UNL     1      -4.265  -4.150  -0.019  0.00  0.00    +0.222 A 
ATOM      6  C   UNL     1      -4.928  -4.293   1.161  0.00  0.00    +0.082 A 
ATOM      7  C   UNL     1      -6.048  -3.445   1.133  0.00  0.00    +0.096 A 
ATOM      8  N   UNL     1      -6.061  -2.821  -0.010  0.00  0.00    -0.082 NA
ATOM      9  O   UNL     1      -4.937  -3.246  -0.759  0.00  0.00    -0.350 OA
BRANCH   7  10
ATOM     10  C   UNL     1      -7.061  -3.286   2.237  0.00  0.00    +0.101 C 
BRANCH  10  11
ATOM     11  C   UNL     1      -8.096  -4.377   2.131  0.00  0.00    -0.034 A 
ATOM     12  C   UNL     1      -7.730  -5.697   2.317  0.00  0.00    +0.004 A 
ATOM     13  C   UNL     1      -8.678  -6.698   2.220  0.00  0.00    +0.000 A 
ATOM     14  C   UNL     1      -9.993  -6.378   1.936  0.00  0.00    +0.000 A 
ATOM     15  C   UNL     1     -10.359  -5.058   1.750  0.00  0.00    +0.000 A 
ATOM     16  C   UNL     1      -9.411  -4.057   1.852  0.00  0.00    +0.004 A 
ENDBRANCH  10  11
BRANCH  10  17
ATOM     17  C   UNL     1      -6.369  -3.379   3.572  0.00  0.00    -0.034 A 
ATOM     18  C   UNL     1      -5.095  -2.865   3.728  0.00  0.00    +0.004 A 
ATOM     19  C   UNL     1      -4.460  -2.950   4.952  0.00  0.00    +0.000 A 
ATOM     20  C   UNL     1      -5.098  -3.550   6.022  0.00  0.00    +0.000 A 
ATOM     21  C   UNL     1      -6.372  -4.064   5.867  0.00  0.00    +0.000 A 
ATOM     22  C   UNL     1      -7.009  -3.975   4.643  0.00  0.00    +0.004 A 
ENDBRANCH  10  17
ENDBRANCH   7  10
ENDBRANCH   3   5
BRANCH   1  23
ATOM     23  C   UNL     1      -1.250  -5.303  -2.017  0.00  0.00    +0.154 C 
BRANCH  23  29
ATOM     24  C   UNL     1       0.371   0.933   0.730  0.00  0.00    +0.044 C 
ATOM     25  C   UNL     1       0.257  -0.561   0.568  0.00  0.00    -0.045 A 
ATOM     26  C   UNL     1       0.282  -1.081  -0.675  0.00  0.00    +0.031 A 
ATOM     27  C   UNL     1       0.173  -2.536  -0.855  0.00  0.00    +0.060 A 
ATOM     28  N   UNL     1       0.168  -3.299  -1.910  0.00  0.00    -0.362 N 
ATOM     29  C   UNL     1       0.029  -4.686  -1.448  0.00  0.00    +0.192 C 
ATOM     30  N   UNL     1      -0.046  -4.630   0.017  0.00  0.00    -0.362 N 
ATOM     31  C   UNL     1       0.037  -3.378   0.364  0.00  0.00    +0.060 A 
ATOM     32  C   UNL     1       0.022  -2.700   1.668  0.00  0.00    +0.031 A 
ATOM     33  C   UNL     1       0.134  -1.358   1.720  0.00  0.00    -0.045 A 
ATOM     34  C   UNL     1       0.121  -0.683   3.068  0.00  0.00    +0.044 C 
ATOM     35  H   UNL     1       0.242  -3.006  -2.831  0.00  0.00    +0.162 HD
ATOM     36  H   UNL     1      -0.141  -5.387   0.616  0.00  0.00    +0.162 HD
ENDBRANCH  23  29
ENDBRANCH   1  23
TORSDOF 6
