REMARK  Name = ZINC05292020
REMARK  5 active torsions:
REMARK  status: ('A' for Active; 'I' for Inactive)
REMARK    1  A    between atoms: C_1  and  C_2
REMARK    2  A    between atoms: C_2  and  C_3
REMARK    3  A    between atoms: C_12  and  C_13
REMARK    4  A    between atoms: C_13  and  C_15
REMARK    5  A    between atoms: C_15  and  N_16
REMARK                            x       y       z     vdW  Elec       q    Type
REMARK                         _______ _______ _______ _____ _____    ______ ____
ROOT
ATOM      1  C   UNL     1       2.909   1.446  -1.438  0.00  0.00    +0.183 C 
ATOM      2  O   UNL     1       2.149   1.691  -2.352  0.00  0.00    -0.290 OA
ENDROOT
BRANCH   1  12
ATOM      3  C   UNL     1       7.002   0.139  -3.873  0.00  0.00    -0.024 A 
ATOM      4  C   UNL     1       6.532   0.276  -5.162  0.00  0.00    +0.005 A 
ATOM      5  C   UNL     1       5.230   0.691  -5.399  0.00  0.00    +0.001 A 
ATOM      6  C   UNL     1       4.385   0.964  -4.346  0.00  0.00    +0.011 A 
ATOM      7  C   UNL     1       4.844   0.822  -3.039  0.00  0.00    +0.010 A 
ATOM      8  C   UNL     1       6.162   0.406  -2.796  0.00  0.00    +0.050 A 
ATOM      9  N   UNL     1       6.337   0.346  -1.429  0.00  0.00    -0.360 N 
ATOM     10  H   UNL     1       7.160   0.081  -0.989  0.00  0.00    +0.165 HD
ATOM     11  C   UNL     1       5.208   0.707  -0.788  0.00  0.00    +0.095 A 
ATOM     12  C   UNL     1       4.233   1.022  -1.711  0.00  0.00    +0.044 A 
BRANCH   3  14
ATOM     13  C   UNL     1       8.439  -1.832  -3.428  0.00  0.00    +0.009 C 
ATOM     14  C   UNL     1       8.418  -0.316  -3.631  0.00  0.00    +0.034 C 
ENDBRANCH   3  14
ENDBRANCH   1  12
BRANCH   1  15
ATOM     15  C   UNL     1       2.443   1.592  -0.012  0.00  0.00    +0.197 C 
BRANCH  15  16
ATOM     16  N   UNL     1       1.048   2.039   0.003  0.00  0.00    -0.217 N 
ATOM     17  C   UNL     1      -0.014   1.208   0.009  0.00  0.00    +0.247 C 
ATOM     18  O   UNL     1       0.002  -0.004   0.002  0.00  0.00    -0.273 OA
ATOM     19  C   UNL     1      -1.230   2.107   0.018  0.00  0.00    +0.113 C 
ATOM     20  C   UNL     1      -2.058   1.866   1.276  0.00  0.00    +0.035 C 
ATOM     21  C   UNL     1      -3.268   2.804   1.280  0.00  0.00    +0.003 C 
ATOM     22  C   UNL     1      -4.116   2.547   0.033  0.00  0.00    +0.000 C 
ATOM     23  C   UNL     1      -3.279   2.817  -1.219  0.00  0.00    +0.003 C 
ATOM     24  C   UNL     1      -2.069   1.879  -1.234  0.00  0.00    +0.035 C 
ATOM     25  N   UNL     1      -0.670   3.464   0.026  0.00  0.00    -0.285 N 
ATOM     26  C   UNL     1       0.670   3.323   0.013  0.00  0.00    +0.310 C 
ATOM     27  O   UNL     1       1.448   4.257   0.010  0.00  0.00    -0.252 OA
ATOM     28  H   UNL     1      -1.166   4.297   0.034  0.00  0.00    +0.151 HD
ENDBRANCH  15  16
ENDBRANCH   1  15
TORSDOF 4
