REMARK  Name = ZINC19793158
REMARK  8 active torsions:
REMARK  status: ('A' for Active; 'I' for Inactive)
REMARK    1  A    between atoms: C_1  and  C_2
REMARK    2  A    between atoms: C_2  and  O_3
REMARK    3  A    between atoms: O_3  and  C_4
REMARK    4  A    between atoms: C_9  and  O_10
REMARK    5  A    between atoms: O_10  and  C_11
REMARK    6  A    between atoms: C_18  and  C_26
REMARK    7  A    between atoms: C_21  and  C_22
REMARK    8  A    between atoms: C_26  and  N_27
REMARK                            x       y       z     vdW  Elec       q    Type
REMARK                         _______ _______ _______ _____ _____    ______ ____
ROOT
ATOM      1  C   UNL     1       3.544   3.567  -0.012  0.00  0.00    +0.222 A 
ATOM      2  C   UNL     1       3.650   2.147  -0.021  0.00  0.00    +0.235 A 
ATOM      3  O   UNL     1       4.736   1.591  -0.033  0.00  0.00    -0.283 OA
ATOM      4  C   UNL     1       2.394   1.378  -0.013  0.00  0.00    +0.068 A 
ATOM      5  C   UNL     1       2.396  -0.018  -0.020  0.00  0.00    +0.019 A 
ATOM      6  C   UNL     1       1.211  -0.697  -0.013  0.00  0.00    +0.052 A 
ATOM      7  C   UNL     1       0.002  -0.004   0.002  0.00  0.00    +0.184 A 
ATOM      8  C   UNL     1      -0.017   1.380   0.010  0.00  0.00    +0.026 A 
ATOM      9  C   UNL     1       1.179   2.085   0.002  0.00  0.00    +0.144 A 
ATOM     10  O   UNL     1       1.189   3.433   0.009  0.00  0.00    -0.447 OA
ATOM     11  C   UNL     1       2.325   4.143   0.002  0.00  0.00    +0.254 A 
ATOM     12  O   UNL     1      -1.168  -0.693   0.009  0.00  0.00    -0.288 OA
ENDROOT
BRANCH  11  13
ATOM     13  C   UNL     1       2.237   5.647   0.011  0.00  0.00    +0.454 C 
ATOM     14  F   UNL     1       2.198   6.120  -1.305  0.00  0.00    -0.163 F 
ATOM     15  F   UNL     1       1.076   6.042   0.683  0.00  0.00    -0.163 F 
ATOM     16  F   UNL     1       3.356   6.176   0.663  0.00  0.00    -0.163 F 
ENDBRANCH  11  13
BRANCH   1  17
ATOM     17  O   UNL     1       4.666   4.338  -0.018  0.00  0.00    -0.445 OA
BRANCH  17  23
ATOM     18  C   UNL     1       6.327   5.494  -1.277  0.00  0.00    +0.163 A 
ATOM     19  C   UNL     1       6.849   5.866  -2.506  0.00  0.00    +0.049 A 
ATOM     20  C   UNL     1       6.231   5.455  -3.672  0.00  0.00    +0.004 A 
ATOM     21  C   UNL     1       5.093   4.672  -3.616  0.00  0.00    +0.004 A 
ATOM     22  C   UNL     1       4.570   4.293  -2.394  0.00  0.00    +0.050 A 
ATOM     23  C   UNL     1       5.181   4.706  -1.221  0.00  0.00    +0.170 A 
BRANCH  18  24
ATOM     24  O   UNL     1       6.934   5.898  -0.129  0.00  0.00    -0.489 OA
BRANCH  24  26
ATOM     25  C   UNL     1       8.643   7.058   1.125  0.00  0.00    +0.048 C 
ATOM     26  C   UNL     1       8.105   6.705  -0.263  0.00  0.00    +0.226 C 
ENDBRANCH  24  26
ENDBRANCH  18  24
ENDBRANCH  17  23
ENDBRANCH   1  17
BRANCH   8  27
ATOM     27  C   UNL     1      -1.330   2.119   0.020  0.00  0.00    -0.035 C 
BRANCH  27  28
ATOM     28  N   UNL     1      -1.750   2.351   1.408  0.00  0.00    +0.383 N 
ATOM     29  C   UNL     1      -0.669   3.005   2.189  0.00  0.00    -0.078 C 
ATOM     30  C   UNL     1      -1.426   3.631   3.387  0.00  0.00    -0.020 C 
ATOM     31  C   UNL     1      -2.748   4.115   2.747  0.00  0.00    -0.020 C 
ATOM     32  C   UNL     1      -2.904   3.275   1.465  0.00  0.00    -0.078 C 
ATOM     33  H   UNL     1      -2.006   1.361   1.813  0.00  0.00    -0.081 HD
ENDBRANCH  27  28
ENDBRANCH   8  27
TORSDOF 7
