REMARK  Name = ZINC03533780
REMARK  9 active torsions:
REMARK  status: ('A' for Active; 'I' for Inactive)
REMARK    1  A    between atoms: C_1  and  C_2
REMARK    2  A    between atoms: C_2  and  C_3
REMARK    3  A    between atoms: C_3  and  C_4
REMARK    4  A    between atoms: C_4  and  C_24
REMARK    5  A    between atoms: N_7  and  C_11
REMARK    6  A    between atoms: C_11  and  C_12
REMARK    7  A    between atoms: N_14  and  C_15
REMARK    8  A    between atoms: C_16  and  C_23
REMARK    9  A    between atoms: C_18  and  C_22
REMARK                            x       y       z     vdW  Elec       q    Type
REMARK                         _______ _______ _______ _____ _____    ______ ____
ROOT
ATOM      1  C   UNL     1      -1.492   4.954   5.546  0.00  0.00    +0.138 C 
ATOM      2  C   UNL     1      -0.252   5.823   5.600  0.00  0.00    +0.251 C 
ATOM      3  O   UNL     1       0.409   6.095   6.580  0.00  0.00    -0.272 OA
ATOM      4  N   UNL     1      -0.037   6.231   4.334  0.00  0.00    -0.215 N 
ATOM      5  C   UNL     1      -0.960   5.746   3.496  0.00  0.00    +0.310 C 
ATOM      6  O   UNL     1      -0.976   5.976   2.303  0.00  0.00    -0.252 OA
ATOM      7  N   UNL     1      -1.868   4.975   4.121  0.00  0.00    -0.281 N 
ATOM      8  H   UNL     1      -2.622   4.522   3.714  0.00  0.00    +0.152 HD
ENDROOT
BRANCH   1   9
ATOM      9  C   UNL     1      -1.175   3.549   5.989  0.00  0.00    -0.015 A 
ATOM     10  C   UNL     1      -0.670   2.635   5.083  0.00  0.00    +0.006 A 
ATOM     11  C   UNL     1      -0.378   1.347   5.490  0.00  0.00    +0.000 A 
ATOM     12  C   UNL     1      -0.591   0.972   6.803  0.00  0.00    +0.000 A 
ATOM     13  C   UNL     1      -1.101   1.884   7.708  0.00  0.00    +0.000 A 
ATOM     14  C   UNL     1      -1.389   3.173   7.302  0.00  0.00    +0.006 A 
ENDBRANCH   1   9
BRANCH   1  15
ATOM     15  C   UNL     1      -2.609   5.548   6.406  0.00  0.00    +0.040 C 
BRANCH  15  17
ATOM     16  C   UNL     1      -4.114   7.518   6.718  0.00  0.00    +0.004 C 
ATOM     17  C   UNL     1      -2.997   6.923   5.858  0.00  0.00    -0.000 C 
ENDBRANCH  15  17
ENDBRANCH   1  15
BRANCH   4  18
ATOM     18  C   UNL     1       1.069   7.100   3.926  0.00  0.00    +0.214 C 
BRANCH  18  19
ATOM     19  C   UNL     1       0.637   8.541   4.018  0.00  0.00    +0.235 C 
ATOM     20  O   UNL     1      -0.485   8.815   4.387  0.00  0.00    -0.274 OA
ATOM     21  N   UNL     1       1.497   9.525   3.689  0.00  0.00    -0.283 N 
ATOM     22  H   UNL     1       2.416   9.311   3.464  0.00  0.00    +0.155 HD
BRANCH  21  23
ATOM     23  C   UNL     1       1.065  10.856   3.672  0.00  0.00    +0.055 A 
ATOM     24  C   UNL     1       1.233  11.656   4.795  0.00  0.00    -0.028 A 
ATOM     25  C   UNL     1       0.805  12.970   4.775  0.00  0.00    +0.008 A 
ATOM     26  C   UNL     1       0.210  13.489   3.639  0.00  0.00    -0.049 A 
ATOM     27  C   UNL     1       0.041  12.695   2.520  0.00  0.00    +0.025 A 
ATOM     28  C   UNL     1       0.471  11.382   2.531  0.00  0.00    +0.063 A 
ATOM     29 CL   UNL     1       0.265  10.387   1.123  0.00  0.00    -0.082 Cl
ATOM     30  C   UNL     1      -0.254  14.922   3.622  0.00  0.00    +0.044 C 
ATOM     31  C   UNL     1       1.881  11.093   6.032  0.00  0.00    +0.046 C 
ENDBRANCH  21  23
ENDBRANCH  18  19
ENDBRANCH   4  18
TORSDOF 6
