REMARK  Name = ZINC02181026
REMARK  7 active torsions:
REMARK  status: ('A' for Active; 'I' for Inactive)
REMARK    1  A    between atoms: C_1  and  C_2
REMARK    2  A    between atoms: C_2  and  O_3
REMARK    3  A    between atoms: O_3  and  C_4
REMARK    4  A    between atoms: N_16  and  N_23
REMARK    5  A    between atoms: C_17  and  S_19
REMARK    6  A    between atoms: S_19  and  C_20
REMARK    7  A    between atoms: C_20  and  C_21
REMARK                            x       y       z     vdW  Elec       q    Type
REMARK                         _______ _______ _______ _____ _____    ______ ____
ROOT
ATOM      1  C   UNL     1       6.199   0.177   1.000  0.00  0.00    +0.403 C 
ATOM      2  O   UNL     1       6.329  -1.020   1.169  0.00  0.00    -0.226 OA
ATOM      3  N   UNL     1       5.231   0.642   0.186  0.00  0.00    -0.262 N 
ATOM      4  C   UNL     1       4.316  -0.273  -0.513  0.00  0.00    +0.116 C 
ATOM      5  C   UNL     1       2.889  -0.051  -0.012  0.00  0.00    +0.056 C 
ATOM      6  C   UNL     1       2.581   1.444  -0.013  0.00  0.00    -0.020 A 
ATOM      7  C   UNL     1       3.573   2.357  -0.020  0.00  0.00    +0.013 A 
ATOM      8  S   UNL     1       2.756   3.929  -0.005  0.00  0.00    -0.072 S 
ATOM      9  C   UNL     1       1.076   3.356   0.009  0.00  0.00    +0.117 A 
ATOM     10  C   UNL     1       1.209   1.957   0.001  0.00  0.00    +0.077 A 
ATOM     11  C   UNL     1      -0.015   1.215   0.009  0.00  0.00    +0.280 A 
ATOM     12  O   UNL     1       0.002  -0.004   0.002  0.00  0.00    -0.265 OA
ATOM     13  N   UNL     1      -1.184   1.881   0.018  0.00  0.00    -0.209 N 
ATOM     14  C   UNL     1      -1.221   3.245   0.031  0.00  0.00    +0.191 A 
ATOM     15  N   UNL     1      -0.110   3.953   0.024  0.00  0.00    -0.215 NA
ATOM     16  C   UNL     1       5.048   2.089  -0.040  0.00  0.00    +0.153 C 
ENDROOT
BRANCH  13  17
ATOM     17  N   UNL     1      -2.355   1.179   0.019  0.00  0.00    -0.293 N 
ATOM     18  H   UNL     1      -3.150   1.800   0.026  0.00  0.00    +0.163 HD
ATOM     19  H   UNL     1      -2.398   0.546  -0.766  0.00  0.00    +0.163 HD
ENDBRANCH  13  17
BRANCH   1  20
ATOM     20  O   UNL     1       7.022   1.038   1.628  0.00  0.00    -0.451 OA
BRANCH  20  22
ATOM     21  C   UNL     1       8.873   1.590   3.111  0.00  0.00    +0.048 C 
ATOM     22  C   UNL     1       8.041   0.466   2.490  0.00  0.00    +0.230 C 
ENDBRANCH  20  22
ENDBRANCH   1  20
BRANCH  14  23
ATOM     23  S   UNL     1      -2.777   4.072   0.051  0.00  0.00    -0.071 S 
BRANCH  23  24
ATOM     24  C   UNL     1      -2.219   5.794   0.054  0.00  0.00    +0.195 C 
BRANCH  24  25
ATOM     25  C   UNL     1      -3.388   6.689   0.071  0.00  0.00    +0.074 C 
ATOM     26  N   UNL     1      -4.289   7.379   0.084  0.00  0.00    -0.196 NA
ENDBRANCH  24  25
ENDBRANCH  23  24
ENDBRANCH  14  23
TORSDOF 6
