REMARK  Name = ZINC32109818
REMARK  6 active torsions:
REMARK  status: ('A' for Active; 'I' for Inactive)
REMARK    1  A    between atoms: C_1  and  C_2
REMARK    2  A    between atoms: C_2  and  C_3
REMARK    3  A    between atoms: C_3  and  N_4
REMARK    4  A    between atoms: C_8  and  C_9
REMARK    5  A    between atoms: N_13  and  C_14
REMARK    6  A    between atoms: N_23  and  C_26
REMARK                            x       y       z     vdW  Elec       q    Type
REMARK                         _______ _______ _______ _____ _____    ______ ____
ROOT
ATOM      1  N   UNL     1       2.337   1.066   1.723  0.00  0.00    -0.249 N 
ATOM      2  C   UNL     1       2.397  -0.201   1.264  0.00  0.00    +0.257 C 
ATOM      3  O   UNL     1       3.445  -0.820   1.271  0.00  0.00    -0.269 OA
ATOM      4  C   UNL     1       1.159  -0.817   0.755  0.00  0.00    +0.102 C 
ATOM      5  C   UNL     1       1.143  -2.118   0.266  0.00  0.00    +0.044 C 
ATOM      6  C   UNL     1      -0.062   0.007   0.786  0.00  0.00    +0.262 C 
ATOM      7  O   UNL     1      -1.123  -0.432   0.383  0.00  0.00    -0.269 OA
ATOM      8  N   UNL     1       0.028   1.262   1.274  0.00  0.00    -0.217 N 
ATOM      9  C   UNL     1       1.189   1.758   1.722  0.00  0.00    +0.153 C 
ATOM     10  S   UNL     1       1.208   3.361   2.323  0.00  0.00    -0.017 S 
ENDROOT
BRANCH   8  11
ATOM     11  C   UNL     1      -1.119   2.066   1.308  0.00  0.00    +0.043 A 
ATOM     12  C   UNL     1      -1.546   2.717   0.159  0.00  0.00    +0.024 A 
ATOM     13  C   UNL     1      -2.680   3.505   0.195  0.00  0.00    +0.002 A 
ATOM     14  C   UNL     1      -3.383   3.655   1.376  0.00  0.00    +0.000 A 
ATOM     15  C   UNL     1      -2.957   3.012   2.524  0.00  0.00    +0.002 A 
ATOM     16  C   UNL     1      -1.827   2.218   2.493  0.00  0.00    +0.024 A 
ENDBRANCH   8  11
BRANCH   5  17
ATOM     17  C   UNL     1       2.343  -2.838   0.147  0.00  0.00    +0.047 A 
ATOM     18  C   UNL     1       2.692  -3.981   0.858  0.00  0.00    +0.027 A 
ATOM     19  C   UNL     1       3.962  -4.359   0.426  0.00  0.00    +0.020 A 
ATOM     20  C   UNL     1       4.368  -3.470  -0.518  0.00  0.00    +0.092 A 
ATOM     21  N   UNL     1       3.394  -2.544  -0.702  0.00  0.00    -0.316 N 
BRANCH  21  22
ATOM     22  C   UNL     1       3.445  -1.469  -1.598  0.00  0.00    +0.047 A 
ATOM     23  C   UNL     1       2.464  -1.327  -2.571  0.00  0.00    +0.027 A 
ATOM     24  C   UNL     1       2.514  -0.264  -3.450  0.00  0.00    +0.017 A 
ATOM     25  C   UNL     1       3.547   0.654  -3.370  0.00  0.00    +0.018 A 
ATOM     26  C   UNL     1       4.529   0.511  -2.406  0.00  0.00    +0.017 A 
ATOM     27  C   UNL     1       4.480  -0.547  -1.520  0.00  0.00    +0.027 A 
ATOM     28 BR   UNL     1       3.617   2.104  -4.582  0.00  0.00    -0.050 Br
ENDBRANCH  21  22
ENDBRANCH   5  17
BRANCH   1  29
ATOM     29  C   UNL     1       3.555   1.700   2.235  0.00  0.00    +0.115 C 
BRANCH  29  31
ATOM     30  C   UNL     1       5.572   3.037   1.615  0.00  0.00    +0.005 C 
ATOM     31  C   UNL     1       4.268   2.429   1.095  0.00  0.00    +0.016 C 
ENDBRANCH  29  31
ENDBRANCH   1  29
TORSDOF 5
