REMARK  Name = ZINC67332039
REMARK  8 active torsions:
REMARK  status: ('A' for Active; 'I' for Inactive)
REMARK    1  A    between atoms: C_1  and  N_2
REMARK    2  A    between atoms: N_2  and  S_3
REMARK    3  A    between atoms: S_3  and  C_6
REMARK    4  A    between atoms: C_9  and  C_11
REMARK    5  A    between atoms: N_13  and  C_14
REMARK    6  A    between atoms: C_14  and  C_15
REMARK    7  A    between atoms: N_20  and  C_21
REMARK    8  A    between atoms: C_21  and  C_22
REMARK                            x       y       z     vdW  Elec       q    Type
REMARK                         _______ _______ _______ _____ _____    ______ ____
ROOT
ATOM      1  C   UNL     1       4.984   1.226  -2.101  0.00  0.00    +0.279 C 
ATOM      2  O   UNL     1       6.125   1.015  -1.735  0.00  0.00    -0.267 OA
ATOM      3  N   UNL     1       4.707   2.303  -2.861  0.00  0.00    -0.310 N 
ATOM      4  H   UNL     1       3.797   2.471  -3.152  0.00  0.00    +0.149 HD
ENDROOT
BRANCH   1   8
ATOM      5  C   UNL     1       1.919  -0.597  -1.518  0.00  0.00    +0.258 A 
ATOM      6  C   UNL     1       2.773  -1.387  -0.831  0.00  0.00    +0.072 A 
ATOM      7  C   UNL     1       4.050  -0.817  -0.950  0.00  0.00    +0.057 A 
ATOM      8  C   UNL     1       3.909   0.306  -1.714  0.00  0.00    +0.192 A 
ATOM      9  O   UNL     1       2.608   0.420  -2.053  0.00  0.00    -0.432 OA
BRANCH   5  10
ATOM     10  S   UNL     1       0.186  -0.864  -1.689  0.00  0.00    +0.091 S 
ATOM     11  O   UNL     1      -0.033  -2.253  -1.484  0.00  0.00    -0.150 OA
ATOM     12  O   UNL     1      -0.212  -0.197  -2.879  0.00  0.00    -0.150 OA
BRANCH  10  14
ATOM     13  C   UNL     1      -0.490   1.383  -0.344  0.00  0.00    +0.128 C 
ATOM     14  N   UNL     1      -0.557  -0.078  -0.435  0.00  0.00    -0.190 NA
ATOM     15  H   UNL     1      -1.036  -0.584   0.239  0.00  0.00    +0.148 HD
ENDBRANCH  10  14
ENDBRANCH   5  10
ENDBRANCH   1   8
BRANCH   3  16
ATOM     16  C   UNL     1       5.781   3.222  -3.248  0.00  0.00    +0.089 C 
BRANCH  16  17
ATOM     17  C   UNL     1       5.203   4.352  -4.103  0.00  0.00    -0.051 C 
ATOM     18  C   UNL     1       6.346   5.229  -4.655  0.00  0.00    -0.016 C 
ATOM     19  C   UNL     1       6.564   4.661  -6.082  0.00  0.00    -0.020 C 
ATOM     20  C   UNL     1       5.117   4.295  -6.498  0.00  0.00    -0.078 C 
ATOM     21  N   UNL     1       4.483   3.788  -5.259  0.00  0.00    +0.383 N 
ATOM     22  H   UNL     1       4.539   2.780  -5.236  0.00  0.00    -0.081 HD
BRANCH  21  23
ATOM     23  C   UNL     1       3.075   4.203  -5.215  0.00  0.00    -0.075 C 
BRANCH  23  24
ATOM     24  C   UNL     1       2.301   3.505  -6.335  0.00  0.00    -0.028 C 
ATOM     25  C   UNL     1       0.869   4.042  -6.378  0.00  0.00    +0.002 C 
ATOM     26  C   UNL     1       0.096   3.343  -7.498  0.00  0.00    +0.000 C 
ATOM     27  C   UNL     1       0.068   1.836  -7.236  0.00  0.00    +0.000 C 
ATOM     28  C   UNL     1       1.500   1.299  -7.192  0.00  0.00    +0.000 C 
ATOM     29  C   UNL     1       2.273   1.998  -6.072  0.00  0.00    +0.002 C 
ENDBRANCH  23  24
ENDBRANCH  21  23
ENDBRANCH  16  17
ENDBRANCH   3  16
TORSDOF 7
