REMARK  Name = ZINC03431788
REMARK  7 active torsions:
REMARK  status: ('A' for Active; 'I' for Inactive)
REMARK    1  A    between atoms: C_1  and  C_2
REMARK    2  A    between atoms: C_12  and  C_14
REMARK    3  A    between atoms: C_14  and  C_16
REMARK    4  A    between atoms: C_14  and  S_17
REMARK    5  A    between atoms: S_17  and  C_18
REMARK    6  A    between atoms: C_21  and  C_24
REMARK    7  A    between atoms: N_22  and  N_23
REMARK                            x       y       z     vdW  Elec       q    Type
REMARK                         _______ _______ _______ _____ _____    ______ ____
ROOT
ATOM      1  S   UNL     1       1.786   1.457  -5.914  0.00  0.00    -0.072 S 
ENDROOT
BRANCH   1   2
ATOM      2  C   UNL     1       0.978   1.046  -4.404  0.00  0.00    +0.209 A 
ATOM      3  N   UNL     1       0.807  -0.160  -3.912  0.00  0.00    -0.121 NA
ATOM      4  N   UNL     1       0.182  -0.090  -2.792  0.00  0.00    -0.132 NA
ATOM      5  C   UNL     1      -0.091   1.152  -2.508  0.00  0.00    +0.154 A 
ATOM      6  N   UNL     1       0.409   1.921  -3.522  0.00  0.00    -0.228 N 
BRANCH   5   7
ATOM      7  C   UNL     1      -0.818   1.650  -1.285  0.00  0.00    +0.059 C 
ATOM      8  C   UNL     1      -0.048   1.234  -0.030  0.00  0.00    +0.011 C 
ATOM      9  C   UNL     1      -0.786   1.739   1.211  0.00  0.00    +0.001 C 
ATOM     10  C   UNL     1      -2.191   1.135   1.251  0.00  0.00    +0.000 C 
ATOM     11  C   UNL     1      -2.961   1.551  -0.004  0.00  0.00    +0.001 C 
ATOM     12  C   UNL     1      -2.223   1.046  -1.246  0.00  0.00    +0.011 C 
ENDBRANCH   5   7
BRANCH   6  13
ATOM     13  N   UNL     1       0.353   3.281  -3.631  0.00  0.00    -0.295 N 
ATOM     14  H   UNL     1       1.158   3.712  -3.202  0.00  0.00    +0.163 HD
ATOM     15  H   UNL     1       0.263   3.563  -4.596  0.00  0.00    +0.163 HD
ENDBRANCH   6  13
ENDBRANCH   1   2
BRANCH   1  16
ATOM     16  C   UNL     1       2.248  -0.197  -6.484  0.00  0.00    +0.137 C 
ATOM     17  C   UNL     1       0.984  -1.005  -6.784  0.00  0.00    +0.029 C 
BRANCH  16  28
ATOM     18  C   UNL     1       4.079  -0.834 -10.538  0.00  0.00    +0.029 C 
ATOM     19  C   UNL     1       4.830  -1.058  -9.224  0.00  0.00    +0.083 C 
ATOM     20  C   UNL     1       5.511  -2.437  -9.228  0.00  0.00    +0.059 C 
ATOM     21  C   UNL     1       4.883  -3.175  -8.067  0.00  0.00    -0.024 A 
ATOM     22  C   UNL     1       5.096  -4.451  -7.583  0.00  0.00    +0.005 A 
ATOM     23  C   UNL     1       4.397  -4.901  -6.479  0.00  0.00    +0.000 A 
ATOM     24  C   UNL     1       3.471  -4.075  -5.868  0.00  0.00    +0.002 A 
ATOM     25  C   UNL     1       3.251  -2.803  -6.350  0.00  0.00    +0.024 A 
ATOM     26  C   UNL     1       3.960  -2.338  -7.460  0.00  0.00    +0.040 A 
ATOM     27  N   UNL     1       3.890  -1.097  -8.101  0.00  0.00    -0.267 N 
ATOM     28  C   UNL     1       3.080  -0.084  -7.735  0.00  0.00    +0.233 C 
ATOM     29  O   UNL     1       3.021   0.920  -8.414  0.00  0.00    -0.274 OA
ENDBRANCH  16  28
ENDBRANCH   1  16
TORSDOF 5
