REMARK  Name = ZINC49789296
REMARK  7 active torsions:
REMARK  status: ('A' for Active; 'I' for Inactive)
REMARK    1  A    between atoms: C_1  and  C_2
REMARK    2  A    between atoms: C_2  and  C_4
REMARK    3  A    between atoms: C_2  and  N_11
REMARK    4  A    between atoms: N_14  and  N_15
REMARK    5  A    between atoms: N_15  and  C_16
REMARK    6  A    between atoms: C_16  and  N_18
REMARK    7  A    between atoms: N_18  and  C_19
REMARK                            x       y       z     vdW  Elec       q    Type
REMARK                         _______ _______ _______ _____ _____    ______ ____
ROOT
ATOM      1  N   UNL     1       0.711  -0.489   1.189  0.00  0.00    -0.292 N 
ATOM      2  C   UNL     1       2.054  -0.600   1.174  0.00  0.00    +0.316 C 
ATOM      3  O   UNL     1       2.677  -0.297   0.175  0.00  0.00    -0.251 OA
ATOM      4  N   UNL     1       2.706  -1.046   2.266  0.00  0.00    -0.219 N 
ATOM      5  H   UNL     1       0.213  -0.731   1.986  0.00  0.00    +0.151 HD
ATOM      6  H   UNL     1       3.672  -1.126   2.255  0.00  0.00    +0.174 HD
ENDROOT
BRANCH   1   8
ATOM      7  C   UNL     1      -0.019   1.526   0.010  0.00  0.00    +0.033 C 
ATOM      8  C   UNL     1       0.002  -0.004   0.002  0.00  0.00    +0.103 C 
BRANCH   8   9
ATOM      9  C   UNL     1      -1.412  -0.526   0.013  0.00  0.00    -0.013 A 
ATOM     10  C   UNL     1      -2.015  -0.864   1.210  0.00  0.00    +0.006 A 
ATOM     11  C   UNL     1      -3.312  -1.342   1.220  0.00  0.00    +0.000 A 
ATOM     12  C   UNL     1      -4.006  -1.482   0.033  0.00  0.00    +0.001 A 
ATOM     13  C   UNL     1      -3.404  -1.144  -1.165  0.00  0.00    +0.015 A 
ATOM     14  C   UNL     1      -2.108  -0.661  -1.175  0.00  0.00    +0.023 A 
ATOM     15 BR   UNL     1      -1.286  -0.192  -2.812  0.00  0.00    -0.050 Br
ENDBRANCH   8   9
ENDBRANCH   1   8
BRANCH   4  16
ATOM     16  N   UNL     1       1.987  -1.396   3.416  0.00  0.00    -0.245 N 
ATOM     17  H   UNL     1       1.020  -1.316   3.427  0.00  0.00    +0.172 HD
BRANCH  16  18
ATOM     18  C   UNL     1       2.639  -1.842   4.508  0.00  0.00    +0.147 C 
ATOM     19  S   UNL     1       1.761  -2.269   5.915  0.00  0.00    -0.017 S 
BRANCH  18  20
ATOM     20  N   UNL     1       3.982  -1.952   4.493  0.00  0.00    -0.323 N 
ATOM     21  H   UNL     1       4.480  -1.711   3.696  0.00  0.00    +0.148 HD
BRANCH  20  22
ATOM     22  C   UNL     1       4.691  -2.438   5.680  0.00  0.00    +0.072 C 
ATOM     23  C   UNL     1       5.016  -1.259   6.620  0.00  0.00    +0.022 C 
ATOM     24  C   UNL     1       6.412  -1.605   7.195  0.00  0.00    +0.002 C 
ATOM     25  C   UNL     1       7.135  -2.236   5.979  0.00  0.00    +0.002 C 
ATOM     26  C   UNL     1       6.038  -3.059   5.272  0.00  0.00    +0.022 C 
ENDBRANCH  20  22
ENDBRANCH  18  20
ENDBRANCH  16  18
ENDBRANCH   4  16
TORSDOF 6
