REMARK  Name = ZINC22357198
REMARK  5 active torsions:
REMARK  status: ('A' for Active; 'I' for Inactive)
REMARK    1  A    between atoms: C_4  and  C_11
REMARK    2  A    between atoms: N_14  and  C_17
REMARK    3  A    between atoms: C_20  and  S_26
REMARK    4  A    between atoms: C_22  and  N_23
REMARK    5  A    between atoms: S_26  and  N_29
REMARK                            x       y       z     vdW  Elec       q    Type
REMARK                         _______ _______ _______ _____ _____    ______ ____
ROOT
ATOM      1  C   UNL     1      -2.381   3.873   0.332  0.00  0.00    +0.061 A 
ATOM      2  C   UNL     1      -2.482   5.164   0.835  0.00  0.00    +0.027 A 
ATOM      3  C   UNL     1      -3.677   5.849   0.740  0.00  0.00    +0.030 A 
ATOM      4  C   UNL     1      -4.776   5.247   0.155  0.00  0.00    +0.108 A 
ATOM      5  C   UNL     1      -4.681   3.960  -0.342  0.00  0.00    +0.063 A 
ATOM      6  C   UNL     1      -3.487   3.271  -0.255  0.00  0.00    +0.149 A 
ENDROOT
BRANCH   1  10
ATOM      7  C   UNL     1       1.414   2.326   0.903  0.00  0.00    -0.039 C 
ATOM      8  C   UNL     1       1.219   3.215  -0.048  0.00  0.00    -0.004 C 
ATOM      9  C   UNL     1      -0.095   3.911  -0.261  0.00  0.00    +0.132 C 
ATOM     10  N   UNL     1      -1.172   3.179   0.421  0.00  0.00    -0.324 N 
ATOM     11  C   UNL     1      -0.807   2.934   1.826  0.00  0.00    +0.110 C 
ATOM     12  C   UNL     1       0.333   1.913   1.861  0.00  0.00    +0.054 C 
BRANCH   7  16
ATOM     13  C   UNL     1       3.730  -0.943  -1.538  0.00  0.00    +0.020 A 
ATOM     14  C   UNL     1       2.883  -0.011  -0.965  0.00  0.00    +0.013 A 
ATOM     15  C   UNL     1       3.331   0.677   0.162  0.00  0.00    +0.026 A 
ATOM     16  C   UNL     1       2.749   1.710   1.033  0.00  0.00    +0.005 A 
ATOM     17  C   UNL     1       3.684   1.990   1.977  0.00  0.00    +0.093 A 
ATOM     18  N   UNL     1       4.791   1.216   1.773  0.00  0.00    -0.345 N 
ATOM     19  H   UNL     1       5.654   1.302   2.449  0.00  0.00    +0.167 HD
ATOM     20  C   UNL     1       4.612   0.407   0.675  0.00  0.00    +0.139 A 
ATOM     21  N   UNL     1       5.382  -0.498   0.084  0.00  0.00    -0.237 NA
ATOM     22  C   UNL     1       4.980  -1.159  -0.980  0.00  0.00    +0.113 A 
ENDBRANCH   7  16
ENDBRANCH   1  10
BRANCH   6  23
ATOM     23  N   UNL     1      -3.386   1.893  -0.786  0.00  0.00    +0.058 N 
ATOM     24  O   UNL     1      -4.325   1.402  -1.387  0.00  0.00    -0.126 OA
ATOM     25  O   UNL     1      -2.364   1.251  -0.623  0.00  0.00    -0.126 OA
ENDBRANCH   6  23
BRANCH   4  26
ATOM     26  S   UNL     1      -6.302   6.121   0.043  0.00  0.00    +0.061 S 
ATOM     27  O   UNL     1      -5.981   7.505   0.088  0.00  0.00    -0.153 OA
ATOM     28  O   UNL     1      -7.024   5.542  -1.035  0.00  0.00    -0.153 OA
BRANCH  26  29
ATOM     29  N   UNL     1      -7.159   5.789   1.420  0.00  0.00    -0.177 NA
ATOM     30  C   UNL     1      -8.108   4.679   1.592  0.00  0.00    +0.109 C 
ATOM     31  C   UNL     1      -8.679   4.782   3.022  0.00  0.00    +0.018 C 
ATOM     32  C   UNL     1      -8.453   6.275   3.378  0.00  0.00    +0.018 C 
ATOM     33  C   UNL     1      -7.102   6.561   2.675  0.00  0.00    +0.109 C 
ENDBRANCH  26  29
ENDBRANCH   4  26
TORSDOF 5
