REMARK  Name = ZINC29474381
REMARK  4 active torsions:
REMARK  status: ('A' for Active; 'I' for Inactive)
REMARK    1  A    between atoms: C_1  and  C_2
REMARK    2  A    between atoms: C_3  and  C_21
REMARK    3  A    between atoms: C_8  and  C_10
REMARK    4  A    between atoms: C_21  and  C_22
REMARK                            x       y       z     vdW  Elec       q    Type
REMARK                         _______ _______ _______ _____ _____    ______ ____
ROOT
ATOM      1  C   UNL     1       1.837   6.491  -0.478  0.00  0.00    +0.066 C 
ATOM      2  C   UNL     1       3.137   6.215  -1.188  0.00  0.00    +0.051 A 
ATOM      3  C   UNL     1       4.020   5.315  -0.692  0.00  0.00    +0.018 A 
ATOM      4  S   UNL     1       5.322   5.419  -1.912  0.00  0.00    -0.056 S 
ATOM      5  C   UNL     1       4.578   6.609  -2.934  0.00  0.00    +0.165 A 
ATOM      6  N   UNL     1       3.442   6.844  -2.306  0.00  0.00    -0.230 NA
ATOM      7  N   UNL     1       5.058   7.174  -4.110  0.00  0.00    -0.262 N 
ATOM      8  C   UNL     1       4.325   8.098  -4.763  0.00  0.00    +0.260 C 
ATOM      9  O   UNL     1       3.246   8.436  -4.324  0.00  0.00    -0.271 OA
ATOM     10  H   UNL     1       6.037   6.867  -4.508  0.00  0.00    +0.157 HD
ENDROOT
BRANCH   8  11
ATOM     11  C   UNL     1       4.846   8.710  -6.037  0.00  0.00    +0.263 C 
ATOM     12  C   UNL     1       6.085   9.593  -5.755  0.00  0.00    +0.093 C 
ATOM     13  C   UNL     1       5.886  10.732  -6.741  0.00  0.00    -0.000 A 
ATOM     14  C   UNL     1       6.740  11.702  -7.216  0.00  0.00    +0.027 A 
ATOM     15  C   UNL     1       6.292  12.622  -8.148  0.00  0.00    +0.041 A 
ATOM     16  C   UNL     1       4.985  12.562  -8.599  0.00  0.00    +0.023 A 
ATOM     17  C   UNL     1       4.128  11.593  -8.122  0.00  0.00    +0.047 A 
ATOM     18  C   UNL     1       4.570  10.666  -7.180  0.00  0.00    +0.125 A 
ATOM     19  O   UNL     1       3.899   9.647  -6.577  0.00  0.00    -0.479 OA
ATOM     20 CL   UNL     1       7.365  13.848  -8.749  0.00  0.00    -0.084 Cl
ENDBRANCH   8  11
BRANCH   3  21
ATOM     21  C   UNL     1       3.932   4.465   0.550  0.00  0.00    +0.079 C 
BRANCH  21  22
ATOM     22  C   UNL     1       3.274   3.151   0.213  0.00  0.00    -0.039 A 
ATOM     23  C   UNL     1       4.044   2.076  -0.189  0.00  0.00    +0.008 A 
ATOM     24  C   UNL     1       3.445   0.870  -0.498  0.00  0.00    +0.050 A 
ATOM     25  C   UNL     1       2.069   0.735  -0.406  0.00  0.00    +0.166 A 
ATOM     26  C   UNL     1       1.293   1.818  -0.001  0.00  0.00    +0.166 A 
ATOM     27  C   UNL     1       1.900   3.024   0.308  0.00  0.00    +0.053 A 
ATOM     28  O   UNL     1      -0.018   1.436   0.010  0.00  0.00    -0.453 OA
ATOM     29  C   UNL     1       0.002  -0.004   0.002  0.00  0.00    +0.466 C 
ATOM     30  O   UNL     1       1.245  -0.326  -0.649  0.00  0.00    -0.453 OA
ENDBRANCH  21  22
ENDBRANCH   3  21
TORSDOF 3
