REMARK  Name = ZINC39539143
REMARK  4 active torsions:
REMARK  status: ('A' for Active; 'I' for Inactive)
REMARK    1  A    between atoms: C_1  and  C_2
REMARK    2  A    between atoms: C_5  and  C_8
REMARK    3  A    between atoms: C_14  and  C_16
REMARK    4  A    between atoms: C_21  and  C_22
REMARK                            x       y       z     vdW  Elec       q    Type
REMARK                         _______ _______ _______ _____ _____    ______ ____
ROOT
ATOM      1  C   UNL     1      -0.454  -4.303   0.004  0.00  0.00    +0.080 A 
ATOM      2  C   UNL     1      -0.218  -4.978   1.169  0.00  0.00    +0.076 A 
ATOM      3  S   UNL     1       0.011  -6.639   0.549  0.00  0.00    -0.060 S 
ATOM      4  C   UNL     1      -0.229  -6.266  -1.183  0.00  0.00    +0.165 A 
ATOM      5  N   UNL     1      -0.458  -4.967  -1.143  0.00  0.00    -0.225 NA
ATOM      6  N   UNL     1      -0.189  -7.118  -2.279  0.00  0.00    -0.261 N 
ATOM      7  C   UNL     1       0.059  -8.431  -2.103  0.00  0.00    +0.253 C 
ATOM      8  O   UNL     1       0.248  -8.870  -0.985  0.00  0.00    -0.270 OA
ATOM      9  H   UNL     1      -0.340  -6.768  -3.171  0.00  0.00    +0.157 HD
ENDROOT
BRANCH   1  14
ATOM     10  C   UNL     1      -1.443   1.370   0.081  0.00  0.00    +0.044 C 
ATOM     11  C   UNL     1      -1.184  -0.115   0.060  0.00  0.00    -0.050 A 
ATOM     12  C   UNL     1      -1.190  -0.799  -1.142  0.00  0.00    +0.004 A 
ATOM     13  C   UNL     1      -0.953  -2.159  -1.166  0.00  0.00    +0.010 A 
ATOM     14  C   UNL     1      -0.708  -2.842   0.024  0.00  0.00    +0.001 A 
ATOM     15  C   UNL     1      -0.703  -2.147   1.232  0.00  0.00    +0.010 A 
ATOM     16  C   UNL     1      -0.935  -0.787   1.244  0.00  0.00    +0.004 A 
ENDBRANCH   1  14
BRANCH   7  17
ATOM     17  C   UNL     1       0.101  -9.334  -3.265  0.00  0.00    +0.082 A 
ATOM     18  C   UNL     1       0.015  -8.975  -4.595  0.00  0.00    +0.118 A 
ATOM     19  N   UNL     1       0.095 -10.095  -5.330  0.00  0.00    -0.283 N 
ATOM     20  H   UNL     1       0.062 -10.130  -6.299  0.00  0.00    +0.188 HD
ATOM     21  N   UNL     1       0.234 -11.202  -4.488  0.00  0.00    -0.173 NA
ATOM     22  C   UNL     1       0.247 -10.793  -3.240  0.00  0.00    +0.105 A 
BRANCH  22  23
ATOM     23  C   UNL     1       0.382 -11.645  -2.034  0.00  0.00    +0.007 A 
ATOM     24  C   UNL     1      -0.437 -11.425  -0.928  0.00  0.00    +0.014 A 
ATOM     25  C   UNL     1      -0.309 -12.218   0.193  0.00  0.00    +0.050 A 
ATOM     26  C   UNL     1       0.634 -13.237   0.225  0.00  0.00    +0.162 A 
ATOM     27  C   UNL     1       1.453 -13.462  -0.876  0.00  0.00    +0.163 A 
ATOM     28  C   UNL     1       1.325 -12.671  -2.005  0.00  0.00    +0.059 A 
ATOM     29  O   UNL     1       2.377 -14.461  -0.864  0.00  0.00    -0.485 OA
ATOM     30  C   UNL     1       2.729 -14.997   0.416  0.00  0.00    +0.270 C 
ATOM     31  C   UNL     1       1.436 -15.251   1.203  0.00  0.00    +0.270 C 
ATOM     32  O   UNL     1       0.746 -14.005   1.344  0.00  0.00    -0.485 OA
ENDBRANCH  22  23
ENDBRANCH   7  17
TORSDOF 3
