REMARK  Name = ZINC38550597
REMARK  6 active torsions:
REMARK  status: ('A' for Active; 'I' for Inactive)
REMARK    1  A    between atoms: C_1  and  C_2
REMARK    2  A    between atoms: C_4  and  C_16
REMARK    3  A    between atoms: C_5  and  N_7
REMARK    4  A    between atoms: C_8  and  C_10
REMARK    5  A    between atoms: C_16  and  C_18
REMARK    6  A    between atoms: C_16  and  N_23
REMARK                            x       y       z     vdW  Elec       q    Type
REMARK                         _______ _______ _______ _____ _____    ______ ____
ROOT
ATOM      1  C   UNL     1      -0.211   1.550  -0.503  0.00  0.00    +0.051 C 
ATOM      2  C   UNL     1      -0.130   0.052  -0.360  0.00  0.00    -0.011 A 
ATOM      3  C   UNL     1      -1.135  -0.849  -0.252  0.00  0.00    +0.018 A 
ATOM      4  C   UNL     1      -0.825  -2.191  -0.129  0.00  0.00    +0.006 A 
ATOM      5  C   UNL     1       0.486  -2.563  -0.120  0.00  0.00    +0.077 A 
ATOM      6  S   UNL     1       1.316  -0.993  -0.296  0.00  0.00    -0.078 S 
ENDROOT
BRANCH   5   7
ATOM      7  N   UNL     1       1.036  -3.842  -0.007  0.00  0.00    -0.276 N 
ATOM      8  C   UNL     1       2.374  -4.003  -0.019  0.00  0.00    +0.249 C 
ATOM      9  O   UNL     1       3.102  -3.035  -0.127  0.00  0.00    -0.270 OA
ATOM     10  H   UNL     1       0.456  -4.614   0.079  0.00  0.00    +0.156 HD
BRANCH   8  11
ATOM     11  C   UNL     1       2.957  -5.356   0.100  0.00  0.00    +0.037 A 
ATOM     12  C   UNL     1       2.124  -6.470   0.219  0.00  0.00    +0.013 A 
ATOM     13  C   UNL     1       2.675  -7.730   0.329  0.00  0.00    +0.001 A 
ATOM     14  C   UNL     1       4.049  -7.891   0.322  0.00  0.00    +0.000 A 
ATOM     15  C   UNL     1       4.880  -6.791   0.205  0.00  0.00    +0.001 A 
ATOM     16  C   UNL     1       4.343  -5.526   0.088  0.00  0.00    +0.013 A 
ENDBRANCH   8  11
ENDBRANCH   5   7
BRANCH   4  17
ATOM     17  C   UNL     1      -1.917  -3.223  -0.007  0.00  0.00    +0.141 C 
BRANCH  17  18
ATOM     18  N   UNL     1      -3.107  -2.607   0.586  0.00  0.00    -0.319 N 
ATOM     19  C   UNL     1      -4.032  -3.393   1.262  0.00  0.00    +0.097 A 
ATOM     20  C   UNL     1      -3.820  -4.764   1.376  0.00  0.00    +0.041 A 
ATOM     21  C   UNL     1      -4.750  -5.534   2.051  0.00  0.00    +0.005 A 
ATOM     22  C   UNL     1      -5.865  -4.906   2.591  0.00  0.00    +0.018 A 
ATOM     23  C   UNL     1      -6.012  -3.542   2.439  0.00  0.00    +0.084 A 
ATOM     24  N   UNL     1      -5.106  -2.831   1.795  0.00  0.00    -0.350 N 
ATOM     25  H   UNL     1      -3.248  -1.651   0.507  0.00  0.00    +0.148 HD
ATOM     26  H   UNL     1      -5.231  -1.873   1.706  0.00  0.00    +0.166 HD
ENDBRANCH  17  18
BRANCH  17  27
ATOM     27  C   UNL     1      -2.256  -3.759  -1.373  0.00  0.00    +0.014 A 
ATOM     28  C   UNL     1      -1.864  -4.918  -1.958  0.00  0.00    +0.013 A 
ATOM     29  C   UNL     1      -2.305  -5.207  -3.235  0.00  0.00    +0.008 A 
ATOM     30  C   UNL     1      -3.117  -4.324  -3.866  0.00  0.00    +0.045 A 
ATOM     31  S   UNL     1      -3.286  -3.037  -2.641  0.00  0.00    -0.099 S 
ENDBRANCH  17  27
ENDBRANCH   4  17
TORSDOF 5
