REMARK  Name = ZINC13193243
REMARK  8 active torsions:
REMARK  status: ('A' for Active; 'I' for Inactive)
REMARK    1  A    between atoms: C_1  and  C_2
REMARK    2  A    between atoms: C_5  and  C_7
REMARK    3  A    between atoms: C_7  and  C_9
REMARK    4  A    between atoms: C_7  and  N_10
REMARK    5  A    between atoms: N_10  and  C_11
REMARK    6  A    between atoms: C_14  and  S_19
REMARK    7  A    between atoms: C_16  and  C_17
REMARK    8  A    between atoms: S_19  and  N_22
REMARK                            x       y       z     vdW  Elec       q    Type
REMARK                         _______ _______ _______ _____ _____    ______ ____
ROOT
ATOM      1  C   UNL     1       4.884  -1.743  -2.691  0.00  0.00    +0.042 A 
ATOM      2  C   UNL     1       3.995  -2.641  -2.114  0.00  0.00    +0.025 A 
ATOM      3  C   UNL     1       3.524  -2.423  -0.836  0.00  0.00    +0.030 A 
ATOM      4  C   UNL     1       3.924  -1.304  -0.121  0.00  0.00    +0.106 A 
ATOM      5  C   UNL     1       4.805  -0.402  -0.676  0.00  0.00    +0.045 A 
ATOM      6  C   UNL     1       5.295  -0.612  -1.968  0.00  0.00    +0.086 A 
ENDROOT
BRANCH   6   7
ATOM      7  C   UNL     1       6.238   0.349  -2.567  0.00  0.00    +0.388 C 
ATOM      8  O   UNL     1       6.744   0.111  -3.646  0.00  0.00    -0.241 OA
ATOM      9  O   UNL     1       6.540   1.491  -1.919  0.00  0.00    -0.241 OA
ENDBRANCH   6   7
BRANCH   4  10
ATOM     10  S   UNL     1       3.307  -1.038   1.508  0.00  0.00    +0.061 S 
ATOM     11  O   UNL     1       4.256  -0.215   2.172  0.00  0.00    -0.153 OA
ATOM     12  O   UNL     1       2.920  -2.311   2.008  0.00  0.00    -0.153 OA
BRANCH  10  13
ATOM     13  N   UNL     1       1.921  -0.143   1.367  0.00  0.00    -0.177 NA
ATOM     14  C   UNL     1       0.616  -0.802   1.220  0.00  0.00    +0.109 C 
ATOM     15  C   UNL     1      -0.081  -0.243  -0.025  0.00  0.00    +0.017 C 
ATOM     16  C   UNL     1      -0.155   1.282   0.079  0.00  0.00    +0.003 C 
ATOM     17  C   UNL     1       1.260   1.861   0.141  0.00  0.00    +0.017 C 
ATOM     18  C   UNL     1       1.973   1.325   1.387  0.00  0.00    +0.109 C 
ENDBRANCH  10  13
ENDBRANCH   4  10
BRANCH   1  19
ATOM     19  N   UNL     1       5.364  -1.963  -3.975  0.00  0.00    -0.334 N 
ATOM     20  H   UNL     1       6.044  -1.379  -4.345  0.00  0.00    +0.147 HD
BRANCH  19  21
ATOM     21  C   UNL     1       4.845  -3.079  -4.769  0.00  0.00    +0.133 C 
ATOM     22  C   UNL     1       3.562  -2.644  -5.481  0.00  0.00    +0.036 C 
BRANCH  21  27
ATOM     23  C   UNL     1       8.463  -2.801  -8.273  0.00  0.00    +0.086 C 
ATOM     24  C   UNL     1       7.446  -3.368  -7.316  0.00  0.00    +0.102 A 
ATOM     25  C   UNL     1       7.183  -4.674  -7.130  0.00  0.00    +0.045 A 
ATOM     26  C   UNL     1       6.172  -4.752  -6.144  0.00  0.00    +0.047 A 
ATOM     27  C   UNL     1       5.873  -3.489  -5.792  0.00  0.00    +0.125 A 
ATOM     28  O   UNL     1       6.650  -2.655  -6.502  0.00  0.00    -0.463 OA
ENDBRANCH  21  27
ENDBRANCH  19  21
ENDBRANCH   1  19
TORSDOF 6
