REMARK  Name = ZINC67395973
REMARK  11 active torsions:
REMARK  status: ('A' for Active; 'I' for Inactive)
REMARK    1  A    between atoms: C_1  and  C_2
REMARK    2  A    between atoms: C_2  and  N_3
REMARK    3  A    between atoms: C_4  and  C_6
REMARK    4  A    between atoms: C_9  and  N_13
REMARK    5  A    between atoms: C_10  and  C_12
REMARK    6  A    between atoms: C_14  and  C_16
REMARK    7  A    between atoms: N_18  and  C_19
REMARK    8  A    between atoms: C_19  and  C_21
REMARK    9  A    between atoms: C_19  and  C_22
REMARK   10  A    between atoms: C_22  and  C_23
REMARK   11  A    between atoms: C_26  and  O_29
REMARK                            x       y       z     vdW  Elec       q    Type
REMARK                         _______ _______ _______ _____ _____    ______ ____
ROOT
ATOM      1  N   UNL     1      -6.892  -3.792   0.046  0.00  0.00    -0.278 N 
ATOM      2  C   UNL     1      -7.926  -2.934   0.157  0.00  0.00    +0.303 C 
ATOM      3  O   UNL     1      -7.724  -1.737   0.157  0.00  0.00    -0.265 OA
ATOM      4  H   UNL     1      -7.058  -4.745  -0.020  0.00  0.00    +0.155 HD
ENDROOT
BRANCH   1   8
ATOM      5  C   UNL     1      -2.986  -2.348  -0.011  0.00  0.00    +0.037 A 
ATOM      6  C   UNL     1      -4.015  -1.609  -0.603  0.00  0.00    +0.015 A 
ATOM      7  C   UNL     1      -5.305  -2.089  -0.583  0.00  0.00    +0.024 A 
ATOM      8  C   UNL     1      -5.586  -3.309   0.027  0.00  0.00    +0.037 A 
ATOM      9  C   UNL     1      -4.564  -4.046   0.618  0.00  0.00    -0.029 A 
ATOM     10  C   UNL     1      -3.271  -3.574   0.596  0.00  0.00    +0.018 A 
ATOM     11  C   UNL     1      -4.873  -5.365   1.278  0.00  0.00    +0.045 C 
BRANCH   5  13
ATOM     12  N   UNL     1      -1.329  -0.654  -0.616  0.00  0.00    -0.312 N 
ATOM     13  C   UNL     1      -1.602  -1.837  -0.031  0.00  0.00    +0.244 C 
ATOM     14  O   UNL     1      -0.708  -2.482   0.480  0.00  0.00    -0.270 OA
ATOM     15  H   UNL     1      -2.043  -0.138  -1.024  0.00  0.00    +0.149 HD
BRANCH  12  17
ATOM     16  C   UNL     1       0.079   1.204  -1.356  0.00  0.00    +0.024 C 
ATOM     17  C   UNL     1       0.045  -0.146  -0.637  0.00  0.00    +0.101 C 
ENDBRANCH  12  17
ENDBRANCH   5  13
ENDBRANCH   1   8
BRANCH   2  18
ATOM     18  C   UNL     1      -9.320  -3.457   0.279  0.00  0.00    +0.300 C 
ATOM     19  O   UNL     1      -9.521  -4.653   0.279  0.00  0.00    -0.265 OA
ATOM     20  N   UNL     1     -10.354  -2.599   0.390  0.00  0.00    -0.305 N 
ATOM     21  H   UNL     1     -10.192  -1.643   0.390  0.00  0.00    +0.149 HD
BRANCH  20  22
ATOM     22  C   UNL     1     -11.721  -3.112   0.510  0.00  0.00    +0.075 C 
ATOM     23  C   UNL     1     -12.287  -3.385  -0.885  0.00  0.00    +0.028 C 
BRANCH  22  24
ATOM     24  C   UNL     1     -12.593  -2.075   1.221  0.00  0.00    +0.057 C 
BRANCH  24  25
ATOM     25  C   UNL     1     -12.109  -1.896   2.636  0.00  0.00    -0.045 A 
ATOM     26  C   UNL     1     -12.621  -2.689   3.647  0.00  0.00    +0.007 A 
ATOM     27  C   UNL     1     -12.179  -2.527   4.945  0.00  0.00    +0.045 A 
ATOM     28  C   UNL     1     -11.219  -1.568   5.235  0.00  0.00    +0.117 A 
ATOM     29  C   UNL     1     -10.706  -0.774   4.220  0.00  0.00    +0.045 A 
ATOM     30  C   UNL     1     -11.148  -0.944   2.922  0.00  0.00    +0.007 A 
BRANCH  28  31
ATOM     31  O   UNL     1     -10.783  -1.406   6.512  0.00  0.00    -0.507 OA
ATOM     32  H   UNL     1     -10.019  -1.954   6.739  0.00  0.00    +0.292 HD
ENDBRANCH  28  31
ENDBRANCH  24  25
ENDBRANCH  22  24
ENDBRANCH  20  22
ENDBRANCH   2  18
TORSDOF 8
