REMARK  Name = ZINC56761580
REMARK  7 active torsions:
REMARK  status: ('A' for Active; 'I' for Inactive)
REMARK    1  A    between atoms: C_1  and  C_2
REMARK    2  A    between atoms: C_2  and  C_4
REMARK    3  A    between atoms: C_2  and  N_12
REMARK    4  A    between atoms: C_4  and  C_5
REMARK    5  A    between atoms: C_8  and  O_11
REMARK    6  A    between atoms: N_18  and  C_21
REMARK    7  A    between atoms: C_21  and  C_22
REMARK                            x       y       z     vdW  Elec       q    Type
REMARK                         _______ _______ _______ _____ _____    ______ ____
ROOT
ATOM      1  N   UNL     1      -1.466  -0.303  -2.311  0.00  0.00    -0.296 N 
ATOM      2  C   UNL     1      -2.051  -0.643  -1.145  0.00  0.00    +0.302 C 
ATOM      3  O   UNL     1      -1.409  -0.615  -0.112  0.00  0.00    -0.253 OA
ATOM      4  N   UNL     1      -3.346  -1.013  -1.123  0.00  0.00    -0.283 N 
ATOM      5  C   UNL     1      -4.037  -1.271   0.150  0.00  0.00    +0.124 C 
ATOM      6  C   UNL     1      -4.720  -2.640   0.064  0.00  0.00    +0.104 C 
ATOM      7  N   UNL     1      -5.578  -2.682  -1.128  0.00  0.00    -0.295 NA
ATOM      8  C   UNL     1      -4.788  -2.543  -2.358  0.00  0.00    +0.104 C 
ATOM      9  C   UNL     1      -4.109  -1.164  -2.372  0.00  0.00    +0.124 C 
ATOM     10  H   UNL     1      -1.956  -0.395  -3.143  0.00  0.00    +0.151 HD
ENDROOT
BRANCH   1  12
ATOM     11  C   UNL     1       0.885  -0.974  -2.342  0.00  0.00    +0.028 C 
ATOM     12  C   UNL     1      -0.091   0.203  -2.321  0.00  0.00    +0.076 C 
BRANCH  12  13
ATOM     13  C   UNL     1       0.124   1.068  -3.564  0.00  0.00    +0.057 C 
BRANCH  13  14
ATOM     14  C   UNL     1      -0.751   2.292  -3.483  0.00  0.00    -0.045 A 
ATOM     15  C   UNL     1      -2.031   2.260  -4.003  0.00  0.00    +0.007 A 
ATOM     16  C   UNL     1      -2.836   3.381  -3.931  0.00  0.00    +0.045 A 
ATOM     17  C   UNL     1      -2.357   4.539  -3.334  0.00  0.00    +0.117 A 
ATOM     18  C   UNL     1      -1.072   4.568  -2.812  0.00  0.00    +0.045 A 
ATOM     19  C   UNL     1      -0.274   3.443  -2.883  0.00  0.00    +0.007 A 
BRANCH  17  20
ATOM     20  O   UNL     1      -3.146   5.643  -3.262  0.00  0.00    -0.507 OA
ATOM     21  H   UNL     1      -3.686   5.689  -2.461  0.00  0.00    +0.292 HD
ENDBRANCH  17  20
ENDBRANCH  13  14
ENDBRANCH  12  13
ENDBRANCH   1  12
BRANCH   7  22
ATOM     22  C   UNL     1      -6.382  -3.911  -1.154  0.00  0.00    +0.119 C 
BRANCH  22  23
ATOM     23  C   UNL     1      -7.417  -3.811  -2.245  0.00  0.00    -0.030 A 
ATOM     24  C   UNL     1      -8.660  -3.272  -1.968  0.00  0.00    +0.009 A 
ATOM     25  C   UNL     1      -9.613  -3.177  -2.965  0.00  0.00    +0.050 A 
ATOM     26  C   UNL     1      -9.325  -3.622  -4.244  0.00  0.00    +0.166 A 
ATOM     27  C   UNL     1      -8.073  -4.165  -4.523  0.00  0.00    +0.167 A 
ATOM     28  C   UNL     1      -7.121  -4.252  -3.521  0.00  0.00    +0.054 A 
ATOM     29  O   UNL     1      -8.037  -4.525  -5.839  0.00  0.00    -0.453 OA
ATOM     30  C   UNL     1      -9.412  -4.575  -6.262  0.00  0.00    +0.466 C 
ATOM     31  O   UNL     1     -10.073  -3.643  -5.386  0.00  0.00    -0.453 OA
ENDBRANCH  22  23
ENDBRANCH   7  22
TORSDOF 6
