REMARK  Name = ZINC06078201
REMARK  15 active torsions:
REMARK  status: ('A' for Active; 'I' for Inactive)
REMARK    1  A    between atoms: C_1  and  C_2
REMARK    2  A    between atoms: C_2  and  N_72
REMARK    3  A    between atoms: C_3  and  C_4
REMARK    4  A    between atoms: C_3  and  N_72
REMARK    5  A    between atoms: C_5  and  C_6
REMARK    6  A    between atoms: C_5  and  N_72
REMARK    7  A    between atoms: C_6  and  C_7
REMARK    8  A    between atoms: C_7  and  N_8
REMARK    9  A    between atoms: N_8  and  C_9
REMARK   10  A    between atoms: N_8  and  C_26
REMARK   11  A    between atoms: C_9  and  C_10
REMARK   12  A    between atoms: C_26  and  N_28
REMARK   13  A    between atoms: N_28  and  C_29
REMARK   14  A    between atoms: C_32  and  C_36
REMARK   15  A    between atoms: C_34  and  C_35
REMARK                            x       y       z     vdW  Elec       q    Type
REMARK                         _______ _______ _______ _____ _____    ______ ____
ROOT
ATOM      1  N   UNL     1      -3.512   2.354  -0.226  0.00  0.00    -0.308 N 
ENDROOT
BRANCH   1   2
ATOM      2  C   UNL     1      -2.271   1.839  -0.121  0.00  0.00    +0.137 C 
ATOM      3  S   UNL     1      -2.052   0.142  -0.050  0.00  0.00    -0.018 S 
BRANCH   2   4
ATOM      4  N   UNL     1      -1.203   2.659  -0.072  0.00  0.00    -0.297 N 
ATOM      5  H   UNL     1      -1.330   3.620  -0.051  0.00  0.00    +0.154 HD
BRANCH   4   6
ATOM      6  C   UNL     1       0.089   2.123  -0.052  0.00  0.00    +0.036 A 
ATOM      7  C   UNL     1       0.399   1.083   0.814  0.00  0.00    +0.024 A 
ATOM      8  C   UNL     1       1.674   0.553   0.827  0.00  0.00    +0.005 A 
ATOM      9  C   UNL     1       2.643   1.057  -0.021  0.00  0.00    -0.050 A 
ATOM     10  C   UNL     1       2.338   2.093  -0.885  0.00  0.00    +0.008 A 
ATOM     11  C   UNL     1       1.064   2.627  -0.903  0.00  0.00    -0.029 A 
ATOM     12  C   UNL     1       0.733   3.756  -1.845  0.00  0.00    +0.045 C 
ATOM     13  C   UNL     1       4.033   0.476  -0.005  0.00  0.00    +0.044 C 
ENDBRANCH   4   6
ENDBRANCH   2   4
ENDBRANCH   1   2
BRANCH   1  14
ATOM     14  C   UNL     1      -3.693   3.797  -0.403  0.00  0.00    +0.105 C 
BRANCH  14  15
ATOM     15  C   UNL     1      -3.706   4.130  -1.896  0.00  0.00    +0.000 C 
BRANCH  15  16
ATOM     16  C   UNL     1      -3.895   5.637  -2.081  0.00  0.00    -0.077 C 
BRANCH  16  17
ATOM     17  N   UNL     1      -3.884   5.946  -3.526  0.00  0.00    +0.379 N 
ATOM     18  H   UNL     1      -3.046   5.530  -3.949  0.00  0.00    -0.082 HD
BRANCH  17  20
ATOM     19  C   UNL     1      -6.353   6.030  -3.628  0.00  0.00    -0.017 C 
ATOM     20  C   UNL     1      -5.083   5.374  -4.174  0.00  0.00    -0.082 C 
ENDBRANCH  17  20
BRANCH  17  21
ATOM     21  C   UNL     1      -3.849   7.409  -3.731  0.00  0.00    -0.082 C 
ATOM     22  C   UNL     1      -3.706   7.697  -5.226  0.00  0.00    -0.017 C 
ENDBRANCH  17  21
ENDBRANCH  16  17
ENDBRANCH  15  16
ENDBRANCH  14  15
ENDBRANCH   1  14
BRANCH   1  23
ATOM     23  C   UNL     1      -4.680   1.471  -0.163  0.00  0.00    +0.147 C 
BRANCH  23  24
ATOM     24  C   UNL     1      -5.067   1.253   1.277  0.00  0.00    +0.035 A 
ATOM     25  C   UNL     1      -4.640   0.143   1.931  0.00  0.00    +0.020 A 
ATOM     26  C   UNL     1      -5.028  -0.037   3.329  0.00  0.00    +0.003 A 
ATOM     27  C   UNL     1      -4.614  -1.161   4.055  0.00  0.00    +0.059 A 
ATOM     28  C   UNL     1      -5.000  -1.306   5.371  0.00  0.00    +0.163 A 
ATOM     29  C   UNL     1      -5.802  -0.338   5.981  0.00  0.00    +0.164 A 
ATOM     30  C   UNL     1      -6.217   0.776   5.270  0.00  0.00    +0.075 A 
ATOM     31  C   UNL     1      -5.838   0.937   3.944  0.00  0.00    +0.053 A 
ATOM     32  N   UNL     1      -6.244   2.040   3.221  0.00  0.00    -0.322 N 
ATOM     33  H   UNL     1      -6.819   2.732   3.658  0.00  0.00    +0.169 HD
ATOM     34  C   UNL     1      -5.877   2.199   1.937  0.00  0.00    +0.254 A 
ATOM     35  O   UNL     1      -6.254   3.186   1.329  0.00  0.00    -0.268 OA
ATOM     36  O   UNL     1      -6.184  -0.472   7.280  0.00  0.00    -0.485 OA
ATOM     37  C   UNL     1      -6.065  -1.778   7.854  0.00  0.00    +0.270 C 
ATOM     38  C   UNL     1      -4.685  -2.340   7.490  0.00  0.00    +0.270 C 
ATOM     39  O   UNL     1      -4.590  -2.406   6.063  0.00  0.00    -0.485 OA
ENDBRANCH  23  24
ENDBRANCH   1  23
TORSDOF 11
