REMARK  Name = ZINC45739675
REMARK  7 active torsions:
REMARK  status: ('A' for Active; 'I' for Inactive)
REMARK    1  A    between atoms: C_1  and  C_2
REMARK    2  A    between atoms: C_9  and  C_12
REMARK    3  A    between atoms: C_12  and  O_14
REMARK    4  A    between atoms: O_14  and  C_15
REMARK    5  A    between atoms: C_15  and  C_16
REMARK    6  A    between atoms: N_22  and  C_23
REMARK    7  A    between atoms: N_22  and  C_24
REMARK                            x       y       z     vdW  Elec       q    Type
REMARK                         _______ _______ _______ _____ _____    ______ ____
ROOT
ATOM      1  O   UNL     1      -0.156  -6.858   2.821  0.00  0.00    -0.456 OA
ENDROOT
BRANCH   1   2
ATOM      2  C   UNL     1       0.403  -5.989   1.965  0.00  0.00    +0.321 C 
ATOM      3  O   UNL     1       1.533  -6.166   1.575  0.00  0.00    -0.250 OA
BRANCH   2  12
ATOM      4  C   UNL     1      -0.018   1.503   0.010  0.00  0.00    +0.044 C 
ATOM      5  C   UNL     1       0.002  -0.004   0.002  0.00  0.00    -0.049 A 
ATOM      6  C   UNL     1       0.006  -0.699  -1.194  0.00  0.00    +0.004 A 
ATOM      7  C   UNL     1       0.033  -2.075  -1.211  0.00  0.00    +0.005 A 
ATOM      8  C   UNL     1       0.055  -2.812  -0.024  0.00  0.00    -0.032 A 
ATOM      9  C   UNL     1       0.035  -2.093   1.169  0.00  0.00    +0.012 A 
ATOM     10  C   UNL     1       0.023  -0.711   1.189  0.00  0.00    +0.018 A 
ATOM     11  S   UNL     1       0.019  -3.293   2.483  0.00  0.00    -0.110 S 
ATOM     12  C   UNL     1      -0.378  -4.791   1.490  0.00  0.00    +0.164 C 
ATOM     13  C   UNL     1       0.107  -4.314   0.102  0.00  0.00    +0.062 C 
ENDBRANCH   2  12
ENDBRANCH   1   2
BRANCH   1  14
ATOM     14  C   UNL     1       0.642  -7.971   3.229  0.00  0.00    +0.308 C 
BRANCH  14  15
ATOM     15  C   UNL     1      -0.146  -8.831   4.183  0.00  0.00    +0.173 A 
ATOM     16  N   UNL     1      -0.095  -8.593   5.482  0.00  0.00    -0.196 NA
ATOM     17  C   UNL     1      -0.790  -9.351   6.327  0.00  0.00    +0.217 A 
ATOM     18  N   UNL     1      -1.536 -10.348   5.863  0.00  0.00    -0.181 NA
ATOM     19  C   UNL     1      -1.585 -10.584   4.557  0.00  0.00    +0.222 A 
ATOM     20  N   UNL     1      -0.891  -9.819   3.717  0.00  0.00    -0.196 NA
ATOM     21  N   UNL     1      -2.358 -11.618   4.070  0.00  0.00    -0.306 N 
ATOM     22  C   UNL     1      -3.126 -12.457   4.995  0.00  0.00    +0.132 C 
ATOM     23  C   UNL     1      -2.412 -11.878   2.629  0.00  0.00    +0.132 C 
ATOM     24  N   UNL     1      -0.736  -9.102   7.683  0.00  0.00    -0.327 N 
ATOM     25  H   UNL     1      -0.191  -8.374   8.021  0.00  0.00    +0.145 HD
ATOM     26  H   UNL     1      -1.243  -9.654   8.298  0.00  0.00    +0.145 HD
ENDBRANCH  14  15
ENDBRANCH   1  14
TORSDOF 4
