REMARK  Name = ZINC09350409
REMARK  8 active torsions:
REMARK  status: ('A' for Active; 'I' for Inactive)
REMARK    1  A    between atoms: C_1  and  C_2
REMARK    2  A    between atoms: C_2  and  C_3
REMARK    3  A    between atoms: C_3  and  O_4
REMARK    4  A    between atoms: O_4  and  C_5
REMARK    5  A    between atoms: C_8  and  C_11
REMARK    6  A    between atoms: C_18  and  N_32
REMARK    7  A    between atoms: C_19  and  C_30
REMARK    8  A    between atoms: C_20  and  C_22
REMARK                            x       y       z     vdW  Elec       q    Type
REMARK                         _______ _______ _______ _____ _____    ______ ____
ROOT
ATOM      1  C   UNL     1       3.255  -4.434  -5.646  0.00  0.00    +0.074 A 
ATOM      2  C   UNL     1       2.802  -5.536  -6.291  0.00  0.00    +0.054 A 
ATOM      3  C   UNL     1       3.705  -5.837  -7.329  0.00  0.00    +0.245 A 
ATOM      4  N   UNL     1       4.663  -4.954  -7.308  0.00  0.00    -0.135 NA
ATOM      5  N   UNL     1       4.410  -4.049  -6.265  0.00  0.00    -0.273 N 
ATOM      6  H   UNL     1       4.960  -3.287  -6.025  0.00  0.00    +0.189 HD
ATOM      7  O   UNL     1       3.519  -6.896  -8.162  0.00  0.00    -0.421 OA
ATOM      8  C   UNL     1       2.310  -7.493  -8.147  0.00  0.00    +0.201 C 
ATOM      9  C   UNL     1       1.370  -7.293  -7.199  0.00  0.00    +0.098 C 
ATOM     10  C   UNL     1       1.570  -6.364  -6.028  0.00  0.00    +0.103 C 
ENDROOT
BRANCH  10  11
ATOM     11  C   UNL     1       1.758  -7.169  -4.768  0.00  0.00    -0.016 A 
ATOM     12  C   UNL     1       2.864  -7.986  -4.628  0.00  0.00    +0.007 A 
ATOM     13  C   UNL     1       3.037  -8.724  -3.472  0.00  0.00    +0.020 A 
ATOM     14  C   UNL     1       2.103  -8.645  -2.454  0.00  0.00    +0.042 A 
ATOM     15  C   UNL     1       0.996  -7.827  -2.594  0.00  0.00    +0.040 A 
ATOM     16  C   UNL     1       0.826  -7.085  -3.749  0.00  0.00    +0.046 A 
ATOM     17 CL   UNL     1      -0.560  -6.054  -3.922  0.00  0.00    -0.083 Cl
ATOM     18 CL   UNL     1       2.320  -9.572  -1.003  0.00  0.00    -0.083 Cl
ENDBRANCH  10  11
BRANCH   1  22
ATOM     19  C   UNL     1       1.415  -2.519  -2.327  0.00  0.00    +0.121 A 
ATOM     20  C   UNL     1       2.775  -2.798  -2.300  0.00  0.00    +0.046 A 
ATOM     21  C   UNL     1       3.375  -3.418  -3.374  0.00  0.00    +0.013 A 
ATOM     22  C   UNL     1       2.614  -3.768  -4.490  0.00  0.00    +0.000 A 
ATOM     23  C   UNL     1       1.247  -3.487  -4.514  0.00  0.00    +0.013 A 
ATOM     24  C   UNL     1       0.653  -2.870  -3.434  0.00  0.00    +0.046 A 
BRANCH  19  25
ATOM     25  O   UNL     1       0.826  -1.907  -1.266  0.00  0.00    -0.492 OA
BRANCH  25  26
ATOM     26  C   UNL     1       1.668  -1.574  -0.161  0.00  0.00    +0.229 C 
BRANCH  26  28
ATOM     27  C   UNL     1       1.736  -0.540   2.113  0.00  0.00    +0.007 C 
ATOM     28  C   UNL     1       0.835  -0.897   0.929  0.00  0.00    +0.038 C 
ENDBRANCH  26  28
ENDBRANCH  25  26
ENDBRANCH  19  25
ENDBRANCH   1  22
BRANCH   8  29
ATOM     29  N   UNL     1       2.016  -8.366  -9.164  0.00  0.00    -0.328 N 
ATOM     30  H   UNL     1       2.668  -8.535  -9.862  0.00  0.00    +0.145 HD
ATOM     31  H   UNL     1       1.156  -8.814  -9.186  0.00  0.00    +0.145 HD
ENDBRANCH   8  29
BRANCH   9  32
ATOM     32  C   UNL     1       0.126  -7.993  -7.312  0.00  0.00    +0.101 C 
ATOM     33  N   UNL     1      -0.861  -8.548  -7.401  0.00  0.00    -0.191 NA
ENDBRANCH   9  32
TORSDOF 7
