REMARK  Name = ZINC08857376
REMARK  8 active torsions:
REMARK  status: ('A' for Active; 'I' for Inactive)
REMARK    1  A    between atoms: C_1  and  C_2
REMARK    2  A    between atoms: C_6  and  C_33
REMARK    3  A    between atoms: C_7  and  N_8
REMARK    4  A    between atoms: C_13  and  N_14
REMARK    5  A    between atoms: C_13  and  N_59
REMARK    6  A    between atoms: N_14  and  O_32
REMARK    7  A    between atoms: C_20  and  C_21
REMARK    8  A    between atoms: C_26  and  C_27
REMARK                            x       y       z     vdW  Elec       q    Type
REMARK                         _______ _______ _______ _____ _____    ______ ____
ROOT
ATOM      1  N   UNL     1      -1.330   3.622  -1.658  0.00  0.00    -0.251 N 
ATOM      2  C   UNL     1      -0.864   4.648  -2.436  0.00  0.00    +0.184 C 
ATOM      3  N   UNL     1       0.176   5.437  -2.217  0.00  0.00    -0.150 NA
ATOM      4  C   UNL     1       0.523   6.394  -3.049  0.00  0.00    +0.276 C 
ATOM      5  O   UNL     1       1.484   7.115  -2.837  0.00  0.00    -0.267 OA
ATOM      6  C   UNL     1      -0.319   6.548  -4.261  0.00  0.00    +0.080 C 
ATOM      7  C   UNL     1      -0.213   7.429  -5.285  0.00  0.00    +0.029 C 
ATOM      8  S   UNL     1      -1.507   5.238  -3.994  0.00  0.00    -0.047 S 
ENDROOT
BRANCH   7   9
ATOM      9  C   UNL     1      -1.284   7.521  -6.289  0.00  0.00    -0.012 A 
ATOM     10  C   UNL     1      -2.566   7.044  -5.995  0.00  0.00    +0.008 A 
ATOM     11  C   UNL     1      -3.565   7.137  -6.941  0.00  0.00    +0.001 A 
ATOM     12  C   UNL     1      -3.301   7.693  -8.181  0.00  0.00    +0.001 A 
ATOM     13  C   UNL     1      -2.034   8.162  -8.481  0.00  0.00    +0.013 A 
ATOM     14  C   UNL     1      -1.024   8.080  -7.545  0.00  0.00    +0.062 A 
BRANCH  14  15
ATOM     15  C   UNL     1       0.354   8.592  -7.874  0.00  0.00    +0.418 C 
ATOM     16  F   UNL     1       0.364   9.100  -9.177  0.00  0.00    -0.166 F 
ATOM     17  F   UNL     1       0.703   9.605  -6.975  0.00  0.00    -0.166 F 
ATOM     18  F   UNL     1       1.276   7.544  -7.775  0.00  0.00    -0.166 F 
ENDBRANCH  14  15
ENDBRANCH   7   9
BRANCH   1  19
ATOM     19  O   UNL     1      -2.469   2.886  -2.065  0.00  0.00    -0.287 OA
ATOM     20  H   UNL     1      -2.848   3.180  -2.905  0.00  0.00    +0.244 HD
ENDBRANCH   1  19
BRANCH   1  21
ATOM     21  C   UNL     1      -0.651   3.287  -0.404  0.00  0.00    +0.076 C 
BRANCH  21  27
ATOM     22  N   UNL     1      -1.848   4.903   3.312  0.00  0.00    -0.333 N 
ATOM     23  C   UNL     1      -2.076   3.470   3.078  0.00  0.00    +0.086 C 
ATOM     24  C   UNL     1      -1.169   2.990   1.943  0.00  0.00    -0.057 C 
ATOM     25  C   UNL     1      -1.222   5.202   0.964  0.00  0.00    -0.057 C 
ATOM     26  C   UNL     1      -2.130   5.683   2.098  0.00  0.00    +0.086 C 
ATOM     27  N   UNL     1      -1.478   3.766   0.724  0.00  0.00    +0.395 N 
ATOM     28  H   UNL     1      -2.469   3.639   0.490  0.00  0.00    -0.079 HD
BRANCH  22  35
ATOM     29  C   UNL     1      -0.508   6.286   5.405  0.00  0.00    +0.045 C 
ATOM     30  C   UNL     1      -1.995   6.042   5.434  0.00  0.00    -0.029 A 
ATOM     31  C   UNL     1      -2.750   6.499   6.496  0.00  0.00    +0.005 A 
ATOM     32  C   UNL     1      -4.114   6.271   6.526  0.00  0.00    +0.001 A 
ATOM     33  C   UNL     1      -4.726   5.589   5.490  0.00  0.00    +0.005 A 
ATOM     34  C   UNL     1      -3.978   5.134   4.423  0.00  0.00    -0.029 A 
ATOM     35  C   UNL     1      -2.608   5.362   4.390  0.00  0.00    +0.035 A 
ATOM     36  C   UNL     1      -4.646   4.392   3.294  0.00  0.00    +0.045 C 
ENDBRANCH  22  35
ENDBRANCH  21  27
ENDBRANCH   1  21
TORSDOF 6
