REMARK  Name = ZINC05283598
REMARK  4 active torsions:
REMARK  status: ('A' for Active; 'I' for Inactive)
REMARK    1  A    between atoms: C_1  and  C_2
REMARK    2  A    between atoms: N_4  and  C_5
REMARK    3  A    between atoms: C_18  and  C_21
REMARK    4  A    between atoms: C_25  and  N_27
REMARK                            x       y       z     vdW  Elec       q    Type
REMARK                         _______ _______ _______ _____ _____    ______ ____
ROOT
ATOM      1  C   UNL     1       1.182   1.701   0.004  0.00  0.00    +0.034 A 
ATOM      2  C   UNL     1       1.146   3.085  -0.101  0.00  0.00    +0.025 A 
ATOM      3  C   UNL     1       2.320   3.809  -0.094  0.00  0.00    +0.025 A 
ATOM      4  C   UNL     1       3.546   3.163   0.010  0.00  0.00    +0.031 A 
ATOM      5  C   UNL     1       3.578   1.767   0.100  0.00  0.00    -0.018 A 
ATOM      6  C   UNL     1       2.403   1.047   0.099  0.00  0.00    +0.029 A 
ATOM      7  C   UNL     1       4.905   1.119   0.181  0.00  0.00    +0.049 C 
ATOM      8  C   UNL     1       5.093  -0.206   0.827  0.00  0.00    -0.023 C 
ATOM      9  C   UNL     1       6.309  -0.249   1.359  0.00  0.00    -0.030 C 
ATOM     10  C   UNL     1       7.027   1.083   1.132  0.00  0.00    +0.033 C 
ATOM     11  C   UNL     1       5.844   2.053   1.001  0.00  0.00    +0.029 C 
ATOM     12  C   UNL     1       6.050   3.282   0.134  0.00  0.00    +0.105 C 
ATOM     13  N   UNL     1       4.722   3.926   0.034  0.00  0.00    -0.336 N 
ATOM     14  H   UNL     1       4.665   4.893  -0.016  0.00  0.00    +0.147 HD
ENDROOT
BRANCH  12  15
ATOM     15  C   UNL     1       7.035   4.218   0.784  0.00  0.00    -0.025 A 
ATOM     16  C   UNL     1       6.621   5.063   1.798  0.00  0.00    +0.005 A 
ATOM     17  C   UNL     1       7.526   5.919   2.397  0.00  0.00    +0.003 A 
ATOM     18  C   UNL     1       8.842   5.938   1.977  0.00  0.00    +0.033 A 
ATOM     19  C   UNL     1       9.256   5.097   0.961  0.00  0.00    +0.127 A 
ATOM     20  C   UNL     1       8.352   4.237   0.364  0.00  0.00    +0.038 A 
BRANCH  19  21
ATOM     21  N   UNL     1      10.666   5.117   0.511  0.00  0.00    +0.056 N 
ATOM     22  O   UNL     1      11.030   4.376  -0.385  0.00  0.00    -0.126 OA
ATOM     23  O   UNL     1      11.462   5.874   1.037  0.00  0.00    -0.126 OA
ENDBRANCH  19  21
ENDBRANCH  12  15
BRANCH   1  27
ATOM     24  C   UNL     1      -2.366   0.640   0.690  0.00  0.00    +0.109 C 
ATOM     25  C   UNL     1      -1.112   1.470   0.599  0.00  0.00    +0.214 C 
ATOM     26  O   UNL     1      -1.093   2.592   1.059  0.00  0.00    -0.276 OA
ATOM     27  N   UNL     1      -0.011   0.966   0.007  0.00  0.00    -0.286 N 
ATOM     28  H   UNL     1      -0.046   0.096  -0.420  0.00  0.00    +0.155 HD
ENDBRANCH   1  27
TORSDOF 3
