REMARK  Name = ZINC20492355
REMARK  8 active torsions:
REMARK  status: ('A' for Active; 'I' for Inactive)
REMARK    1  A    between atoms: C_1  and  C_2
REMARK    2  A    between atoms: C_2  and  C_3
REMARK    3  A    between atoms: C_6  and  C_9
REMARK    4  A    between atoms: C_11  and  C_28
REMARK    5  A    between atoms: C_13  and  C_19
REMARK    6  A    between atoms: C_22  and  O_27
REMARK    7  A    between atoms: C_23  and  O_25
REMARK    8  A    between atoms: O_25  and  C_26
REMARK                            x       y       z     vdW  Elec       q    Type
REMARK                         _______ _______ _______ _____ _____    ______ ____
ROOT
ATOM      1  C   UNL     1      -6.103  -1.218  -1.956  0.00  0.00    +0.076 A 
ATOM      2  C   UNL     1      -6.261  -2.586  -1.770  0.00  0.00    +0.060 A 
ATOM      3  C   UNL     1      -5.400  -3.759  -1.918  0.00  0.00    +0.078 A 
ATOM      4  C   UNL     1      -5.954  -4.995  -1.623  0.00  0.00    +0.044 A 
ATOM      5  C   UNL     1      -7.290  -5.084  -1.201  0.00  0.00    +0.074 A 
ATOM      6  N   UNL     1      -8.071  -4.036  -1.065  0.00  0.00    -0.226 NA
ATOM      7  C   UNL     1      -7.647  -2.792  -1.321  0.00  0.00    +0.183 A 
ATOM      8  N   UNL     1      -8.211  -1.596  -1.267  0.00  0.00    -0.153 NA
ATOM      9  N   UNL     1      -7.277  -0.626  -1.647  0.00  0.00    -0.274 N 
ATOM     10  H   UNL     1      -7.447   0.328  -1.685  0.00  0.00    +0.189 HD
ENDROOT
BRANCH   1  14
ATOM     11  C   UNL     1      -2.565   0.745  -3.245  0.00  0.00    -0.048 A 
ATOM     12  C   UNL     1      -3.234   1.199  -2.123  0.00  0.00    +0.004 A 
ATOM     13  C   UNL     1      -4.384   0.567  -1.698  0.00  0.00    +0.010 A 
ATOM     14  C   UNL     1      -4.873  -0.535  -2.405  0.00  0.00    +0.000 A 
ATOM     15  C   UNL     1      -4.192  -0.988  -3.537  0.00  0.00    +0.010 A 
ATOM     16  C   UNL     1      -3.046  -0.342  -3.953  0.00  0.00    +0.004 A 
BRANCH  11  18
ATOM     17  C   UNL     1      -1.674   2.562  -4.679  0.00  0.00    +0.009 C 
ATOM     18  C   UNL     1      -1.309   1.442  -3.703  0.00  0.00    +0.032 C 
ENDBRANCH  11  18
ENDBRANCH   1  14
BRANCH   5  19
ATOM     19  C   UNL     1      -7.847  -6.423  -0.895  0.00  0.00    +0.004 A 
ATOM     20  C   UNL     1      -7.046  -7.558  -1.023  0.00  0.00    +0.014 A 
ATOM     21  C   UNL     1      -7.565  -8.804  -0.738  0.00  0.00    +0.050 A 
ATOM     22  C   UNL     1      -8.883  -8.931  -0.324  0.00  0.00    +0.158 A 
ATOM     23  C   UNL     1      -9.688  -7.801  -0.195  0.00  0.00    +0.162 A 
ATOM     24  C   UNL     1      -9.171  -6.550  -0.474  0.00  0.00    +0.059 A 
BRANCH  23  25
ATOM     25  O   UNL     1     -10.979  -7.929   0.211  0.00  0.00    -0.491 OA
ATOM     26  C   UNL     1     -11.746  -6.728   0.321  0.00  0.00    +0.277 C 
ENDBRANCH  23  25
BRANCH  22  27
ATOM     27  O   UNL     1      -9.390 -10.161  -0.045  0.00  0.00    -0.503 OA
ATOM     28  H   UNL     1      -9.281 -10.431   0.877  0.00  0.00    +0.292 HD
ENDBRANCH  22  27
ENDBRANCH   5  19
BRANCH   3  29
ATOM     29  C   UNL     1      -3.998  -3.632  -2.365  0.00  0.00    +0.387 C 
ATOM     30  O   UNL     1      -3.613  -4.244  -3.351  0.00  0.00    -0.241 OA
ATOM     31  O   UNL     1      -3.223  -2.915  -1.748  0.00  0.00    -0.241 OA
ENDBRANCH   3  29
TORSDOF 6
