REMARK  Name = ZINC66177645
REMARK  9 active torsions:
REMARK  status: ('A' for Active; 'I' for Inactive)
REMARK    1  A    between atoms: C_1  and  C_2
REMARK    2  A    between atoms: C_5  and  N_8
REMARK    3  A    between atoms: C_11  and  N_14
REMARK    4  A    between atoms: N_14  and  C_15
REMARK    5  A    between atoms: N_18  and  C_19
REMARK    6  A    between atoms: C_19  and  C_20
REMARK    7  A    between atoms: C_20  and  N_21
REMARK    8  A    between atoms: N_21  and  S_22
REMARK    9  A    between atoms: S_22  and  C_25
REMARK                            x       y       z     vdW  Elec       q    Type
REMARK                         _______ _______ _______ _____ _____    ______ ____
ROOT
ATOM      1  N   UNL     1      -2.097  -0.073   3.720  0.00  0.00    +0.382 N 
ATOM      2  C   UNL     1      -1.381  -0.553   4.908  0.00  0.00    -0.077 C 
ATOM      3  C   UNL     1      -2.046   0.005   6.168  0.00  0.00    +0.004 C 
ATOM      4  C   UNL     1      -3.502  -0.468   6.223  0.00  0.00    +0.074 C 
ATOM      5  C   UNL     1      -4.219  -0.026   4.944  0.00  0.00    +0.004 C 
ATOM      6  C   UNL     1      -3.474  -0.582   3.729  0.00  0.00    -0.077 C 
ATOM      7  H   UNL     1      -2.112   0.936   3.723  0.00  0.00    -0.081 HD
ENDROOT
BRANCH   1  12
ATOM      8  C   UNL     1      -0.019   1.526   0.010  0.00  0.00    +0.007 C 
ATOM      9  C   UNL     1       0.002  -0.004   0.002  0.00  0.00    -0.014 C 
ATOM     10  C   UNL     1      -1.433  -0.534   0.013  0.00  0.00    +0.002 C 
ATOM     11  C   UNL     1      -2.149  -0.040   1.272  0.00  0.00    -0.015 C 
ATOM     12  C   UNL     1      -1.409  -0.547   2.511  0.00  0.00    -0.069 C 
ATOM     13  C   UNL     1       0.026  -0.018   2.500  0.00  0.00    -0.015 C 
ATOM     14  C   UNL     1       0.742  -0.511   1.242  0.00  0.00    +0.002 C 
ENDBRANCH   1  12
BRANCH   4  15
ATOM     15  N   UNL     1      -4.166   0.124   7.387  0.00  0.00    -0.286 N 
ATOM     16  C   UNL     1      -4.262   1.581   7.513  0.00  0.00    +0.134 C 
ATOM     17  C   UNL     1      -4.688  -0.671   8.341  0.00  0.00    +0.302 C 
ATOM     18  O   UNL     1      -4.608  -1.880   8.236  0.00  0.00    -0.253 OA
ATOM     19  N   UNL     1      -5.299  -0.127   9.412  0.00  0.00    -0.298 N 
ATOM     20  H   UNL     1      -5.363   0.838   9.496  0.00  0.00    +0.150 HD
BRANCH  19  21
ATOM     21  C   UNL     1      -5.866  -0.991  10.450  0.00  0.00    +0.122 C 
BRANCH  21  22
ATOM     22  C   UNL     1      -6.496  -0.128  11.544  0.00  0.00    +0.124 C 
BRANCH  22  23
ATOM     23  N   UNL     1      -7.064  -0.993  12.582  0.00  0.00    -0.193 NA
ATOM     24  H   UNL     1      -7.198  -1.937  12.407  0.00  0.00    +0.148 HD
BRANCH  23  25
ATOM     25  S   UNL     1      -7.476  -0.357  14.055  0.00  0.00    +0.027 S 
ATOM     26  O   UNL     1      -7.961  -1.463  14.804  0.00  0.00    -0.158 OA
ATOM     27  O   UNL     1      -6.322   0.355  14.479  0.00  0.00    -0.158 OA
ATOM     28  C   UNL     1      -8.829   0.799  13.702  0.00  0.00    +0.214 C 
ENDBRANCH  23  25
ENDBRANCH  22  23
ENDBRANCH  21  22
ENDBRANCH  19  21
ENDBRANCH   4  15
TORSDOF 6
