REMARK  Name = ZINC38971127
REMARK  9 active torsions:
REMARK  status: ('A' for Active; 'I' for Inactive)
REMARK    1  A    between atoms: C_1  and  C_2
REMARK    2  A    between atoms: C_2  and  C_3
REMARK    3  A    between atoms: C_2  and  O_4
REMARK    4  A    between atoms: O_4  and  C_5
REMARK    5  A    between atoms: C_9  and  C_11
REMARK    6  A    between atoms: N_17  and  N_18
REMARK    7  A    between atoms: C_19  and  C_20
REMARK    8  A    between atoms: C_23  and  O_27
REMARK    9  A    between atoms: C_24  and  O_26
REMARK                            x       y       z     vdW  Elec       q    Type
REMARK                         _______ _______ _______ _____ _____    ______ ____
ROOT
ATOM      1  C   UNL     1      -4.594  -4.276  -1.001  0.00  0.00    +0.264 C 
ATOM      2  N   UNL     1      -5.790  -3.422  -1.070  0.00  0.00    -0.189 NA
ATOM      3  N   UNL     1      -6.443  -3.756  -2.062  0.00  0.00    -0.219 N 
ATOM      4  C   UNL     1      -5.876  -4.774  -2.764  0.00  0.00    +0.174 C 
ATOM      5  S   UNL     1      -6.530  -5.467  -4.186  0.00  0.00    -0.015 S 
ATOM      6  N   UNL     1      -4.721  -5.162  -2.172  0.00  0.00    -0.172 N 
ATOM      7  H   UNL     1      -7.278  -3.333  -2.317  0.00  0.00    +0.176 HD
ENDROOT
BRANCH   1  12
ATOM      8  C   UNL     1      -2.165  -1.401  -0.659  0.00  0.00    +0.121 A 
ATOM      9  C   UNL     1      -1.041  -1.916  -1.290  0.00  0.00    +0.045 A 
ATOM     10  C   UNL     1      -1.072  -3.190  -1.823  0.00  0.00    +0.004 A 
ATOM     11  C   UNL     1      -2.222  -3.952  -1.728  0.00  0.00    +0.007 A 
ATOM     12  C   UNL     1      -3.343  -3.442  -1.101  0.00  0.00    +0.001 A 
ATOM     13  C   UNL     1      -3.316  -2.170  -0.562  0.00  0.00    +0.053 A 
BRANCH   8  14
ATOM     14  O   UNL     1      -2.137  -0.148  -0.134  0.00  0.00    -0.489 OA
BRANCH  14  16
ATOM     15  C   UNL     1      -2.884   1.378   1.585  0.00  0.00    +0.051 C 
ATOM     16  C   UNL     1      -3.284   0.269   0.609  0.00  0.00    +0.167 C 
ATOM     17  C   UNL     1      -4.351   0.797  -0.353  0.00  0.00    +0.051 C 
ENDBRANCH  14  16
ENDBRANCH   8  14
ENDBRANCH   1  12
BRANCH   6  18
ATOM     18  N   UNL     1      -3.844  -6.175  -2.580  0.00  0.00    -0.183 NA
ATOM     19  C   UNL     1      -4.037  -6.786  -3.710  0.00  0.00    +0.138 C 
BRANCH  19  20
ATOM     20  C   UNL     1      -3.208  -7.950  -4.070  0.00  0.00    -0.002 A 
ATOM     21  C   UNL     1      -2.216  -8.401  -3.195  0.00  0.00    +0.013 A 
ATOM     22  C   UNL     1      -1.442  -9.490  -3.534  0.00  0.00    +0.050 A 
ATOM     23  C   UNL     1      -1.643 -10.140  -4.742  0.00  0.00    +0.158 A 
ATOM     24  C   UNL     1      -2.630  -9.696  -5.620  0.00  0.00    +0.159 A 
ATOM     25  C   UNL     1      -3.415  -8.608  -5.285  0.00  0.00    +0.058 A 
BRANCH  24  26
ATOM     26  O   UNL     1      -2.825 -10.336  -6.804  0.00  0.00    -0.503 OA
ATOM     27  H   UNL     1      -3.466 -11.058  -6.761  0.00  0.00    +0.292 HD
ENDBRANCH  24  26
BRANCH  23  28
ATOM     28  O   UNL     1      -0.876 -11.213  -5.072  0.00  0.00    -0.503 OA
ATOM     29  H   UNL     1      -1.240 -12.061  -4.780  0.00  0.00    +0.292 HD
ENDBRANCH  23  28
ENDBRANCH  19  20
ENDBRANCH   6  18
TORSDOF 7
