REMARK  Name = ZINC13126299
REMARK  5 active torsions:
REMARK  status: ('A' for Active; 'I' for Inactive)
REMARK    1  A    between atoms: C_1  and  C_2
REMARK    2  A    between atoms: C_2  and  C_3
REMARK    3  A    between atoms: C_3  and  C_4
REMARK    4  A    between atoms: C_6  and  C_9
REMARK    5  A    between atoms: C_13  and  C_20
REMARK                            x       y       z     vdW  Elec       q    Type
REMARK                         _______ _______ _______ _____ _____    ______ ____
ROOT
ATOM      1  C   UNL     1      -0.621  -5.233  -2.084  0.00  0.00    +0.087 A 
ATOM      2  C   UNL     1      -0.179  -6.503  -1.842  0.00  0.00    +0.027 A 
ATOM      3  C   UNL     1      -0.949  -7.604  -2.296  0.00  0.00    -0.001 A 
ATOM      4  C   UNL     1      -0.517  -8.917  -2.059  0.00  0.00    +0.013 A 
ATOM      5  C   UNL     1      -1.266  -9.969  -2.501  0.00  0.00    -0.050 A 
ATOM      6  C   UNL     1      -2.456  -9.751  -3.183  0.00  0.00    +0.005 A 
ATOM      7  C   UNL     1      -2.901  -8.470  -3.428  0.00  0.00    +0.026 A 
ATOM      8  C   UNL     1      -2.154  -7.381  -2.988  0.00  0.00    +0.049 A 
ATOM      9  N   UNL     1      -2.594  -6.096  -3.228  0.00  0.00    -0.322 N 
ATOM     10  C   UNL     1      -1.883  -5.034  -2.802  0.00  0.00    +0.260 A 
ATOM     11  O   UNL     1      -2.288  -3.906  -3.018  0.00  0.00    -0.267 OA
ATOM     12  C   UNL     1      -0.799 -11.378  -2.245  0.00  0.00    +0.044 C 
ATOM     13  H   UNL     1      -3.426  -5.955  -3.706  0.00  0.00    +0.169 HD
ENDROOT
BRANCH   1  16
ATOM     14  C   UNL     1       0.739  -2.004  -1.265  0.00  0.00    +0.228 A 
ATOM     15  N   UNL     1      -0.169  -2.775  -1.794  0.00  0.00    -0.191 NA
ATOM     16  C   UNL     1       0.165  -4.067  -1.620  0.00  0.00    +0.207 A 
ATOM     17  N   UNL     1       1.304  -4.121  -0.971  0.00  0.00    -0.056 NA
ATOM     18  O   UNL     1       1.696  -2.777  -0.735  0.00  0.00    -0.338 OA
BRANCH  14  19
ATOM     19  C   UNL     1       0.718  -0.497  -1.257  0.00  0.00    +0.098 C 
BRANCH  19  21
ATOM     20  C   UNL     1      -0.019   1.526   0.010  0.00  0.00    +0.004 C 
ATOM     21  C   UNL     1       0.002  -0.004   0.002  0.00  0.00    +0.006 C 
ENDBRANCH  19  21
ENDBRANCH  14  19
ENDBRANCH   1  16
TORSDOF 3
