REMARK  Name = ZINC20109405
REMARK  14 active torsions:
REMARK  status: ('A' for Active; 'I' for Inactive)
REMARK    1  A    between atoms: C_1  and  C_2
REMARK    2  A    between atoms: C_2  and  C_3
REMARK    3  A    between atoms: C_3  and  C_5
REMARK    4  A    between atoms: C_3  and  N_17
REMARK    5  A    between atoms: N_9  and  C_10
REMARK    6  A    between atoms: C_10  and  C_11
REMARK    7  A    between atoms: N_17  and  C_18
REMARK    8  A    between atoms: N_17  and  C_27
REMARK    9  A    between atoms: C_18  and  C_19
REMARK   10  A    between atoms: C_24  and  O_25
REMARK   11  A    between atoms: O_25  and  C_26
REMARK   12  A    between atoms: C_27  and  C_28
REMARK   13  A    between atoms: C_32  and  C_41
REMARK   14  A    between atoms: C_33  and  C_40
REMARK                            x       y       z     vdW  Elec       q    Type
REMARK                         _______ _______ _______ _____ _____    ______ ____
ROOT
ATOM      1  N   UNL     1       1.581   0.487  -0.139  0.00  0.00    -0.284 NA
ENDROOT
BRANCH   1   2
ATOM      2  C   UNL     1       2.803  -0.292  -0.382  0.00  0.00    +0.127 C 
BRANCH   2   3
ATOM      3  C   UNL     1       3.582   0.335  -1.509  0.00  0.00    +0.168 A 
ATOM      4  N   UNL     1       3.086   0.904  -2.581  0.00  0.00    -0.112 NA
ATOM      5  N   UNL     1       4.070   1.318  -3.303  0.00  0.00    -0.023 NA
ATOM      6  N   UNL     1       5.181   1.020  -2.723  0.00  0.00    -0.044 NA
ATOM      7  N   UNL     1       4.921   0.413  -1.615  0.00  0.00    -0.225 N 
BRANCH   7   8
ATOM      8  C   UNL     1       5.901  -0.095  -0.651  0.00  0.00    +0.179 C 
BRANCH   8   9
ATOM      9  C   UNL     1       6.365  -1.488  -1.081  0.00  0.00    +0.140 C 
ATOM     10  C   UNL     1       7.390  -2.035  -0.065  0.00  0.00    +0.035 C 
ATOM     11  C   UNL     1       8.418  -2.748  -0.986  0.00  0.00    +0.031 C 
ATOM     12  C   UNL     1       8.386  -1.826  -2.231  0.00  0.00    +0.160 C 
ATOM     13  O   UNL     1       7.016  -1.411  -2.355  0.00  0.00    -0.375 OA
ENDBRANCH   8   9
ENDBRANCH   7   8
ENDBRANCH   2   3
BRANCH   2  15
ATOM     14  C   UNL     1       1.759  -2.408   0.439  0.00  0.00    +0.006 C 
ATOM     15  C   UNL     1       2.427  -1.727  -0.757  0.00  0.00    +0.023 C 
ENDBRANCH   2  15
ENDBRANCH   1   2
BRANCH   1  16
ATOM     16  C   UNL     1       1.888   1.746   0.554  0.00  0.00    +0.124 C 
BRANCH  16  17
ATOM     17  C   UNL     1       2.075   1.478   2.025  0.00  0.00    +0.008 A 
ATOM     18  C   UNL     1       0.973   1.348   2.849  0.00  0.00    +0.008 A 
ATOM     19  C   UNL     1       1.144   1.101   4.199  0.00  0.00    +0.001 A 
ATOM     20  C   UNL     1       2.416   0.984   4.727  0.00  0.00    +0.004 A 
ATOM     21  C   UNL     1       3.520   1.112   3.907  0.00  0.00    +0.046 A 
ATOM     22  C   UNL     1       3.352   1.354   2.552  0.00  0.00    +0.124 A 
BRANCH  22  23
ATOM     23  O   UNL     1       4.437   1.476   1.742  0.00  0.00    -0.495 OA
ATOM     24  C   UNL     1       5.719   1.478   2.372  0.00  0.00    +0.277 C 
ENDBRANCH  22  23
ENDBRANCH  16  17
ENDBRANCH   1  16
BRANCH   1  25
ATOM     25  C   UNL     1       0.859   0.738  -1.393  0.00  0.00    +0.126 C 
BRANCH  25  26
ATOM     26  C   UNL     1      -0.548   1.182  -1.082  0.00  0.00    +0.031 A 
ATOM     27  C   UNL     1      -0.842   2.504  -1.024  0.00  0.00    +0.020 A 
ATOM     28  C   UNL     1      -2.217   2.902  -0.719  0.00  0.00    -0.001 A 
ATOM     29  C   UNL     1      -2.581   4.250  -0.646  0.00  0.00    +0.013 A 
ATOM     30  C   UNL     1      -3.874   4.589  -0.360  0.00  0.00    -0.047 A 
ATOM     31  C   UNL     1      -4.829   3.606  -0.141  0.00  0.00    -0.046 A 
ATOM     32  C   UNL     1      -4.493   2.271  -0.208  0.00  0.00    +0.030 A 
ATOM     33  C   UNL     1      -3.184   1.902  -0.498  0.00  0.00    +0.049 A 
ATOM     34  N   UNL     1      -2.821   0.575  -0.577  0.00  0.00    -0.322 N 
ATOM     35  H   UNL     1      -3.573  -0.211  -0.415  0.00  0.00    +0.169 HD
ATOM     36  C   UNL     1      -1.554   0.219  -0.852  0.00  0.00    +0.254 A 
ATOM     37  O   UNL     1      -1.268  -0.965  -0.909  0.00  0.00    -0.268 OA
ATOM     38  C   UNL     1      -6.249   4.002   0.173  0.00  0.00    +0.044 C 
ATOM     39  C   UNL     1      -4.265   6.042  -0.282  0.00  0.00    +0.044 C 
ENDBRANCH  25  26
ENDBRANCH   1  25
TORSDOF 10
