REMARK  Name = ZINC04957288
REMARK  8 active torsions:
REMARK  status: ('A' for Active; 'I' for Inactive)
REMARK    1  A    between atoms: C_1  and  C_2
REMARK    2  A    between atoms: C_2  and  C_3
REMARK    3  A    between atoms: C_6  and  N_9
REMARK    4  A    between atoms: N_11  and  C_28
REMARK    5  A    between atoms: C_14  and  C_17
REMARK    6  A    between atoms: C_17  and  C_18
REMARK    7  A    between atoms: N_20  and  C_21
REMARK    8  A    between atoms: C_21  and  C_22
REMARK                            x       y       z     vdW  Elec       q    Type
REMARK                         _______ _______ _______ _____ _____    ______ ____
ROOT
ATOM      1  N   UNL     1      10.510  -0.877  -4.172  0.00  0.00    -0.226 NA
ATOM      2  C   UNL     1       9.526  -1.685  -3.854  0.00  0.00    +0.164 C 
ATOM      3  N   UNL     1       9.125  -2.834  -4.503  0.00  0.00    -0.253 N 
ATOM      4  C   UNL     1       8.109  -3.567  -4.079  0.00  0.00    +0.235 C 
ATOM      5  O   UNL     1       7.761  -4.577  -4.653  0.00  0.00    -0.274 OA
ATOM      6  C   UNL     1       7.407  -3.066  -2.828  0.00  0.00    +0.149 C 
ATOM      7  S   UNL     1       8.392  -1.555  -2.480  0.00  0.00    -0.077 S 
ATOM      8  C   UNL     1       9.849  -3.257  -5.703  0.00  0.00    +0.140 C 
ENDROOT
BRANCH   1  12
ATOM      9  C   UNL     1      12.516  -1.369  -7.758  0.00  0.00    -0.047 A 
ATOM     10  C   UNL     1      11.203  -0.933  -7.758  0.00  0.00    +0.006 A 
ATOM     11  C   UNL     1      10.528  -0.766  -6.566  0.00  0.00    +0.028 A 
ATOM     12  C   UNL     1      11.174  -1.040  -5.359  0.00  0.00    +0.067 A 
ATOM     13  C   UNL     1      12.501  -1.474  -5.366  0.00  0.00    +0.028 A 
ATOM     14  C   UNL     1      13.162  -1.641  -6.565  0.00  0.00    +0.006 A 
BRANCH   9  16
ATOM     15  C   UNL     1      13.948  -0.240  -9.439  0.00  0.00    +0.009 C 
ATOM     16  C   UNL     1      13.247  -1.547  -9.064  0.00  0.00    +0.032 C 
ENDBRANCH   9  16
ENDBRANCH   1  12
BRANCH   6  17
ATOM     17  C   UNL     1       5.944  -2.720  -3.115  0.00  0.00    +0.119 C 
BRANCH  17  18
ATOM     18  C   UNL     1       5.305  -2.168  -1.867  0.00  0.00    +0.215 C 
ATOM     19  O   UNL     1       5.955  -2.062  -0.848  0.00  0.00    -0.276 OA
ATOM     20  N   UNL     1       4.010  -1.792  -1.882  0.00  0.00    -0.311 N 
ATOM     21  H   UNL     1       3.421  -1.888  -2.806  0.00  0.00    +0.149 HD
BRANCH  20  22
ATOM     22  C   UNL     1       3.389  -1.256  -0.669  0.00  0.00    +0.139 C 
BRANCH  22  23
ATOM     23  C   UNL     1       1.948  -0.915  -0.951  0.00  0.00    -0.030 A 
ATOM     24  C   UNL     1       0.962  -1.865  -0.758  0.00  0.00    +0.005 A 
ATOM     25  C   UNL     1      -0.359  -1.552  -1.017  0.00  0.00    +0.000 A 
ATOM     26  C   UNL     1      -0.695  -0.290  -1.468  0.00  0.00    +0.000 A 
ATOM     27  C   UNL     1       0.291   0.660  -1.660  0.00  0.00    +0.000 A 
ATOM     28  C   UNL     1       1.612   0.347  -1.403  0.00  0.00    +0.005 A 
ENDBRANCH  22  23
ENDBRANCH  20  22
ENDBRANCH  17  18
ENDBRANCH   6  17
TORSDOF 6
