REMARK  Name = ZINC45687545
REMARK  5 active torsions:
REMARK  status: ('A' for Active; 'I' for Inactive)
REMARK    1  A    between atoms: C_1  and  C_2
REMARK    2  A    between atoms: N_5  and  C_11
REMARK    3  A    between atoms: C_7  and  C_9
REMARK    4  A    between atoms: C_7  and  C_10
REMARK    5  A    between atoms: C_14  and  N_18
REMARK                            x       y       z     vdW  Elec       q    Type
REMARK                         _______ _______ _______ _____ _____    ______ ____
ROOT
ATOM      1  C   UNL     1      -2.097  -2.852  -0.661  0.00  0.00    +0.101 A 
ATOM      2  C   UNL     1      -3.404  -3.212  -0.360  0.00  0.00    +0.149 A 
ATOM      3  C   UNL     1      -4.101  -4.057  -1.205  0.00  0.00    +0.063 A 
ATOM      4  C   UNL     1      -3.494  -4.545  -2.354  0.00  0.00    +0.030 A 
ATOM      5  C   UNL     1      -2.187  -4.186  -2.656  0.00  0.00    +0.063 A 
ATOM      6  C   UNL     1      -1.492  -3.336  -1.815  0.00  0.00    +0.149 A 
ATOM      7  F   UNL     1      -0.222  -2.982  -2.111  0.00  0.00    -0.203 F 
ATOM      8  F   UNL     1      -3.995  -2.738   0.759  0.00  0.00    -0.203 F 
ENDROOT
BRANCH   1  12
ATOM      9  C   UNL     1      -0.019   1.526   0.010  0.00  0.00    +0.039 C 
ATOM     10  C   UNL     1       0.002  -0.004   0.002  0.00  0.00    +0.133 C 
ATOM     11  C   UNL     1      -1.436  -0.536   0.015  0.00  0.00    +0.136 C 
ATOM     12  N   UNL     1      -1.389  -1.995   0.196  0.00  0.00    -0.320 N 
ATOM     13  C   UNL     1      -0.578  -2.530   1.302  0.00  0.00    +0.139 C 
ATOM     14  C   UNL     1       0.818  -1.901   1.226  0.00  0.00    +0.080 C 
ATOM     15  O   UNL     1       0.691  -0.479   1.161  0.00  0.00    -0.368 OA
ATOM     16  C   UNL     1       1.538  -2.406  -0.026  0.00  0.00    +0.043 C 
ATOM     17  C   UNL     1       1.621  -2.287   2.469  0.00  0.00    +0.043 C 
ENDBRANCH   1  12
BRANCH   4  18
ATOM     18  N   UNL     1      -4.199  -5.401  -3.208  0.00  0.00    -0.358 N 
ATOM     19  H   UNL     1      -5.112  -5.652  -2.998  0.00  0.00    +0.142 HD
ATOM     20  H   UNL     1      -3.775  -5.742  -4.011  0.00  0.00    +0.142 HD
ENDBRANCH   4  18
TORSDOF 2
