REMARK  Name = ZINC09746573
REMARK  13 active torsions:
REMARK  status: ('A' for Active; 'I' for Inactive)
REMARK    1  A    between atoms: C_1  and  C_2
REMARK    2  A    between atoms: C_5  and  C_8
REMARK    3  A    between atoms: C_8  and  N_70
REMARK    4  A    between atoms: C_11  and  C_14
REMARK    5  A    between atoms: C_14  and  N_72
REMARK    6  A    between atoms: C_15  and  C_16
REMARK    7  A    between atoms: C_15  and  N_72
REMARK    8  A    between atoms: C_17  and  C_32
REMARK    9  A    between atoms: N_18  and  C_24
REMARK   10  A    between atoms: C_19  and  C_23
REMARK   11  A    between atoms: C_20  and  C_21
REMARK   12  A    between atoms: C_24  and  C_25
REMARK   13  A    between atoms: C_29  and  C_31
REMARK                            x       y       z     vdW  Elec       q    Type
REMARK                         _______ _______ _______ _____ _____    ______ ____
ROOT
ATOM      1  C   UNL     1       0.228   7.456   5.636  0.00  0.00    -0.044 C 
ENDROOT
BRANCH   1   2
ATOM      2  C   UNL     1       0.621   6.070   5.195  0.00  0.00    -0.030 A 
ATOM      3  C   UNL     1      -0.095   4.942   5.351  0.00  0.00    +0.018 A 
ATOM      4  N   UNL     1       0.601   3.896   4.820  0.00  0.00    -0.343 N 
ATOM      5  C   UNL     1       1.775   4.320   4.317  0.00  0.00    +0.031 A 
ATOM      6  C   UNL     1       1.860   5.682   4.511  0.00  0.00    +0.085 A 
ATOM      7  C   UNL     1       2.817   3.455   3.655  0.00  0.00    +0.064 C 
ATOM      8  C   UNL     1      -1.448   4.849   6.007  0.00  0.00    +0.064 C 
BRANCH   6   9
ATOM      9  C   UNL     1       2.968   6.566   4.117  0.00  0.00    +0.388 C 
ATOM     10  O   UNL     1       3.888   6.766   4.886  0.00  0.00    -0.241 OA
ATOM     11  O   UNL     1       2.963   7.154   2.905  0.00  0.00    -0.241 OA
ENDBRANCH   6   9
BRANCH   4  12
ATOM     12  C   UNL     1       0.138   2.506   4.804  0.00  0.00    +0.157 C 
BRANCH  12  13
ATOM     13  C   UNL     1      -0.646   2.251   3.543  0.00  0.00    -0.028 A 
ATOM     14  C   UNL     1      -2.012   2.464   3.522  0.00  0.00    +0.005 A 
ATOM     15  C   UNL     1      -2.731   2.231   2.365  0.00  0.00    +0.001 A 
ATOM     16  C   UNL     1      -2.083   1.789   1.226  0.00  0.00    +0.003 A 
ATOM     17  C   UNL     1      -0.718   1.572   1.248  0.00  0.00    -0.050 A 
ATOM     18  C   UNL     1       0.001   1.806   2.405  0.00  0.00    +0.008 A 
ATOM     19  C   UNL     1      -0.013   1.086   0.008  0.00  0.00    +0.044 C 
ENDBRANCH  12  13
ENDBRANCH   4  12
ENDBRANCH   1   2
BRANCH   1  20
ATOM     20  N   UNL     1       0.715   7.683   7.010  0.00  0.00    +0.382 N 
ATOM     21  H   UNL     1       0.295   6.986   7.637  0.00  0.00    -0.085 HD
ATOM     22  H   UNL     1       1.737   7.587   7.027  0.00  0.00    -0.085 HD
BRANCH  20  23
ATOM     23  C   UNL     1       0.344   9.035   7.468  0.00  0.00    -0.079 C 
BRANCH  23  26
ATOM     24  C   UNL     1       1.054  10.865  10.780  0.00  0.00    -0.078 C 
ATOM     25  C   UNL     1       0.591  10.682   9.333  0.00  0.00    -0.017 C 
ATOM     26  C   UNL     1       0.861   9.241   8.893  0.00  0.00    -0.032 C 
ATOM     27  C   UNL     1       0.137   8.282   9.843  0.00  0.00    -0.017 C 
ATOM     28  C   UNL     1       0.614   8.534  11.275  0.00  0.00    -0.078 C 
ATOM     29  N   UNL     1       0.303   9.932  11.646  0.00  0.00    +0.382 N 
ATOM     30  H   UNL     1      -0.703  10.095  11.517  0.00  0.00    -0.081 HD
BRANCH  29  31
ATOM     31  C   UNL     1       0.650  10.167  13.062  0.00  0.00    -0.043 C 
BRANCH  31  36
ATOM     32  C   UNL     1      -2.926   7.082  16.393  0.00  0.00    +0.044 C 
ATOM     33  C   UNL     1      -1.993   7.887  15.524  0.00  0.00    -0.050 A 
ATOM     34  C   UNL     1      -0.793   7.341  15.107  0.00  0.00    +0.003 A 
ATOM     35  C   UNL     1       0.062   8.079  14.311  0.00  0.00    +0.002 A 
ATOM     36  C   UNL     1      -0.283   9.363  13.931  0.00  0.00    -0.064 A 
ATOM     37  C   UNL     1      -1.480   9.910  14.351  0.00  0.00    +0.002 A 
ATOM     38  C   UNL     1      -2.338   9.171  15.144  0.00  0.00    +0.003 A 
ENDBRANCH  31  36
ENDBRANCH  29  31
ENDBRANCH  23  26
ENDBRANCH  20  23
ENDBRANCH   1  20
TORSDOF 9
