REMARK  Name = ZINC40036242
REMARK  11 active torsions:
REMARK  status: ('A' for Active; 'I' for Inactive)
REMARK    1  A    between atoms: C_1  and  C_2
REMARK    2  A    between atoms: C_2  and  C_3
REMARK    3  A    between atoms: C_3  and  C_4
REMARK    4  A    between atoms: C_4  and  C_38
REMARK    5  A    between atoms: N_16  and  C_29
REMARK    6  A    between atoms: N_19  and  N_20
REMARK    7  A    between atoms: C_21  and  C_22
REMARK    8  A    between atoms: C_26  and  O_28
REMARK    9  A    between atoms: C_32  and  O_35
REMARK   10  A    between atoms: O_35  and  C_36
REMARK   11  A    between atoms: C_36  and  C_37
REMARK                            x       y       z     vdW  Elec       q    Type
REMARK                         _______ _______ _______ _____ _____    ______ ____
ROOT
ATOM      1  C   UNL     1      -1.131  -1.277  -0.597  0.00  0.00    +0.004 C 
ATOM      2  C   UNL     1      -2.558  -1.391  -0.066  0.00  0.00    +0.047 C 
ATOM      3  C   UNL     1      -3.525  -1.627  -1.195  0.00  0.00    -0.037 A 
ATOM      4  C   UNL     1      -4.789  -1.075  -1.159  0.00  0.00    +0.004 A 
ATOM      5  C   UNL     1      -5.673  -1.301  -2.198  0.00  0.00    +0.000 A 
ATOM      6  C   UNL     1      -5.300  -2.079  -3.280  0.00  0.00    +0.001 A 
ATOM      7  C   UNL     1      -4.037  -2.635  -3.329  0.00  0.00    +0.010 A 
ATOM      8  C   UNL     1      -3.143  -2.409  -2.286  0.00  0.00    +0.004 A 
ATOM      9  C   UNL     1      -1.780  -2.985  -2.314  0.00  0.00    +0.084 A 
ATOM     10  C   UNL     1      -0.804  -2.438  -1.492  0.00  0.00    +0.050 A 
ATOM     11  C   UNL     1       0.483  -2.989  -1.514  0.00  0.00    +0.264 A 
ATOM     12  O   UNL     1       1.367  -2.537  -0.804  0.00  0.00    -0.267 OA
ATOM     13  N   UNL     1       0.727  -4.031  -2.339  0.00  0.00    -0.248 N 
ATOM     14  C   UNL     1      -0.266  -4.526  -3.131  0.00  0.00    +0.223 A 
ATOM     15  N   UNL     1      -1.480  -4.013  -3.114  0.00  0.00    -0.214 NA
ATOM     16  N   UNL     1       0.004  -5.581  -3.965  0.00  0.00    -0.206 N 
ATOM     17  C   UNL     1      -0.155  -1.258   0.581  0.00  0.00    +0.017 C 
ATOM     18  H   UNL     1       0.871  -6.015  -3.932  0.00  0.00    +0.177 HD
ENDROOT
BRANCH  13  19
ATOM     19  C   UNL     1       2.005  -4.605  -2.380  0.00  0.00    +0.053 A 
ATOM     20  C   UNL     1       2.954  -4.125  -3.273  0.00  0.00    +0.030 A 
ATOM     21  C   UNL     1       4.212  -4.690  -3.312  0.00  0.00    +0.047 A 
ATOM     22  C   UNL     1       4.529  -5.738  -2.461  0.00  0.00    +0.121 A 
ATOM     23  C   UNL     1       3.582  -6.219  -1.568  0.00  0.00    +0.047 A 
ATOM     24  C   UNL     1       2.325  -5.651  -1.524  0.00  0.00    +0.030 A 
BRANCH  22  25
ATOM     25  O   UNL     1       5.769  -6.295  -2.500  0.00  0.00    -0.492 OA
BRANCH  25  26
ATOM     26  C   UNL     1       6.027  -7.370  -1.595  0.00  0.00    +0.225 C 
ATOM     27  C   UNL     1       7.463  -7.863  -1.785  0.00  0.00    +0.048 C 
ENDBRANCH  25  26
ENDBRANCH  22  25
ENDBRANCH  13  19
BRANCH  16  28
ATOM     28  N   UNL     1      -0.972  -6.032  -4.863  0.00  0.00    -0.188 NA
ATOM     29  C   UNL     1      -0.716  -7.030  -5.652  0.00  0.00    +0.138 C 
BRANCH  29  30
ATOM     30  C   UNL     1      -1.743  -7.505  -6.597  0.00  0.00    -0.002 A 
ATOM     31  C   UNL     1      -2.991  -6.879  -6.650  0.00  0.00    +0.010 A 
ATOM     32  C   UNL     1      -3.949  -7.326  -7.536  0.00  0.00    +0.004 A 
ATOM     33  C   UNL     1      -3.679  -8.394  -8.373  0.00  0.00    +0.045 A 
ATOM     34  C   UNL     1      -2.443  -9.023  -8.328  0.00  0.00    +0.117 A 
ATOM     35  C   UNL     1      -1.471  -8.579  -7.447  0.00  0.00    +0.054 A 
BRANCH  34  36
ATOM     36  O   UNL     1      -2.184 -10.072  -9.152  0.00  0.00    -0.507 OA
ATOM     37  H   UNL     1      -1.803  -9.818 -10.004  0.00  0.00    +0.292 HD
ENDBRANCH  34  36
ENDBRANCH  29  30
ENDBRANCH  16  28
BRANCH   1  38
ATOM     38  C   UNL     1      -0.991   0.025  -1.389  0.00  0.00    +0.011 C 
BRANCH  38  40
ATOM     39  C   UNL     1       0.586   1.460  -2.691  0.00  0.00    +0.004 C 
ATOM     40  C   UNL     1       0.446   0.159  -1.899  0.00  0.00    -0.003 C 
ENDBRANCH  38  40
ENDBRANCH   1  38
TORSDOF 8
