REMARK  Name = ZINC04559900
REMARK  9 active torsions:
REMARK  status: ('A' for Active; 'I' for Inactive)
REMARK    1  A    between atoms: C_1  and  C_2
REMARK    2  A    between atoms: C_2  and  C_3
REMARK    3  A    between atoms: C_7  and  O_9
REMARK    4  A    between atoms: O_9  and  C_10
REMARK    5  A    between atoms: C_12  and  N_28
REMARK    6  A    between atoms: C_14  and  O_27
REMARK    7  A    between atoms: C_23  and  C_25
REMARK    8  A    between atoms: C_23  and  C_26
REMARK    9  A    between atoms: C_29  and  C_31
REMARK                            x       y       z     vdW  Elec       q    Type
REMARK                         _______ _______ _______ _____ _____    ______ ____
ROOT
ATOM      1  C   UNL     1       1.616  -2.374  -2.400  0.00  0.00    +0.331 C 
ATOM      2  C   UNL     1       3.026  -1.782  -2.461  0.00  0.00    +0.173 C 
ATOM      3  C   UNL     1       2.944  -0.251  -2.441  0.00  0.00    +0.172 C 
ATOM      4  C   UNL     1       2.175   0.176  -1.191  0.00  0.00    +0.183 C 
ATOM      5  C   UNL     1       0.783  -0.468  -1.228  0.00  0.00    +0.179 C 
ATOM      6  O   UNL     1       0.930  -1.886  -1.242  0.00  0.00    -0.332 OA
ATOM      7  C   UNL     1       0.002  -0.004   0.002  0.00  0.00    +0.197 C 
ATOM      8  O   UNL     1      -0.017   1.429   0.010  0.00  0.00    -0.347 OA
ATOM      9  C   UNL     1       1.275   2.036   0.001  0.00  0.00    +0.165 C 
ATOM     10  O   UNL     1       2.019   1.594  -1.140  0.00  0.00    -0.341 OA
ATOM     11  C   UNL     1       1.121   3.558  -0.053  0.00  0.00    +0.074 C 
ATOM     12  C   UNL     1       2.026   1.650   1.277  0.00  0.00    +0.074 C 
ENDROOT
BRANCH   2  13
ATOM     13  N   UNL     1       3.684  -2.218  -3.695  0.00  0.00    -0.304 N 
ATOM     14  C   UNL     1       4.320  -3.406  -3.736  0.00  0.00    +0.210 C 
ATOM     15  O   UNL     1       4.347  -4.114  -2.751  0.00  0.00    -0.276 OA
ATOM     16  C   UNL     1       4.997  -3.855  -5.005  0.00  0.00    +0.109 C 
ATOM     17  H   UNL     1       3.662  -1.653  -4.482  0.00  0.00    +0.149 HD
ENDBRANCH   2  13
BRANCH   3  18
ATOM     18  O   UNL     1       4.263   0.300  -2.405  0.00  0.00    -0.387 OA
ATOM     19  H   UNL     1       4.812   0.055  -3.162  0.00  0.00    +0.210 HD
ENDBRANCH   3  18
BRANCH   1  20
ATOM     20  O   UNL     1       1.702  -3.799  -2.334  0.00  0.00    -0.462 OA
BRANCH  20  25
ATOM     21  C   UNL     1      -0.619  -6.587  -2.609  0.00  0.00    -0.044 A 
ATOM     22  C   UNL     1      -1.806  -5.912  -2.826  0.00  0.00    +0.004 A 
ATOM     23  C   UNL     1      -1.820  -4.530  -2.877  0.00  0.00    +0.004 A 
ATOM     24  C   UNL     1      -0.647  -3.820  -2.708  0.00  0.00    +0.046 A 
ATOM     25  C   UNL     1       0.547  -4.495  -2.496  0.00  0.00    +0.124 A 
ATOM     26  C   UNL     1       0.557  -5.881  -2.444  0.00  0.00    +0.049 A 
BRANCH  21  28
ATOM     27  C   UNL     1      -0.834  -8.551  -1.111  0.00  0.00    +0.009 C 
ATOM     28  C   UNL     1      -0.608  -8.092  -2.553  0.00  0.00    +0.032 C 
ENDBRANCH  21  28
ENDBRANCH  20  25
ENDBRANCH   1  20
TORSDOF 5
