REMARK  Name = ZINC63506060
REMARK  6 active torsions:
REMARK  status: ('A' for Active; 'I' for Inactive)
REMARK    1  A    between atoms: C_1  and  C_2
REMARK    2  A    between atoms: C_2  and  O_3
REMARK    3  A    between atoms: O_3  and  C_4
REMARK    4  A    between atoms: C_10  and  C_15
REMARK    5  A    between atoms: C_15  and  S_16
REMARK    6  A    between atoms: S_16  and  C_17
REMARK                            x       y       z     vdW  Elec       q    Type
REMARK                         _______ _______ _______ _____ _____    ______ ____
ROOT
ATOM      1  C   UNL     1       0.777  -1.811  -1.336  0.00  0.00    +0.121 A 
ATOM      2  C   UNL     1       0.239  -2.669  -0.381  0.00  0.00    +0.049 A 
ATOM      3  C   UNL     1       0.338  -4.036  -0.530  0.00  0.00    +0.050 A 
ATOM      4  C   UNL     1       0.978  -4.569  -1.642  0.00  0.00    +0.140 A 
ATOM      5  C   UNL     1       1.521  -3.706  -2.609  0.00  0.00    +0.025 A 
ATOM      6  C   UNL     1       1.412  -2.321  -2.451  0.00  0.00    +0.057 A 
ATOM      7  C   UNL     1       2.194  -4.281  -3.778  0.00  0.00    -0.020 A 
ATOM      8  C   UNL     1       2.264  -5.633  -3.877  0.00  0.00    +0.097 A 
ATOM      9  C   UNL     1       1.696  -6.440  -2.868  0.00  0.00    +0.338 A 
ATOM     10  O   UNL     1       1.765  -7.652  -2.968  0.00  0.00    -0.245 OA
ATOM     11  O   UNL     1       1.082  -5.907  -1.801  0.00  0.00    -0.422 OA
ENDROOT
BRANCH   1  12
ATOM     12  O   UNL     1       0.671  -0.465  -1.174  0.00  0.00    -0.492 OA
BRANCH  12  14
ATOM     13  C   UNL     1      -0.019   1.526   0.010  0.00  0.00    +0.048 C 
ATOM     14  C   UNL     1       0.002  -0.004   0.002  0.00  0.00    +0.225 C 
ENDBRANCH  12  14
ENDBRANCH   1  12
BRANCH   7  15
ATOM     15  C   UNL     1       2.791  -3.396  -4.841  0.00  0.00    +0.108 C 
BRANCH  15  16
ATOM     16  S   UNL     1       1.464  -2.697  -5.862  0.00  0.00    -0.114 S 
BRANCH  16  17
ATOM     17  C   UNL     1       2.338  -1.670  -7.075  0.00  0.00    +0.234 C 
ATOM     18  N   UNL     1       3.267  -2.507  -7.864  0.00  0.00    -0.260 NA
ATOM     19  C   UNL     1       4.603  -2.054  -7.467  0.00  0.00    +0.223 C 
ATOM     20  C   UNL     1       4.383  -0.815  -6.617  0.00  0.00    +0.078 C 
ATOM     21  N   UNL     1       3.136  -0.654  -6.384  0.00  0.00    -0.255 NA
ATOM     22  C   UNL     1       5.529   0.053  -6.273  0.00  0.00    +0.028 C 
ATOM     23  C   UNL     1       6.493   0.074  -7.241  0.00  0.00    +0.021 C 
ATOM     24  C   UNL     1       6.283  -0.681  -8.478  0.00  0.00    +0.107 C 
ATOM     25  N   UNL     1       5.441  -1.672  -8.602  0.00  0.00    -0.266 NA
ATOM     26  H   UNL     1       3.139  -3.486  -7.654  0.00  0.00    +0.127 HD
ENDBRANCH  16  17
ENDBRANCH  15  16
ENDBRANCH   7  15
TORSDOF 5
