REMARK  Name = ZINC24752823
REMARK  7 active torsions:
REMARK  status: ('A' for Active; 'I' for Inactive)
REMARK    1  A    between atoms: C_1  and  C_2
REMARK    2  A    between atoms: C_5  and  C_8
REMARK    3  A    between atoms: C_10  and  C_13
REMARK    4  A    between atoms: C_13  and  N_14
REMARK    5  A    between atoms: C_18  and  S_25
REMARK    6  A    between atoms: C_22  and  C_24
REMARK    7  A    between atoms: S_25  and  N_28
REMARK                            x       y       z     vdW  Elec       q    Type
REMARK                         _______ _______ _______ _____ _____    ______ ____
ROOT
ATOM      1  N   UNL     1      -6.223   2.905   7.390  0.00  0.00    -0.318 N 
ATOM      2  C   UNL     1      -5.577   2.557   8.583  0.00  0.00    +0.034 A 
ATOM      3  C   UNL     1      -4.986   3.368   9.550  0.00  0.00    +0.025 A 
ATOM      4  C   UNL     1      -4.404   2.804  10.667  0.00  0.00    +0.030 A 
ATOM      5  C   UNL     1      -4.403   1.431  10.835  0.00  0.00    +0.105 A 
ATOM      6  C   UNL     1      -4.985   0.620   9.878  0.00  0.00    +0.034 A 
ATOM      7  C   UNL     1      -5.565   1.178   8.758  0.00  0.00    -0.023 A 
ATOM      8  C   UNL     1      -6.251   0.549   7.561  0.00  0.00    +0.059 C 
ATOM      9  C   UNL     1      -6.269   1.702   6.531  0.00  0.00    +0.075 C 
ATOM     10  C   UNL     1      -5.039   1.637   5.623  0.00  0.00    +0.028 C 
ENDROOT
BRANCH   5  11
ATOM     11  S   UNL     1      -3.662   0.718  12.265  0.00  0.00    +0.056 S 
ATOM     12  O   UNL     1      -3.312  -0.615  11.918  0.00  0.00    -0.153 OA
ATOM     13  O   UNL     1      -2.707   1.657  12.739  0.00  0.00    -0.153 OA
BRANCH  11  14
ATOM     14  N   UNL     1      -4.838   0.612  13.425  0.00  0.00    -0.204 NA
ATOM     15  H   UNL     1      -4.414   0.169  14.338  0.00  0.00    +0.144 HD
ATOM     16  H   UNL     1      -5.660  -0.021  13.058  0.00  0.00    +0.144 HD
ENDBRANCH  11  14
ENDBRANCH   5  11
BRANCH   1  17
ATOM     17  C   UNL     1      -5.525   4.008   6.716  0.00  0.00    +0.204 C 
BRANCH  17  20
ATOM     18  C   UNL     1      -7.602   5.162   4.019  0.00  0.00    +0.202 A 
ATOM     19  N   UNL     1      -7.297   5.142   5.336  0.00  0.00    -0.190 NA
ATOM     20  C   UNL     1      -6.253   4.359   5.444  0.00  0.00    +0.245 A 
ATOM     21  O   UNL     1      -5.954   3.931   4.214  0.00  0.00    -0.336 OA
ATOM     22  N   UNL     1      -6.736   4.394   3.411  0.00  0.00    -0.056 NA
BRANCH  18  27
ATOM     23  C   UNL     1     -11.918   8.070   1.552  0.00  0.00    +0.044 C 
ATOM     24  C   UNL     1     -10.790   7.309   2.197  0.00  0.00    -0.050 A 
ATOM     25  C   UNL     1     -10.597   7.389   3.565  0.00  0.00    +0.004 A 
ATOM     26  C   UNL     1      -9.568   6.690   4.162  0.00  0.00    +0.012 A 
ATOM     27  C   UNL     1      -8.715   5.911   3.383  0.00  0.00    +0.022 A 
ATOM     28  C   UNL     1      -8.910   5.837   2.006  0.00  0.00    +0.012 A 
ATOM     29  C   UNL     1      -9.946   6.536   1.420  0.00  0.00    +0.004 A 
ENDBRANCH  18  27
ENDBRANCH  17  20
ENDBRANCH   1  17
TORSDOF 5
