REMARK  Name = ZINC06784643
REMARK  7 active torsions:
REMARK  status: ('A' for Active; 'I' for Inactive)
REMARK    1  A    between atoms: C_1  and  C_2
REMARK    2  A    between atoms: C_5  and  S_9
REMARK    3  A    between atoms: C_7  and  C_8
REMARK    4  A    between atoms: S_9  and  N_12
REMARK    5  A    between atoms: N_12  and  C_13
REMARK    6  A    between atoms: C_14  and  N_24
REMARK    7  A    between atoms: N_24  and  C_25
REMARK                            x       y       z     vdW  Elec       q    Type
REMARK                         _______ _______ _______ _____ _____    ______ ____
ROOT
ATOM      1  C   UNL     1      -1.366  -2.040  -2.843  0.00  0.00    +0.154 A 
ATOM      2  C   UNL     1      -0.499  -1.286  -3.613  0.00  0.00    +0.067 A 
ATOM      3  C   UNL     1       0.622  -1.980  -4.266  0.00  0.00    +0.040 A 
ATOM      4  C   UNL     1       1.536  -1.282  -5.058  0.00  0.00    +0.013 A 
ATOM      5  C   UNL     1       2.575  -1.960  -5.656  0.00  0.00    +0.001 A 
ATOM      6  C   UNL     1       2.716  -3.328  -5.473  0.00  0.00    +0.004 A 
ATOM      7  C   UNL     1       1.821  -4.028  -4.693  0.00  0.00    +0.047 A 
ATOM      8  C   UNL     1       0.765  -3.364  -4.081  0.00  0.00    +0.141 A 
ATOM      9  O   UNL     1      -0.119  -4.038  -3.314  0.00  0.00    -0.421 OA
ATOM     10  C   UNL     1      -1.146  -3.423  -2.706  0.00  0.00    +0.362 A 
ATOM     11  O   UNL     1      -1.910  -4.080  -2.022  0.00  0.00    -0.243 OA
ENDROOT
BRANCH   2  12
ATOM     12  N   UNL     1      -0.682   0.077  -3.766  0.00  0.00    -0.345 N 
ATOM     13  C   UNL     1      -0.202   0.808  -2.585  0.00  0.00    +0.125 C 
ATOM     14  H   UNL     1      -1.648   0.293  -3.957  0.00  0.00    +0.146 HD
ENDBRANCH   2  12
BRANCH   1  15
ATOM     15  N   UNL     1      -2.455  -1.428  -2.196  0.00  0.00    -0.208 N 
ATOM     16  H   UNL     1      -3.091  -0.904  -2.707  0.00  0.00    +0.174 HD
BRANCH  15  17
ATOM     17  S   UNL     1      -2.651  -1.603  -0.561  0.00  0.00    +0.073 S 
ATOM     18  O   UNL     1      -2.524  -2.991  -0.282  0.00  0.00    -0.150 OA
ATOM     19  O   UNL     1      -3.809  -0.859  -0.209  0.00  0.00    -0.150 OA
BRANCH  17  24
ATOM     20  C   UNL     1       2.027   1.127   2.099  0.00  0.00    +0.044 C 
ATOM     21  C   UNL     1       0.858   0.445   1.435  0.00  0.00    -0.047 A 
ATOM     22  C   UNL     1       0.985  -0.853   0.977  0.00  0.00    +0.005 A 
ATOM     23  C   UNL     1      -0.087  -1.479   0.367  0.00  0.00    +0.029 A 
ATOM     24  C   UNL     1      -1.285  -0.806   0.216  0.00  0.00    +0.109 A 
ATOM     25  C   UNL     1      -1.412   0.492   0.674  0.00  0.00    +0.032 A 
ATOM     26  C   UNL     1      -0.340   1.117   1.284  0.00  0.00    -0.046 A 
ATOM     27  C   UNL     1      -0.478   2.533   1.783  0.00  0.00    +0.044 C 
ENDBRANCH  17  24
ENDBRANCH  15  17
ENDBRANCH   1  15
TORSDOF 4
