REMARK  Name = ZINC39695959
REMARK  9 active torsions:
REMARK  status: ('A' for Active; 'I' for Inactive)
REMARK    1  A    between atoms: C_1  and  C_2
REMARK    2  A    between atoms: C_2  and  C_3
REMARK    3  A    between atoms: C_6  and  C_9
REMARK    4  A    between atoms: C_9  and  C_11
REMARK    5  A    between atoms: C_9  and  N_12
REMARK    6  A    between atoms: C_13  and  C_15
REMARK    7  A    between atoms: C_26  and  C_28
REMARK    8  A    between atoms: C_33  and  O_34
REMARK    9  A    between atoms: O_34  and  C_35
REMARK                            x       y       z     vdW  Elec       q    Type
REMARK                         _______ _______ _______ _____ _____    ______ ____
ROOT
ATOM      1  C   UNL     1       2.465  -0.461   8.201  0.00  0.00    +0.100 C 
ATOM      2  C   UNL     1       2.254   1.048   7.939  0.00  0.00    +0.121 C 
ATOM      3  N   UNL     1       2.618   1.704   9.217  0.00  0.00    -0.296 N 
ATOM      4  C   UNL     1       3.798   0.946   9.698  0.00  0.00    +0.115 C 
ATOM      5  C   UNL     1       3.479  -0.523   9.356  0.00  0.00    -0.004 C 
ATOM      6  C   UNL     1       4.746  -1.246   8.908  0.00  0.00    -0.010 C 
ATOM      7  C   UNL     1       5.715  -1.347  10.089  0.00  0.00    -0.082 C 
ATOM      8  N   UNL     1       5.074  -2.076  11.190  0.00  0.00    +0.379 N 
ATOM      9  C   UNL     1       3.910  -1.327  11.676  0.00  0.00    -0.082 C 
ATOM     10  C   UNL     1       2.864  -1.225  10.562  0.00  0.00    -0.010 C 
ATOM     11  C   UNL     1       2.012   2.753   9.809  0.00  0.00    +0.250 C 
ATOM     12  O   UNL     1       0.989   3.209   9.337  0.00  0.00    -0.270 OA
ATOM     13  H   UNL     1       4.776  -2.983  10.862  0.00  0.00    -0.086 HD
ATOM     14  H   UNL     1       5.736  -2.195  11.943  0.00  0.00    -0.086 HD
ENDROOT
BRANCH  11  15
ATOM     15  C   UNL     1       2.592   3.348  11.028  0.00  0.00    +0.078 A 
ATOM     16  C   UNL     1       3.978   3.407  11.190  0.00  0.00    +0.017 A 
ATOM     17  C   UNL     1       4.513   3.964  12.331  0.00  0.00    +0.001 A 
ATOM     18  C   UNL     1       3.683   4.466  13.320  0.00  0.00    +0.004 A 
ATOM     19  C   UNL     1       2.311   4.414  13.172  0.00  0.00    +0.046 A 
ATOM     20  C   UNL     1       1.755   3.861  12.028  0.00  0.00    +0.132 A 
BRANCH  20  21
ATOM     21  O   UNL     1       0.408   3.814  11.879  0.00  0.00    -0.494 OA
ATOM     22  C   UNL     1      -0.382   4.357  12.940  0.00  0.00    +0.277 C 
ENDBRANCH  20  21
ENDBRANCH  11  15
BRANCH   1  24
ATOM     23  N   UNL     1       2.901  -2.467   6.822  0.00  0.00    -0.308 N 
ATOM     24  C   UNL     1       3.024  -1.133   6.974  0.00  0.00    +0.219 C 
ATOM     25  O   UNL     1       3.585  -0.475   6.125  0.00  0.00    -0.275 OA
ATOM     26  H   UNL     1       2.452  -2.993   7.501  0.00  0.00    +0.149 HD
BRANCH  23  27
ATOM     27  C   UNL     1       3.445  -3.120   5.629  0.00  0.00    +0.100 C 
ATOM     28  C   UNL     1       4.927  -3.430   5.848  0.00  0.00    +0.033 C 
BRANCH  27  32
ATOM     29  C   UNL     1       1.324  -6.757   4.905  0.00  0.00    -0.048 A 
ATOM     30  C   UNL     1       1.684  -5.945   3.846  0.00  0.00    +0.004 A 
ATOM     31  C   UNL     1       2.371  -4.768   4.080  0.00  0.00    +0.006 A 
ATOM     32  C   UNL     1       2.696  -4.403   5.373  0.00  0.00    -0.027 A 
ATOM     33  C   UNL     1       2.334  -5.215   6.432  0.00  0.00    +0.006 A 
ATOM     34  C   UNL     1       1.644  -6.390   6.199  0.00  0.00    +0.004 A 
BRANCH  29  36
ATOM     35  C   UNL     1      -0.929  -7.766   4.673  0.00  0.00    +0.009 C 
ATOM     36  C   UNL     1       0.576  -8.040   4.650  0.00  0.00    +0.032 C 
ENDBRANCH  29  36
ENDBRANCH  27  32
ENDBRANCH  23  27
ENDBRANCH   1  24
TORSDOF 6
