REMARK  Name = ZINC12503183
REMARK  8 active torsions:
REMARK  status: ('A' for Active; 'I' for Inactive)
REMARK    1  A    between atoms: C_1  and  C_2
REMARK    2  A    between atoms: C_7  and  O_8
REMARK    3  A    between atoms: O_8  and  C_9
REMARK    4  A    between atoms: C_9  and  C_10
REMARK    5  A    between atoms: N_12  and  C_13
REMARK    6  A    between atoms: C_13  and  N_15
REMARK    7  A    between atoms: N_15  and  N_16
REMARK    8  A    between atoms: C_17  and  C_19
REMARK                            x       y       z     vdW  Elec       q    Type
REMARK                         _______ _______ _______ _____ _____    ______ ____
ROOT
ATOM      1  C   UNL     1       2.369   1.025  -0.015  0.00  0.00    +0.153 C 
ATOM      2  S   UNL     1       3.840   1.901  -0.024  0.00  0.00    -0.017 S 
ENDROOT
BRANCH   1   5
ATOM      3  C   UNL     1       3.563  -0.981  -0.037  0.00  0.00    +0.256 C 
ATOM      4  O   UNL     1       4.605  -0.360  -0.044  0.00  0.00    -0.272 OA
ATOM      5  N   UNL     1       2.387  -0.323  -0.022  0.00  0.00    -0.264 N 
ATOM      6  H   UNL     1       1.554  -0.819  -0.017  0.00  0.00    +0.157 HD
BRANCH   3   7
ATOM      7  C   UNL     1       3.584  -2.487  -0.045  0.00  0.00    +0.325 C 
BRANCH   7   8
ATOM      8  O   UNL     1       4.937  -2.946  -0.061  0.00  0.00    -0.483 OA
BRANCH   8  15
ATOM      9  C   UNL     1       7.606  -3.872  -0.091  0.00  0.00    +0.047 C 
ATOM     10  C   UNL     1       6.422  -4.804  -0.085  0.00  0.00    -0.009 A 
ATOM     11  C   UNL     1       6.619  -6.172  -0.094  0.00  0.00    +0.007 A 
ATOM     12  C   UNL     1       5.533  -7.027  -0.089  0.00  0.00    +0.000 A 
ATOM     13  C   UNL     1       4.248  -6.518  -0.073  0.00  0.00    +0.004 A 
ATOM     14  C   UNL     1       4.046  -5.151  -0.059  0.00  0.00    +0.046 A 
ATOM     15  C   UNL     1       5.133  -4.290  -0.070  0.00  0.00    +0.124 A 
ENDBRANCH   8  15
ENDBRANCH   7   8
ENDBRANCH   3   7
ENDBRANCH   1   5
BRANCH   1  16
ATOM     16  N   UNL     1       1.193   1.683  -0.000  0.00  0.00    -0.245 N 
ATOM     17  H   UNL     1       1.179   2.653   0.005  0.00  0.00    +0.172 HD
BRANCH  16  18
ATOM     18  N   UNL     1      -0.011   0.966   0.007  0.00  0.00    -0.231 N 
ATOM     19  C   UNL     1      -1.187   1.624   0.017  0.00  0.00    +0.261 C 
ATOM     20  O   UNL     1      -1.204   2.839   0.023  0.00  0.00    -0.269 OA
ATOM     21  H   UNL     1       0.002  -0.004   0.002  0.00  0.00    +0.173 HD
BRANCH  19  22
ATOM     22  C   UNL     1      -2.457   0.867   0.018  0.00  0.00    +0.051 A 
ATOM     23  C   UNL     1      -2.442  -0.528   0.005  0.00  0.00    +0.014 A 
ATOM     24  C   UNL     1      -3.630  -1.228   0.011  0.00  0.00    +0.001 A 
ATOM     25  C   UNL     1      -4.837  -0.550   0.021  0.00  0.00    +0.001 A 
ATOM     26  C   UNL     1      -4.860   0.833   0.029  0.00  0.00    +0.015 A 
ATOM     27  C   UNL     1      -3.678   1.546   0.028  0.00  0.00    +0.026 A 
ATOM     28  I   UNL     1      -3.714   3.640   0.040  0.00  0.00    -0.043 I 
ENDBRANCH  19  22
ENDBRANCH  16  18
ENDBRANCH   1  16
TORSDOF 7
