REMARK  Name = ZINC09360300
REMARK  15 active torsions:
REMARK  status: ('A' for Active; 'I' for Inactive)
REMARK    1  A    between atoms: C_1  and  C_2
REMARK    2  A    between atoms: C_2  and  N_64
REMARK    3  A    between atoms: C_3  and  C_4
REMARK    4  A    between atoms: C_3  and  N_64
REMARK    5  A    between atoms: C_5  and  C_6
REMARK    6  A    between atoms: C_5  and  N_64
REMARK    7  A    between atoms: C_6  and  N_7
REMARK    8  A    between atoms: C_8  and  C_28
REMARK    9  A    between atoms: C_11  and  C_12
REMARK   10  A    between atoms: C_11  and  O_23
REMARK   11  A    between atoms: C_15  and  O_18
REMARK   12  A    between atoms: O_18  and  C_19
REMARK   13  A    between atoms: C_19  and  C_20
REMARK   14  A    between atoms: C_20  and  C_21
REMARK   15  A    between atoms: C_20  and  C_22
REMARK                            x       y       z     vdW  Elec       q    Type
REMARK                         _______ _______ _______ _____ _____    ______ ____
ROOT
ATOM      1  N   UNL     1      -0.303  -9.128   0.309  0.00  0.00    -0.285 N 
ATOM      2  C   UNL     1       0.533  -8.923   1.496  0.00  0.00    +0.151 C 
ATOM      3  C   UNL     1       0.688  -7.430   1.664  0.00  0.00    +0.072 C 
ATOM      4  C   UNL     1       1.395  -6.774   2.654  0.00  0.00    +0.133 C 
ATOM      5  C   UNL     1      -0.026  -6.842   0.609  0.00  0.00    +0.249 C 
ATOM      6  O   UNL     1      -0.137  -5.648   0.399  0.00  0.00    -0.282 OA
ATOM      7  C   UNL     1      -0.626  -7.931  -0.208  0.00  0.00    +0.288 C 
ATOM      8  O   UNL     1      -1.309  -7.763  -1.198  0.00  0.00    -0.266 OA
ENDROOT
BRANCH   4   9
ATOM      9  C   UNL     1       1.384  -5.305   2.715  0.00  0.00    +0.017 A 
ATOM     10  C   UNL     1       0.170  -4.609   2.677  0.00  0.00    +0.015 A 
ATOM     11  C   UNL     1       0.166  -3.234   2.734  0.00  0.00    +0.046 A 
ATOM     12  C   UNL     1       1.365  -2.536   2.829  0.00  0.00    +0.121 A 
ATOM     13  C   UNL     1       2.574  -3.222   2.862  0.00  0.00    +0.046 A 
ATOM     14  C   UNL     1       2.589  -4.597   2.811  0.00  0.00    +0.015 A 
BRANCH  12  15
ATOM     15  O   UNL     1       1.355  -1.180   2.885  0.00  0.00    -0.492 OA
BRANCH  15  16
ATOM     16  C   UNL     1       2.622  -0.526   2.982  0.00  0.00    +0.232 C 
BRANCH  16  17
ATOM     17  C   UNL     1       2.412   0.989   3.034  0.00  0.00    +0.020 C 
ATOM     18  C   UNL     1       3.756   1.683   3.263  0.00  0.00    +0.010 C 
ATOM     19  C   UNL     1       1.811   1.465   1.710  0.00  0.00    +0.010 C 
ENDBRANCH  16  17
ENDBRANCH  15  16
ENDBRANCH  12  15
ENDBRANCH   4   9
BRANCH   2  20
ATOM     20  C   UNL     1       1.883  -9.562   1.295  0.00  0.00    +0.015 A 
ATOM     21  C   UNL     1       2.650 -10.236   2.187  0.00  0.00    +0.013 A 
ATOM     22  C   UNL     1       3.869 -10.742   1.776  0.00  0.00    +0.008 A 
ATOM     23  C   UNL     1       4.261 -10.550   0.493  0.00  0.00    +0.045 A 
ATOM     24  S   UNL     1       2.885  -9.634  -0.181  0.00  0.00    -0.099 S 
ENDBRANCH   2  20
BRANCH   4  25
ATOM     25  O   UNL     1       2.095  -7.483   3.565  0.00  0.00    -0.506 OA
ATOM     26  H   UNL     1       2.543  -6.856   4.202  0.00  0.00    +0.292 HD
ENDBRANCH   4  25
BRANCH   1  27
ATOM     27  C   UNL     1      -0.715 -10.427  -0.228  0.00  0.00    +0.090 C 
BRANCH  27  28
ATOM     28  C   UNL     1       0.326 -10.916  -1.236  0.00  0.00    -0.060 C 
BRANCH  28  29
ATOM     29  N   UNL     1      -0.114 -12.216  -1.784  0.00  0.00    +0.380 N 
ATOM     30  H   UNL     1      -1.079 -12.125  -2.123  0.00  0.00    -0.082 HD
BRANCH  29  32
ATOM     31  C   UNL     1       0.348 -11.806  -4.149  0.00  0.00    -0.017 C 
ATOM     32  C   UNL     1       0.756 -12.609  -2.913  0.00  0.00    -0.082 C 
ENDBRANCH  29  32
BRANCH  29  33
ATOM     33  C   UNL     1      -0.071 -13.250  -0.729  0.00  0.00    -0.082 C 
ATOM     34  C   UNL     1      -0.868 -14.467  -1.201  0.00  0.00    -0.017 C 
ENDBRANCH  29  33
ENDBRANCH  28  29
ENDBRANCH  27  28
ENDBRANCH   1  27
TORSDOF 11
