REMARK  Name = ZINC41512476
REMARK  9 active torsions:
REMARK  status: ('A' for Active; 'I' for Inactive)
REMARK    1  A    between atoms: C_1  and  C_2
REMARK    2  A    between atoms: N_7  and  C_9
REMARK    3  A    between atoms: C_9  and  C_10
REMARK    4  A    between atoms: C_11  and  O_31
REMARK    5  A    between atoms: C_18  and  C_19
REMARK    6  A    between atoms: C_22  and  C_25
REMARK    7  A    between atoms: C_25  and  C_26
REMARK    8  A    between atoms: C_25  and  C_27
REMARK    9  A    between atoms: C_25  and  C_28
REMARK                            x       y       z     vdW  Elec       q    Type
REMARK                         _______ _______ _______ _____ _____    ______ ____
ROOT
ATOM      1  C   UNL     1       1.624  -3.979   2.251  0.00  0.00    +0.020 A 
ATOM      2  C   UNL     1       0.802  -4.759   3.050  0.00  0.00    +0.122 A 
ATOM      3  C   UNL     1       1.114  -6.092   3.299  0.00  0.00    +0.046 A 
ATOM      4  C   UNL     1       2.239  -6.647   2.756  0.00  0.00    +0.019 A 
ATOM      5  C   UNL     1       3.075  -5.874   1.950  0.00  0.00    +0.068 A 
ATOM      6  C   UNL     1       2.768  -4.529   1.687  0.00  0.00    +0.144 A 
ATOM      7  O   UNL     1       3.712  -3.994   0.883  0.00  0.00    -0.451 OA
ATOM      8  C   UNL     1       4.670  -4.896   0.561  0.00  0.00    +0.176 C 
ATOM      9  C   UNL     1       5.750  -4.670  -0.226  0.00  0.00    +0.058 C 
ATOM     10  C   UNL     1       4.330  -6.162   1.232  0.00  0.00    +0.231 C 
ATOM     11  O   UNL     1       4.942  -7.214   1.192  0.00  0.00    -0.283 OA
ENDROOT
BRANCH   9  12
ATOM     12  C   UNL     1       6.614  -5.790  -0.627  0.00  0.00    -0.021 A 
ATOM     13  C   UNL     1       6.050  -7.023  -0.976  0.00  0.00    +0.008 A 
ATOM     14  C   UNL     1       6.867  -8.068  -1.351  0.00  0.00    +0.005 A 
ATOM     15  C   UNL     1       8.241  -7.902  -1.382  0.00  0.00    -0.042 A 
ATOM     16  C   UNL     1       8.806  -6.686  -1.038  0.00  0.00    +0.005 A 
ATOM     17  C   UNL     1       8.003  -5.628  -0.667  0.00  0.00    +0.008 A 
BRANCH  15  18
ATOM     18  C   UNL     1       9.126  -9.050  -1.793  0.00  0.00    -0.013 C 
ATOM     19  C   UNL     1       8.771  -9.483  -3.217  0.00  0.00    +0.015 C 
ATOM     20  C   UNL     1      10.590  -8.608  -1.744  0.00  0.00    +0.015 C 
ATOM     21  C   UNL     1       8.915 -10.224  -0.835  0.00  0.00    +0.015 C 
ENDBRANCH  15  18
ENDBRANCH   9  12
BRANCH   2  22
ATOM     22  O   UNL     1      -0.318  -4.217   3.594  0.00  0.00    -0.506 OA
ATOM     23  H   UNL     1      -1.105  -4.302   3.039  0.00  0.00    +0.292 HD
ENDBRANCH   2  22
BRANCH   1  24
ATOM     24  C   UNL     1       1.273  -2.537   1.990  0.00  0.00    -0.036 C 
BRANCH  24  30
ATOM     25  C   UNL     1      -0.864   0.534  -1.166  0.00  0.00    +0.005 C 
ATOM     26  C   UNL     1      -0.619  -0.938  -0.829  0.00  0.00    -0.031 C 
ATOM     27  C   UNL     1      -1.962  -1.649  -0.638  0.00  0.00    -0.001 C 
ATOM     28  C   UNL     1      -1.705  -3.101  -0.224  0.00  0.00    -0.018 C 
ATOM     29  C   UNL     1      -0.852  -3.120   1.047  0.00  0.00    -0.078 C 
ATOM     30  N   UNL     1       0.428  -2.448   0.792  0.00  0.00    +0.383 N 
ATOM     31  C   UNL     1       0.194  -1.037   0.464  0.00  0.00    -0.075 C 
ATOM     32  H   UNL     1       0.894  -2.899   0.019  0.00  0.00    -0.081 HD
ENDBRANCH  24  30
ENDBRANCH   1  24
TORSDOF 5
