REMARK  Name = ZINC23635381
REMARK  8 active torsions:
REMARK  status: ('A' for Active; 'I' for Inactive)
REMARK    1  A    between atoms: C_1  and  C_2
REMARK    2  A    between atoms: C_3  and  C_7
REMARK    3  A    between atoms: C_10  and  S_18
REMARK    4  A    between atoms: N_11  and  C_12
REMARK    5  A    between atoms: S_18  and  C_19
REMARK    6  A    between atoms: C_19  and  C_20
REMARK    7  A    between atoms: N_25  and  C_26
REMARK    8  A    between atoms: C_32  and  C_34
REMARK                            x       y       z     vdW  Elec       q    Type
REMARK                         _______ _______ _______ _____ _____    ______ ____
ROOT
ATOM      1  C   UNL     1      -2.740  -0.190 -11.633  0.00  0.00    +0.173 A 
ATOM      2  N   UNL     1      -3.062   0.686 -10.711  0.00  0.00    -0.128 NA
ATOM      3  N   UNL     1      -2.504   0.377  -9.595  0.00  0.00    -0.122 NA
ATOM      4  C   UNL     1      -1.784  -0.712  -9.736  0.00  0.00    +0.197 A 
ATOM      5  N   UNL     1      -1.911  -1.115 -11.039  0.00  0.00    -0.270 N 
ENDROOT
BRANCH   1   8
ATOM      6  C   UNL     1      -4.640   1.912 -12.976  0.00  0.00    +0.087 C 
ATOM      7  C   UNL     1      -4.007   0.718 -13.643  0.00  0.00    +0.112 A 
ATOM      8  C   UNL     1      -3.184  -0.185 -13.044  0.00  0.00    +0.060 A 
ATOM      9  C   UNL     1      -2.834  -1.157 -14.087  0.00  0.00    +0.053 A 
ATOM     10  C   UNL     1      -3.465  -0.750 -15.201  0.00  0.00    +0.196 A 
ATOM     11  O   UNL     1      -4.157   0.367 -14.928  0.00  0.00    -0.467 OA
ENDBRANCH   1   8
BRANCH   5  12
ATOM     12  C   UNL     1      -1.320  -2.235 -11.642  0.00  0.00    +0.051 A 
ATOM     13  C   UNL     1      -0.387  -2.068 -12.656  0.00  0.00    +0.026 A 
ATOM     14  C   UNL     1       0.199  -3.173 -13.243  0.00  0.00    +0.002 A 
ATOM     15  C   UNL     1      -0.154  -4.444 -12.830  0.00  0.00    +0.000 A 
ATOM     16  C   UNL     1      -1.088  -4.614 -11.825  0.00  0.00    +0.002 A 
ATOM     17  C   UNL     1      -1.671  -3.513 -11.229  0.00  0.00    +0.026 A 
ENDBRANCH   5  12
BRANCH   4  18
ATOM     18  S   UNL     1      -0.837  -1.510  -8.482  0.00  0.00    -0.076 S 
BRANCH  18  19
ATOM     19  C   UNL     1      -1.169  -0.405  -7.088  0.00  0.00    +0.173 C 
BRANCH  19  20
ATOM     20  C   UNL     1      -0.441  -0.904  -5.867  0.00  0.00    +0.231 C 
ATOM     21  O   UNL     1       0.237  -1.907  -5.933  0.00  0.00    -0.274 OA
ATOM     22  N   UNL     1      -0.541  -0.235  -4.701  0.00  0.00    -0.239 N 
ATOM     23  C   UNL     1       0.111  -0.681  -3.609  0.00  0.00    +0.306 C 
ATOM     24  O   UNL     1       0.789  -1.687  -3.676  0.00  0.00    -0.252 OA
ATOM     25  N   UNL     1       0.010  -0.012  -2.444  0.00  0.00    -0.296 N 
ATOM     26  H   UNL     1      -1.156   0.676  -4.641  0.00  0.00    +0.159 HD
ATOM     27  H   UNL     1      -0.605   0.898  -2.384  0.00  0.00    +0.151 HD
BRANCH  25  28
ATOM     28  C   UNL     1       0.718  -0.497  -1.257  0.00  0.00    +0.077 C 
ATOM     29  C   UNL     1       2.154   0.032  -1.268  0.00  0.00    +0.022 C 
ATOM     30  C   UNL     1       2.133   1.562  -1.259  0.00  0.00    +0.002 C 
ATOM     31  C   UNL     1       1.417   2.055  -0.000  0.00  0.00    +0.000 C 
ATOM     32  C   UNL     1      -0.019   1.526   0.010  0.00  0.00    +0.005 C 
ATOM     33  C   UNL     1       0.002  -0.004   0.002  0.00  0.00    +0.006 C 
ATOM     34  C   UNL     1      -1.433  -0.534   0.013  0.00  0.00    +0.009 C 
ENDBRANCH  25  28
ENDBRANCH  19  20
ENDBRANCH  18  19
ENDBRANCH   4  18
TORSDOF 6
