REMARK  Name = ZINC51352319
REMARK  7 active torsions:
REMARK  status: ('A' for Active; 'I' for Inactive)
REMARK    1  A    between atoms: C_1  and  C_2
REMARK    2  A    between atoms: C_2  and  C_20
REMARK    3  A    between atoms: N_5  and  C_9
REMARK    4  A    between atoms: C_9  and  C_10
REMARK    5  A    between atoms: C_10  and  C_12
REMARK    6  A    between atoms: C_10  and  O_19
REMARK    7  A    between atoms: C_24  and  N_26
REMARK                            x       y       z     vdW  Elec       q    Type
REMARK                         _______ _______ _______ _____ _____    ______ ____
ROOT
ATOM      1  C   UNL     1      -0.019   1.526   0.010  0.00  0.00    +0.047 C 
ATOM      2  C   UNL     1       0.002  -0.004   0.002  0.00  0.00    +0.135 C 
ATOM      3  C   UNL     1       0.815  -0.520  -1.169  0.00  0.00    +0.251 C 
ATOM      4  O   UNL     1       0.595  -0.342  -2.348  0.00  0.00    -0.272 OA
ATOM      5  N   UNL     1       1.833  -1.217  -0.627  0.00  0.00    -0.221 N 
ATOM      6  C   UNL     1       1.777  -1.214   0.710  0.00  0.00    +0.310 C 
ATOM      7  O   UNL     1       2.586  -1.776   1.421  0.00  0.00    -0.252 OA
ATOM      8  N   UNL     1       0.724  -0.519   1.178  0.00  0.00    -0.281 N 
ATOM      9  H   UNL     1       0.487  -0.383   2.109  0.00  0.00    +0.152 HD
ENDROOT
BRANCH   2  10
ATOM     10  C   UNL     1      -1.401  -0.551  -0.040  0.00  0.00    -0.013 A 
ATOM     11  C   UNL     1      -2.005  -0.815  -1.256  0.00  0.00    +0.006 A 
ATOM     12  C   UNL     1      -3.292  -1.317  -1.294  0.00  0.00    +0.003 A 
ATOM     13  C   UNL     1      -3.976  -1.556  -0.117  0.00  0.00    +0.033 A 
ATOM     14  C   UNL     1      -3.372  -1.294   1.099  0.00  0.00    +0.127 A 
ATOM     15  C   UNL     1      -2.083  -0.796   1.137  0.00  0.00    +0.039 A 
BRANCH  14  16
ATOM     16  N   UNL     1      -4.105  -1.550   2.359  0.00  0.00    +0.056 N 
ATOM     17  O   UNL     1      -5.231  -1.989   2.325  0.00  0.00    -0.126 OA
ATOM     18  O   UNL     1      -3.577  -1.321   3.422  0.00  0.00    -0.126 OA
ENDBRANCH  14  16
ENDBRANCH   2  10
BRANCH   5  19
ATOM     19  C   UNL     1       2.871  -1.896  -1.406  0.00  0.00    +0.154 C 
BRANCH  19  20
ATOM     20  C   UNL     1       4.037  -0.936  -1.647  0.00  0.00    +0.162 C 
BRANCH  20  21
ATOM     21  C   UNL     1       5.050  -1.592  -2.550  0.00  0.00    -0.015 A 
ATOM     22  C   UNL     1       5.949  -2.506  -2.032  0.00  0.00    +0.006 A 
ATOM     23  C   UNL     1       6.878  -3.108  -2.859  0.00  0.00    +0.003 A 
ATOM     24  C   UNL     1       6.910  -2.797  -4.205  0.00  0.00    +0.038 A 
ATOM     25  C   UNL     1       6.011  -1.882  -4.725  0.00  0.00    +0.124 A 
ATOM     26  C   UNL     1       5.076  -1.284  -3.897  0.00  0.00    +0.044 A 
ATOM     27  F   UNL     1       6.042  -1.577  -6.041  0.00  0.00    -0.205 F 
ENDBRANCH  20  21
BRANCH  20  28
ATOM     28  O   UNL     1       4.652  -0.610  -0.399  0.00  0.00    -0.386 OA
ATOM     29  H   UNL     1       5.006  -1.374   0.076  0.00  0.00    +0.210 HD
ENDBRANCH  20  28
ENDBRANCH  19  20
ENDBRANCH   5  19
TORSDOF 6
