REMARK  Name = ZINC12729358
REMARK  6 active torsions:
REMARK  status: ('A' for Active; 'I' for Inactive)
REMARK    1  A    between atoms: C_1  and  C_2
REMARK    2  A    between atoms: C_4  and  C_17
REMARK    3  A    between atoms: C_5  and  C_16
REMARK    4  A    between atoms: N_6  and  C_7
REMARK    5  A    between atoms: C_11  and  N_13
REMARK    6  A    between atoms: N_21  and  C_25
REMARK                            x       y       z     vdW  Elec       q    Type
REMARK                         _______ _______ _______ _____ _____    ______ ____
ROOT
ATOM      1  C   UNL     1       1.166   5.510   2.216  0.00  0.00    +0.064 C 
ATOM      2  C   UNL     1       0.176   6.049   1.215  0.00  0.00    +0.022 A 
ATOM      3  C   UNL     1       0.072   7.335   0.838  0.00  0.00    +0.031 A 
ATOM      4  C   UNL     1      -1.021   7.398  -0.141  0.00  0.00    -0.003 A 
ATOM      5  C   UNL     1      -1.488   6.105  -0.274  0.00  0.00    +0.028 A 
ATOM      6  N   UNL     1      -0.755   5.308   0.544  0.00  0.00    -0.317 N 
ATOM      7  C   UNL     1      -2.613   5.658  -1.171  0.00  0.00    +0.064 C 
ENDROOT
BRANCH   4   8
ATOM      8  C   UNL     1      -1.516   8.591  -0.835  0.00  0.00    +0.030 C 
ATOM      9  C   UNL     1      -0.948   9.802  -0.595  0.00  0.00    +0.078 C 
ATOM     10  C   UNL     1      -1.268  11.120  -1.169  0.00  0.00    +0.263 C 
ATOM     11  O   UNL     1      -2.156  11.260  -1.991  0.00  0.00    -0.269 OA
ATOM     12  N   UNL     1      -0.547  12.144  -0.746  0.00  0.00    -0.222 N 
ATOM     13  C   UNL     1       0.440  11.984   0.159  0.00  0.00    +0.125 C 
ATOM     14  S   UNL     1       1.481  13.172   0.820  0.00  0.00    -0.027 S 
ATOM     15  S   UNL     1       0.398  10.232   0.500  0.00  0.00    -0.061 S 
BRANCH  12  16
ATOM     16  C   UNL     1      -0.809  13.424  -1.254  0.00  0.00    +0.061 A 
ATOM     17  C   UNL     1      -0.158  13.877  -2.399  0.00  0.00    +0.027 A 
ATOM     18  C   UNL     1      -0.451  15.149  -2.863  0.00  0.00    +0.021 A 
ATOM     19  C   UNL     1      -1.374  15.920  -2.181  0.00  0.00    +0.111 A 
ATOM     20  N   UNL     1      -1.974  15.462  -1.100  0.00  0.00    -0.261 NA
ATOM     21  C   UNL     1      -1.727  14.256  -0.628  0.00  0.00    +0.134 A 
ENDBRANCH  12  16
ENDBRANCH   4   8
BRANCH   6  22
ATOM     22  C   UNL     1      -0.933   3.925   0.686  0.00  0.00    +0.049 A 
ATOM     23  C   UNL     1      -2.112   3.426   1.224  0.00  0.00    +0.026 A 
ATOM     24  C   UNL     1      -2.286   2.062   1.356  0.00  0.00    +0.004 A 
ATOM     25  C   UNL     1      -1.284   1.194   0.964  0.00  0.00    +0.033 A 
ATOM     26  C   UNL     1      -0.108   1.688   0.428  0.00  0.00    +0.128 A 
ATOM     27  C   UNL     1       0.070   3.051   0.288  0.00  0.00    +0.058 A 
BRANCH  26  28
ATOM     28  N   UNL     1       0.960   0.755   0.004  0.00  0.00    +0.056 N 
ATOM     29  O   UNL     1       0.803  -0.446   0.127  0.00  0.00    -0.126 OA
ATOM     30  O   UNL     1       1.995   1.190  -0.468  0.00  0.00    -0.126 OA
ENDBRANCH  26  28
ENDBRANCH   6  22
TORSDOF 4
