REMARK  Name = ZINC48866637
REMARK  5 active torsions:
REMARK  status: ('A' for Active; 'I' for Inactive)
REMARK    1  A    between atoms: C_1  and  C_2
REMARK    2  A    between atoms: C_5  and  C_9
REMARK    3  A    between atoms: C_7  and  N_8
REMARK    4  A    between atoms: N_13  and  C_14
REMARK    5  A    between atoms: C_14  and  C_15
REMARK                            x       y       z     vdW  Elec       q    Type
REMARK                         _______ _______ _______ _____ _____    ______ ____
ROOT
ATOM      1  C   UNL     1       0.042  -4.258  -0.032  0.00  0.00    +0.182 A 
ATOM      2  N   UNL     1      -0.124  -5.053   1.004  0.00  0.00    -0.108 NA
ATOM      3  N   UNL     1      -0.026  -6.282   0.648  0.00  0.00    -0.023 NA
ATOM      4  N   UNL     1       0.206  -6.366  -0.617  0.00  0.00    -0.043 NA
ATOM      5  N   UNL     1       0.254  -5.051  -1.111  0.00  0.00    -0.221 N 
ENDROOT
BRANCH   1  10
ATOM      6  C   UNL     1      -0.128   1.500  -0.005  0.00  0.00    +0.045 C 
ATOM      7  C   UNL     1      -0.083  -0.006  -0.011  0.00  0.00    -0.030 A 
ATOM      8  C   UNL     1      -0.568  -0.706  -1.099  0.00  0.00    +0.006 A 
ATOM      9  C   UNL     1      -0.530  -2.086  -1.111  0.00  0.00    +0.012 A 
ATOM     10  C   UNL     1       0.001  -2.778  -0.022  0.00  0.00    +0.022 A 
ATOM     11  C   UNL     1       0.491  -2.073   1.076  0.00  0.00    +0.034 A 
ATOM     12  C   UNL     1       0.453  -0.686   1.076  0.00  0.00    +0.028 A 
BRANCH  12  13
ATOM     13  N   UNL     1       0.948   0.026   2.171  0.00  0.00    -0.358 N 
ATOM     14  H   UNL     1       0.918   0.995   2.173  0.00  0.00    +0.142 HD
ATOM     15  H   UNL     1       1.322  -0.450   2.930  0.00  0.00    +0.142 HD
ENDBRANCH  12  13
ENDBRANCH   1  10
BRANCH   5  16
ATOM     16  C   UNL     1       0.485  -4.628  -2.494  0.00  0.00    +0.182 C 
BRANCH  16  17
ATOM     17  C   UNL     1       1.967  -4.585  -2.765  0.00  0.00    -0.025 A 
ATOM     18  C   UNL     1       2.679  -3.423  -2.529  0.00  0.00    +0.005 A 
ATOM     19  C   UNL     1       4.039  -3.383  -2.777  0.00  0.00    +0.001 A 
ATOM     20  C   UNL     1       4.686  -4.504  -3.262  0.00  0.00    +0.015 A 
ATOM     21  C   UNL     1       3.974  -5.666  -3.498  0.00  0.00    +0.018 A 
ATOM     22  C   UNL     1       2.615  -5.707  -3.244  0.00  0.00    +0.020 A 
ATOM     23 BR   UNL     1       4.860  -7.200  -4.161  0.00  0.00    -0.050 Br
ENDBRANCH  16  17
ENDBRANCH   5  16
TORSDOF 4
