REMARK  Name = ZINC40568198
REMARK  9 active torsions:
REMARK  status: ('A' for Active; 'I' for Inactive)
REMARK    1  A    between atoms: C_1  and  C_2
REMARK    2  A    between atoms: C_2  and  O_3
REMARK    3  A    between atoms: O_3  and  C_4
REMARK    4  A    between atoms: C_4  and  C_6
REMARK    5  A    between atoms: C_7  and  N_27
REMARK    6  A    between atoms: C_11  and  C_26
REMARK    7  A    between atoms: C_16  and  C_18
REMARK    8  A    between atoms: C_23  and  O_24
REMARK    9  A    between atoms: O_24  and  C_25
REMARK                            x       y       z     vdW  Elec       q    Type
REMARK                         _______ _______ _______ _____ _____    ______ ____
ROOT
ATOM      1  C   UNL     1       1.463  -2.349   2.421  0.00  0.00    +0.106 C 
ATOM      2  C   UNL     1       1.486  -3.694   2.603  0.00  0.00    +0.195 C 
ATOM      3  O   UNL     1       2.112  -4.259   3.648  0.00  0.00    -0.441 OA
ATOM      4  C   UNL     1       2.411  -3.518   4.734  0.00  0.00    +0.144 A 
ATOM      5  C   UNL     1       2.701  -4.144   5.967  0.00  0.00    +0.088 A 
ATOM      6  C   UNL     1       2.996  -3.390   7.042  0.00  0.00    +0.110 A 
ATOM      7  O   UNL     1       3.025  -2.054   6.982  0.00  0.00    -0.427 OA
ATOM      8  C   UNL     1       2.758  -1.419   5.831  0.00  0.00    +0.345 A 
ATOM      9  O   UNL     1       2.791  -0.200   5.792  0.00  0.00    -0.245 OA
ATOM     10  C   UNL     1       2.443  -2.141   4.674  0.00  0.00    +0.091 A 
ATOM     11  C   UNL     1       2.149  -1.421   3.385  0.00  0.00    +0.105 C 
ATOM     12  C   UNL     1       3.303  -4.071   8.351  0.00  0.00    +0.086 C 
ENDROOT
BRANCH  11  13
ATOM     13  C   UNL     1       3.437  -0.931   2.777  0.00  0.00    +0.007 A 
ATOM     14  C   UNL     1       4.420  -1.834   2.418  0.00  0.00    +0.008 A 
ATOM     15  C   UNL     1       5.602  -1.386   1.860  0.00  0.00    +0.001 A 
ATOM     16  C   UNL     1       5.805  -0.033   1.659  0.00  0.00    +0.004 A 
ATOM     17  C   UNL     1       4.826   0.874   2.016  0.00  0.00    +0.046 A 
ATOM     18  C   UNL     1       3.636   0.426   2.571  0.00  0.00    +0.124 A 
BRANCH  18  19
ATOM     19  O   UNL     1       2.669   1.316   2.917  0.00  0.00    -0.495 OA
ATOM     20  C   UNL     1       2.943   2.698   2.677  0.00  0.00    +0.277 C 
ENDBRANCH  18  19
ENDBRANCH  11  13
BRANCH   2  21
ATOM     21  N   UNL     1       0.851  -4.498   1.694  0.00  0.00    -0.329 N 
ATOM     22  H   UNL     1       0.460  -4.111   0.895  0.00  0.00    +0.145 HD
ATOM     23  H   UNL     1       0.793  -5.453   1.849  0.00  0.00    +0.145 HD
ENDBRANCH   2  21
BRANCH   1  24
ATOM     24  C   UNL     1       0.792  -1.815   1.310  0.00  0.00    +0.341 C 
ATOM     25  O   UNL     1      -0.319  -1.333   1.443  0.00  0.00    -0.245 OA
BRANCH  24  26
ATOM     26  O   UNL     1       1.378  -1.836   0.094  0.00  0.00    -0.462 OA
BRANCH  26  28
ATOM     27  C   UNL     1       1.457  -1.388  -2.280  0.00  0.00    +0.048 C 
ATOM     28  C   UNL     1       0.638  -1.275  -0.992  0.00  0.00    +0.229 C 
ENDBRANCH  26  28
ENDBRANCH  24  26
ENDBRANCH   1  24
TORSDOF 6
