REMARK  Name = ZINC59313403
REMARK  4 active torsions:
REMARK  status: ('A' for Active; 'I' for Inactive)
REMARK    1  A    between atoms: C_3  and  O_19
REMARK    2  A    between atoms: C_4  and  N_10
REMARK    3  A    between atoms: C_6  and  N_7
REMARK    4  A    between atoms: C_11  and  C_13
REMARK                            x       y       z     vdW  Elec       q    Type
REMARK                         _______ _______ _______ _____ _____    ______ ____
ROOT
ATOM      1  C   UNL     1      -0.026   1.361  -0.018  0.00  0.00    +0.036 A 
ATOM      2  C   UNL     1       1.156   2.078  -0.022  0.00  0.00    +0.049 A 
ATOM      3  C   UNL     1       2.370   1.412  -0.029  0.00  0.00    +0.138 A 
ATOM      4  C   UNL     1       2.397   0.019  -0.030  0.00  0.00    +0.078 A 
ATOM      5  C   UNL     1       1.207  -0.694  -0.025  0.00  0.00    +0.059 A 
ATOM      6  C   UNL     1      -0.001  -0.021  -0.019  0.00  0.00    +0.128 A 
ENDROOT
BRANCH   4   7
ATOM      7  N   UNL     1       3.621  -0.660  -0.037  0.00  0.00    -0.278 N 
ATOM      8  C   UNL     1       3.748  -1.828   0.624  0.00  0.00    +0.255 C 
ATOM      9  O   UNL     1       2.779  -2.333   1.160  0.00  0.00    -0.269 OA
ATOM     10  H   UNL     1       4.378  -0.291  -0.518  0.00  0.00    +0.155 HD
BRANCH   8  11
ATOM     11  C   UNL     1       5.053  -2.489   0.699  0.00  0.00    +0.075 A 
ATOM     12  C   UNL     1       5.394  -3.683   1.318  0.00  0.00    +0.022 A 
ATOM     13  C   UNL     1       6.714  -4.051   1.218  0.00  0.00    +0.024 A 
ATOM     14  C   UNL     1       7.573  -3.248   0.541  0.00  0.00    +0.056 A 
ATOM     15  S   UNL     1       6.615  -1.973   0.013  0.00  0.00    -0.077 S 
ATOM     16 BR   UNL     1       9.424  -3.509   0.251  0.00  0.00    -0.043 Br
ENDBRANCH   8  11
ENDBRANCH   4   7
BRANCH   6  17
ATOM     17  N   UNL     1      -1.270  -0.782  -0.014  0.00  0.00    +0.056 N 
ATOM     18  O   UNL     1      -2.327  -0.195  -0.009  0.00  0.00    -0.126 OA
ATOM     19  O   UNL     1      -1.250  -1.991  -0.016  0.00  0.00    -0.126 OA
ENDBRANCH   6  17
BRANCH   3  20
ATOM     20  O   UNL     1       3.534   2.116  -0.034  0.00  0.00    -0.505 OA
ATOM     21  H   UNL     1       3.875   2.318   0.848  0.00  0.00    +0.292 HD
ENDBRANCH   3  20
TORSDOF 4
