REMARK  Name = ZINC12769732
REMARK  3 active torsions:
REMARK  status: ('A' for Active; 'I' for Inactive)
REMARK    1  A    between atoms: C_6  and  C_7
REMARK    2  A    between atoms: C_7  and  C_8
REMARK    3  A    between atoms: C_14  and  C_16
REMARK                            x       y       z     vdW  Elec       q    Type
REMARK                         _______ _______ _______ _____ _____    ______ ____
ROOT
ATOM      1  C   UNL     1      -2.939   0.714   1.440  0.00  0.00    +0.015 A 
ATOM      2  C   UNL     1      -3.712   1.461   2.265  0.00  0.00    +0.124 A 
ATOM      3  N   UNL     1      -3.950   1.011   3.482  0.00  0.00    -0.233 NA
ATOM      4  C   UNL     1      -3.443  -0.133   3.898  0.00  0.00    +0.165 A 
ATOM      5  S   UNL     1      -2.555  -0.669   2.505  0.00  0.00    -0.057 S 
ATOM      6  N   UNL     1      -3.583  -0.751   5.135  0.00  0.00    -0.259 N 
ATOM      7  C   UNL     1      -4.323  -0.169   6.099  0.00  0.00    +0.270 C 
ATOM      8  O   UNL     1      -4.868   0.897   5.887  0.00  0.00    -0.268 OA
ATOM      9  H   UNL     1      -3.147  -1.601   5.304  0.00  0.00    +0.157 HD
ENDROOT
BRANCH   7  10
ATOM     10  C   UNL     1      -4.471  -0.826   7.415  0.00  0.00    +0.146 A 
ATOM     11  C   UNL     1      -5.249  -0.213   8.426  0.00  0.00    +0.040 A 
ATOM     12  C   UNL     1      -5.363  -0.848   9.627  0.00  0.00    +0.074 A 
ATOM     13  C   UNL     1      -4.696  -2.083   9.788  0.00  0.00    +0.265 A 
ATOM     14  O   UNL     1      -4.770  -2.688  10.845  0.00  0.00    -0.266 OA
ATOM     15  N   UNL     1      -3.979  -2.588   8.767  0.00  0.00    -0.243 N 
ATOM     16  H   UNL     1      -3.524  -3.437   8.885  0.00  0.00    +0.192 HD
ATOM     17  N   UNL     1      -3.885  -1.981   7.640  0.00  0.00    -0.166 NA
ENDBRANCH   7  10
BRANCH   1  18
ATOM     18  C   UNL     1      -2.514   0.979   0.019  0.00  0.00    +0.079 C 
BRANCH  18  24
ATOM     19  C   UNL     1      -1.239   3.133   0.031  0.00  0.00    +0.005 A 
ATOM     20  C   UNL     1      -0.052   3.842   0.023  0.00  0.00    +0.022 A 
ATOM     21  C   UNL     1       1.156   3.168   0.008  0.00  0.00    +0.059 A 
ATOM     22  C   UNL     1       1.176   1.784   0.000  0.00  0.00    +0.060 A 
ATOM     23  C   UNL     1      -0.013   1.076   0.008  0.00  0.00    +0.025 A 
ATOM     24  C   UNL     1      -1.219   1.751   0.017  0.00  0.00    -0.041 A 
ATOM     25 CL   UNL     1       2.691   0.937  -0.018  0.00  0.00    -0.082 Cl
ATOM     26 CL   UNL     1       2.647   4.058  -0.001  0.00  0.00    -0.082 Cl
ENDBRANCH  18  24
ENDBRANCH   1  18
TORSDOF 3
