REMARK  Name = ZINC07957618
REMARK  4 active torsions:
REMARK  status: ('A' for Active; 'I' for Inactive)
REMARK    1  A    between atoms: C_1  and  C_2
REMARK    2  A    between atoms: C_14  and  C_15
REMARK    3  A    between atoms: N_17  and  N_18
REMARK    4  A    between atoms: C_19  and  C_21
REMARK                            x       y       z     vdW  Elec       q    Type
REMARK                         _______ _______ _______ _____ _____    ______ ____
ROOT
ATOM      1  C   UNL     1       0.032  -0.371   2.488  0.00  0.00    +0.296 C 
ATOM      2  O   UNL     1       0.018   0.817   2.746  0.00  0.00    -0.265 OA
ATOM      3  N   UNL     1       0.054  -1.278   3.485  0.00  0.00    -0.228 N 
ATOM      4  H   UNL     1       0.065  -2.225   3.280  0.00  0.00    +0.173 HD
ENDROOT
BRANCH   1  18
ATOM      5  C   UNL     1      -0.018   1.503   0.010  0.00  0.00    +0.048 C 
ATOM      6  C   UNL     1       0.002  -0.004   0.002  0.00  0.00    +0.008 A 
ATOM      7  C   UNL     1       0.008  -0.842  -1.141  0.00  0.00    +0.024 A 
ATOM      8  C   UNL     1      -0.002  -0.585  -2.528  0.00  0.00    +0.012 A 
ATOM      9  C   UNL     1       0.008  -1.601  -3.421  0.00  0.00    +0.009 A 
ATOM     10  C   UNL     1       0.029  -2.941  -2.977  0.00  0.00    -0.014 A 
ATOM     11  C   UNL     1       0.040  -4.004  -3.893  0.00  0.00    +0.008 A 
ATOM     12  C   UNL     1       0.059  -5.288  -3.439  0.00  0.00    +0.001 A 
ATOM     13  C   UNL     1       0.069  -5.565  -2.075  0.00  0.00    +0.001 A 
ATOM     14  C   UNL     1       0.059  -4.558  -1.157  0.00  0.00    +0.012 A 
ATOM     15  C   UNL     1       0.039  -3.224  -1.590  0.00  0.00    +0.025 A 
ATOM     16  C   UNL     1       0.029  -2.157  -0.664  0.00  0.00    +0.144 A 
ATOM     17  O   UNL     1       0.034  -2.106   0.680  0.00  0.00    -0.449 OA
ATOM     18  C   UNL     1       0.024  -0.819   1.089  0.00  0.00    +0.195 A 
ENDBRANCH   1  18
BRANCH   3  19
ATOM     19  N   UNL     1       0.061  -0.850   4.820  0.00  0.00    -0.230 N 
ATOM     20  C   UNL     1       0.083  -1.756   5.817  0.00  0.00    +0.263 C 
ATOM     21  O   UNL     1       0.097  -2.944   5.559  0.00  0.00    -0.269 OA
ATOM     22  H   UNL     1       0.050   0.097   5.026  0.00  0.00    +0.173 HD
BRANCH  20  23
ATOM     23  C   UNL     1       0.091  -1.306   7.224  0.00  0.00    +0.073 A 
ATOM     24  C   UNL     1       0.070   0.058   7.524  0.00  0.00    +0.016 A 
ATOM     25  C   UNL     1       0.077   0.471   8.839  0.00  0.00    +0.001 A 
ATOM     26  C   UNL     1       0.106  -0.461   9.863  0.00  0.00    +0.003 A 
ATOM     27  C   UNL     1       0.128  -1.812   9.576  0.00  0.00    +0.039 A 
ATOM     28  C   UNL     1       0.114  -2.243   8.261  0.00  0.00    +0.136 A 
ATOM     29  F   UNL     1       0.129  -3.565   7.981  0.00  0.00    -0.205 F 
ENDBRANCH  20  23
ENDBRANCH   3  19
TORSDOF 3
