REMARK  Name = ZINC63348985
REMARK  4 active torsions:
REMARK  status: ('A' for Active; 'I' for Inactive)
REMARK    1  A    between atoms: C_1  and  C_2
REMARK    2  A    between atoms: N_14  and  C_17
REMARK    3  A    between atoms: C_17  and  C_18
REMARK    4  A    between atoms: C_18  and  C_19
REMARK                            x       y       z     vdW  Elec       q    Type
REMARK                         _______ _______ _______ _____ _____    ______ ____
ROOT
ATOM      1  C   UNL     1      -0.018   1.503   0.010  0.00  0.00    +0.082 C 
ATOM      2  C   UNL     1       0.002  -0.004   0.002  0.00  0.00    +0.088 C 
ATOM      3  N   UNL     1       0.008  -0.756  -1.073  0.00  0.00    -0.317 N 
ATOM      4  C   UNL     1       0.041  -2.042  -0.731  0.00  0.00    +0.214 C 
ATOM      5  N   UNL     1       0.159  -3.139  -1.470  0.00  0.00    -0.223 NA
ATOM      6  C   UNL     1       0.344  -4.317  -0.868  0.00  0.00    +0.125 C 
ATOM      7  C   UNL     1       0.272  -4.473   0.478  0.00  0.00    +0.059 C 
ATOM      8  C   UNL     1      -0.287  -3.364   1.343  0.00  0.00    +0.158 C 
ATOM      9  N   UNL     1      -0.075  -2.103   0.650  0.00  0.00    -0.210 N 
ATOM     10  N   UNL     1       0.023  -0.794   1.105  0.00  0.00    -0.250 N 
ATOM     11  C   UNL     1       0.357  -3.389   2.692  0.00  0.00    +0.017 C 
ATOM     12  C   UNL     1       0.949  -4.471   3.148  0.00  0.00    +0.076 C 
ATOM     13  N   UNL     1       1.011  -5.643   2.410  0.00  0.00    -0.274 N 
ATOM     14  C   UNL     1       0.671  -5.670   1.100  0.00  0.00    +0.250 C 
ATOM     15  O   UNL     1       0.736  -6.705   0.459  0.00  0.00    -0.270 OA
ATOM     16  H   UNL     1       0.091  -0.502   2.028  0.00  0.00    +0.171 HD
ATOM     17  H   UNL     1      -0.010  -0.423  -1.984  0.00  0.00    +0.170 HD
ENDROOT
BRANCH  13  18
ATOM     18  C   UNL     1       1.437  -6.883   3.064  0.00  0.00    +0.118 C 
BRANCH  18  19
ATOM     19  C   UNL     1       0.214  -7.604   3.635  0.00  0.00    +0.052 C 
BRANCH  19  20
ATOM     20  C   UNL     1       0.652  -8.879   4.308  0.00  0.00    -0.040 C 
ATOM     21  C   UNL     1       0.913  -9.056   5.623  0.00  0.00    -0.001 A 
ATOM     22  C   UNL     1       0.872  -8.149   6.776  0.00  0.00    +0.010 A 
ATOM     23  C   UNL     1       1.196  -8.627   7.999  0.00  0.00    +0.001 A 
ATOM     24  C   UNL     1       1.571  -9.964   8.192  0.00  0.00    +0.002 A 
ATOM     25  C   UNL     1       1.632 -10.857   7.182  0.00  0.00    +0.026 A 
ATOM     26  C   UNL     1       1.312 -10.463   5.854  0.00  0.00    +0.043 A 
ATOM     27  N   UNL     1       1.297 -11.130   4.725  0.00  0.00    -0.380 N 
ATOM     28  C   UNL     1       0.881 -10.222   3.651  0.00  0.00    +0.144 C 
ATOM     29  H   UNL     1       1.519 -12.068   4.619  0.00  0.00    +0.160 HD
ENDBRANCH  19  20
ENDBRANCH  18  19
ENDBRANCH  13  18
TORSDOF 3
