REMARK  Name = ZINC16024494
REMARK  7 active torsions:
REMARK  status: ('A' for Active; 'I' for Inactive)
REMARK    1  A    between atoms: C_1  and  C_2
REMARK    2  A    between atoms: C_2  and  C_3
REMARK    3  A    between atoms: C_3  and  C_5
REMARK    4  A    between atoms: C_3  and  N_6
REMARK    5  A    between atoms: C_27  and  C_29
REMARK    6  A    between atoms: C_29  and  C_31
REMARK    7  A    between atoms: C_29  and  O_32
REMARK                            x       y       z     vdW  Elec       q    Type
REMARK                         _______ _______ _______ _____ _____    ______ ____
ROOT
ATOM      1  N   UNL     1       2.148  -0.104   1.172  0.00  0.00    -0.239 N 
ATOM      2  C   UNL     1       2.959  -0.472   0.174  0.00  0.00    +0.228 C 
ATOM      3  O   UNL     1       2.641  -1.169  -0.766  0.00  0.00    -0.275 OA
ATOM      4  C   UNL     1       4.334   0.114   0.401  0.00  0.00    +0.109 C 
ATOM      5  C   UNL     1       4.172   0.901   1.731  0.00  0.00    +0.123 C 
ATOM      6  C   UNL     1       2.724   0.672   2.098  0.00  0.00    +0.228 C 
ATOM      7  O   UNL     1       2.170   1.118   3.079  0.00  0.00    -0.275 OA
ATOM      8  C   UNL     1       5.098   0.184   2.720  0.00  0.00    +0.136 C 
ATOM      9  C   UNL     1       5.737   1.148   3.678  0.00  0.00    +0.004 A 
ATOM     10  C   UNL     1       6.546   2.251   3.515  0.00  0.00    +0.023 A 
ATOM     11  C   UNL     1       6.988   2.955   4.621  0.00  0.00    +0.018 A 
ATOM     12  C   UNL     1       6.616   2.548   5.891  0.00  0.00    +0.017 A 
ATOM     13  C   UNL     1       5.805   1.445   6.058  0.00  0.00    +0.025 A 
ATOM     14  C   UNL     1       5.355   0.731   4.949  0.00  0.00    +0.039 A 
ATOM     15  N   UNL     1       4.537  -0.398   4.862  0.00  0.00    -0.283 N 
ATOM     16  C   UNL     1       4.335  -0.781   3.587  0.00  0.00    +0.243 C 
ATOM     17  O   UNL     1       3.668  -1.722   3.210  0.00  0.00    -0.273 OA
ATOM     18 BR   UNL     1       8.099   4.469   4.399  0.00  0.00    -0.050 Br
ATOM     19  N   UNL     1       6.105  -0.513   1.898  0.00  0.00    -0.293 NA
ATOM     20  C   UNL     1       5.325  -1.026   0.717  0.00  0.00    +0.096 C 
ATOM     21  H   UNL     1       4.159  -0.854   5.630  0.00  0.00    +0.155 HD
ATOM     22  H   UNL     1       6.834   0.120   1.606  0.00  0.00    +0.124 HD
ENDROOT
BRANCH   1  23
ATOM     23  C   UNL     1       0.742  -0.511   1.242  0.00  0.00    +0.081 C 
ATOM     24  C   UNL     1       0.655  -2.037   1.299  0.00  0.00    +0.028 C 
BRANCH  23  26
ATOM     25  C   UNL     1      -0.019   1.526   0.010  0.00  0.00    +0.006 C 
ATOM     26  C   UNL     1       0.002  -0.004   0.002  0.00  0.00    +0.019 C 
ENDBRANCH  23  26
ENDBRANCH   1  23
BRANCH  20  27
ATOM     27  C   UNL     1       6.258  -1.266  -0.472  0.00  0.00    +0.129 C 
ATOM     28  C   UNL     1       7.230  -2.399  -0.138  0.00  0.00    +0.039 C 
BRANCH  27  29
ATOM     29  O   UNL     1       5.485  -1.625  -1.619  0.00  0.00    -0.390 OA
ATOM     30  H   UNL     1       4.958  -2.428  -1.503  0.00  0.00    +0.210 HD
ENDBRANCH  27  29
ENDBRANCH  20  27
TORSDOF 4
