REMARK  Name = ZINC39520069
REMARK  7 active torsions:
REMARK  status: ('A' for Active; 'I' for Inactive)
REMARK    1  A    between atoms: C_1  and  C_2
REMARK    2  A    between atoms: N_10  and  C_14
REMARK    3  A    between atoms: C_14  and  C_15
REMARK    4  A    between atoms: N_17  and  C_18
REMARK    5  A    between atoms: C_22  and  C_23
REMARK    6  A    between atoms: C_23  and  O_25
REMARK    7  A    between atoms: O_25  and  C_26
REMARK                            x       y       z     vdW  Elec       q    Type
REMARK                         _______ _______ _______ _____ _____    ______ ____
ROOT
ATOM      1  C   UNL     1      -0.410   1.331   0.063  0.00  0.00    +0.007 C 
ATOM      2  C   UNL     1      -0.318  -0.196   0.055  0.00  0.00    -0.014 C 
ATOM      3  C   UNL     1       0.400  -0.657  -1.215  0.00  0.00    +0.006 C 
ATOM      4  C   UNL     1       0.483  -2.185  -1.227  0.00  0.00    +0.035 C 
ATOM      5  C   UNL     1       1.240  -2.664   0.007  0.00  0.00    +0.113 C 
ATOM      6  C   UNL     1       0.547  -2.194   1.281  0.00  0.00    +0.035 C 
ATOM      7  C   UNL     1       0.464  -0.665   1.284  0.00  0.00    +0.006 C 
ATOM      8  C   UNL     1       1.364  -4.170  -0.001  0.00  0.00    +0.247 C 
ATOM      9  O   UNL     1       0.463  -4.981   0.018  0.00  0.00    -0.273 OA
ATOM     10  N   UNL     1       2.689  -4.423  -0.036  0.00  0.00    -0.215 N 
ATOM     11  C   UNL     1       3.405  -3.292  -0.050  0.00  0.00    +0.310 C 
ATOM     12  O   UNL     1       4.620  -3.262  -0.080  0.00  0.00    -0.252 OA
ATOM     13  N   UNL     1       2.630  -2.192  -0.027  0.00  0.00    -0.285 N 
ATOM     14  H   UNL     1       2.930  -1.269  -0.031  0.00  0.00    +0.151 HD
ENDROOT
BRANCH  10  15
ATOM     15  C   UNL     1       3.271  -5.767  -0.054  0.00  0.00    +0.214 C 
BRANCH  15  16
ATOM     16  C   UNL     1       3.434  -6.224  -1.481  0.00  0.00    +0.235 C 
ATOM     17  O   UNL     1       3.098  -5.498  -2.393  0.00  0.00    -0.274 OA
ATOM     18  N   UNL     1       3.954  -7.439  -1.744  0.00  0.00    -0.283 N 
ATOM     19  H   UNL     1       4.292  -7.989  -1.020  0.00  0.00    +0.155 HD
BRANCH  18  20
ATOM     20  C   UNL     1       4.007  -7.906  -3.058  0.00  0.00    +0.055 A 
ATOM     21  C   UNL     1       3.690  -7.106  -4.138  0.00  0.00    +0.032 A 
ATOM     22  C   UNL     1       3.763  -7.627  -5.386  0.00  0.00    +0.048 A 
ATOM     23  S   UNL     1       4.262  -9.213  -5.149  0.00  0.00    -0.088 S 
ATOM     24  C   UNL     1       4.389  -9.211  -3.371  0.00  0.00    +0.117 A 
BRANCH  24  25
ATOM     25  C   UNL     1       4.775 -10.259  -2.503  0.00  0.00    +0.347 C 
ATOM     26  O   UNL     1       4.802 -10.075  -1.300  0.00  0.00    -0.244 OA
BRANCH  25  27
ATOM     27  O   UNL     1       5.113 -11.464  -3.009  0.00  0.00    -0.464 OA
ATOM     28  C   UNL     1       5.492 -12.477  -2.074  0.00  0.00    +0.280 C 
ENDBRANCH  25  27
ENDBRANCH  24  25
ENDBRANCH  18  20
ENDBRANCH  15  16
ENDBRANCH  10  15
TORSDOF 5
