REMARK  Name = ZINC25092620
REMARK  11 active torsions:
REMARK  status: ('A' for Active; 'I' for Inactive)
REMARK    1  A    between atoms: C_1  and  C_2
REMARK    2  A    between atoms: C_3  and  C_15
REMARK    3  A    between atoms: C_4  and  C_14
REMARK    4  A    between atoms: C_8  and  C_11
REMARK    5  A    between atoms: C_15  and  C_16
REMARK    6  A    between atoms: C_16  and  C_17
REMARK    7  A    between atoms: N_19  and  C_20
REMARK    8  A    between atoms: C_26  and  C_28
REMARK    9  A    between atoms: C_28  and  C_29
REMARK   10  A    between atoms: C_28  and  C_30
REMARK   11  A    between atoms: C_28  and  C_31
REMARK                            x       y       z     vdW  Elec       q    Type
REMARK                         _______ _______ _______ _____ _____    ______ ____
ROOT
ATOM      1  C   UNL     1      -5.486  -1.869   0.561  0.00  0.00    +0.066 C 
ATOM      2  C   UNL     1      -5.017  -0.454   0.780  0.00  0.00    +0.045 A 
ATOM      3  C   UNL     1      -5.940   0.601   0.742  0.00  0.00    -0.006 A 
ATOM      4  C   UNL     1      -5.509   1.872   0.940  0.00  0.00    +0.028 A 
ATOM      5  N   UNL     1      -4.182   2.093   1.173  0.00  0.00    -0.287 N 
ATOM      6  C   UNL     1      -3.457   3.223   1.403  0.00  0.00    +0.206 A 
ATOM      7  N   UNL     1      -2.204   2.914   1.570  0.00  0.00    -0.229 NA
ATOM      8  C   UNL     1      -2.045   1.578   1.459  0.00  0.00    +0.169 A 
ATOM      9  C   UNL     1      -3.309   1.034   1.197  0.00  0.00    +0.170 A 
ATOM     10  N   UNL     1      -3.745  -0.213   1.007  0.00  0.00    -0.232 NA
ATOM     11  C   UNL     1      -6.481   3.022   0.903  0.00  0.00    +0.064 C 
ENDROOT
BRANCH   8  12
ATOM     12  C   UNL     1      -0.789   0.839   1.583  0.00  0.00    +0.264 C 
ATOM     13  O   UNL     1      -0.781  -0.372   1.460  0.00  0.00    -0.269 OA
ATOM     14  N   UNL     1       0.360   1.499   1.827  0.00  0.00    -0.324 N 
ATOM     15  H   UNL     1       1.305   0.943   1.920  0.00  0.00    +0.145 HD
ATOM     16  H   UNL     1       0.354   2.594   1.934  0.00  0.00    +0.145 HD
ENDBRANCH   8  12
BRANCH   3  17
ATOM     17  C   UNL     1      -7.399   0.325   0.483  0.00  0.00    +0.048 C 
BRANCH  17  18
ATOM     18  C   UNL     1      -7.668   0.377  -1.022  0.00  0.00    +0.100 C 
BRANCH  18  19
ATOM     19  C   UNL     1      -9.127   0.101  -1.282  0.00  0.00    +0.214 C 
ATOM     20  O   UNL     1      -9.877  -0.116  -0.353  0.00  0.00    -0.276 OA
ATOM     21  N   UNL     1      -9.597   0.094  -2.544  0.00  0.00    -0.312 N 
ATOM     22  H   UNL     1      -8.917   0.291  -3.386  0.00  0.00    +0.149 HD
BRANCH  21  23
ATOM     23  C   UNL     1     -11.015  -0.174  -2.796  0.00  0.00    +0.077 C 
ATOM     24  C   UNL     1     -11.793   1.143  -2.785  0.00  0.00    +0.022 C 
ATOM     25  C   UNL     1     -11.248   2.067  -3.877  0.00  0.00    +0.002 C 
ATOM     26  C   UNL     1     -11.405   1.393  -5.241  0.00  0.00    +0.000 C 
ATOM     27  C   UNL     1     -10.627   0.075  -5.252  0.00  0.00    +0.006 C 
ATOM     28  C   UNL     1     -11.172  -0.848  -4.161  0.00  0.00    +0.015 C 
BRANCH  28  29
ATOM     29  C   UNL     1     -10.395  -2.165  -4.171  0.00  0.00    -0.033 C 
ATOM     30  C   UNL     1     -10.840  -3.030  -2.990  0.00  0.00    +0.011 C 
ATOM     31  C   UNL     1     -10.669  -2.909  -5.480  0.00  0.00    +0.011 C 
ATOM     32  C   UNL     1      -8.897  -1.874  -4.054  0.00  0.00    +0.011 C 
ENDBRANCH  28  29
ENDBRANCH  21  23
ENDBRANCH  18  19
ENDBRANCH  17  18
ENDBRANCH   3  17
TORSDOF 6
