REMARK  Name = ZINC66429149
REMARK  6 active torsions:
REMARK  status: ('A' for Active; 'I' for Inactive)
REMARK    1  A    between atoms: C_1  and  C_2
REMARK    2  A    between atoms: C_9  and  C_12
REMARK    3  A    between atoms: C_10  and  C_11
REMARK    4  A    between atoms: N_14  and  C_15
REMARK    5  A    between atoms: C_15  and  C_16
REMARK    6  A    between atoms: C_20  and  C_22
REMARK                            x       y       z     vdW  Elec       q    Type
REMARK                         _______ _______ _______ _____ _____    ______ ____
ROOT
ATOM      1  C   UNL     1       0.067  -1.347   4.779  0.00  0.00    +0.280 C 
ATOM      2  O   UNL     1       0.088  -2.378   5.425  0.00  0.00    -0.267 OA
ATOM      3  N   UNL     1       0.057  -0.156   5.409  0.00  0.00    -0.302 N 
ATOM      4  H   UNL     1       0.041   0.665   4.894  0.00  0.00    +0.150 HD
ENDROOT
BRANCH   1  13
ATOM      5  C   UNL     1      -0.018   1.503   0.010  0.00  0.00    +0.047 C 
ATOM      6  C   UNL     1       0.002  -0.004   0.002  0.00  0.00    -0.008 A 
ATOM      7  C   UNL     1       0.006  -0.688  -1.195  0.00  0.00    +0.007 A 
ATOM      8  C   UNL     1       0.024  -2.076  -1.218  0.00  0.00    +0.001 A 
ATOM      9  C   UNL     1       0.039  -2.788  -0.052  0.00  0.00    +0.012 A 
ATOM     10  C   UNL     1       0.036  -2.114   1.171  0.00  0.00    +0.024 A 
ATOM     11  C   UNL     1       0.023  -0.707   1.201  0.00  0.00    +0.139 A 
ATOM     12  O   UNL     1       0.030  -0.327   2.493  0.00  0.00    -0.450 OA
ATOM     13  C   UNL     1       0.053  -1.402   3.310  0.00  0.00    +0.193 A 
ATOM     14  C   UNL     1       0.048  -2.540   2.570  0.00  0.00    +0.008 A 
ATOM     15  C   UNL     1       0.068  -3.956   3.085  0.00  0.00    +0.048 C 
ENDBRANCH   1  13
BRANCH   3  16
ATOM     16  C   UNL     1       0.071  -0.103   6.873  0.00  0.00    +0.180 C 
BRANCH  16  17
ATOM     17  C   UNL     1       0.056   1.336   7.323  0.00  0.00    +0.143 A 
ATOM     18  N   UNL     1      -1.036   2.042   7.665  0.00  0.00    -0.261 N 
ATOM     19  H   UNL     1      -1.954   1.726   7.669  0.00  0.00    +0.190 HD
ATOM     20  N   UNL     1      -0.589   3.326   8.016  0.00  0.00    -0.152 NA
ATOM     21  C   UNL     1       0.720   3.324   7.870  0.00  0.00    +0.188 A 
ATOM     22  N   UNL     1       1.102   2.108   7.453  0.00  0.00    -0.209 NA
BRANCH  21  23
ATOM     23  C   UNL     1       1.618   4.469   8.127  0.00  0.00    +0.058 A 
ATOM     24  C   UNL     1       1.306   5.730   8.561  0.00  0.00    +0.019 A 
ATOM     25  C   UNL     1       2.325   6.642   8.731  0.00  0.00    +0.008 A 
ATOM     26  C   UNL     1       3.601   6.266   8.464  0.00  0.00    +0.046 A 
ATOM     27  S   UNL     1       3.393   4.567   7.960  0.00  0.00    -0.093 S 
ENDBRANCH  21  23
ENDBRANCH  16  17
ENDBRANCH   3  16
TORSDOF 4
