REMARK  Name = ZINC12039604
REMARK  6 active torsions:
REMARK  status: ('A' for Active; 'I' for Inactive)
REMARK    1  A    between atoms: C_5  and  C_7
REMARK    2  A    between atoms: C_7  and  N_8
REMARK    3  A    between atoms: C_19  and  N_58
REMARK    4  A    between atoms: C_23  and  C_24
REMARK    5  A    between atoms: C_23  and  N_58
REMARK    6  A    between atoms: C_24  and  O_30
REMARK                            x       y       z     vdW  Elec       q    Type
REMARK                         _______ _______ _______ _____ _____    ______ ____
ROOT
ATOM      1  N   UNL     1       1.135   1.915   0.002  0.00  0.00    -0.294 N 
ATOM      2  C   UNL     1       1.136   3.273   0.008  0.00  0.00    +0.203 A 
ATOM      3  N   UNL     1       0.018   3.949   0.021  0.00  0.00    -0.230 NA
ATOM      4  C   UNL     1      -1.157   3.327   0.029  0.00  0.00    +0.116 A 
ATOM      5  C   UNL     1      -1.259   1.927   0.018  0.00  0.00    +0.076 A 
ATOM      6  C   UNL     1      -0.015   1.215   0.009  0.00  0.00    +0.263 A 
ATOM      7  O   UNL     1       0.002  -0.004   0.002  0.00  0.00    -0.267 OA
ATOM      8  C   UNL     1      -2.616   1.383   0.024  0.00  0.00    -0.023 A 
ATOM      9  C   UNL     1      -3.632   2.272   0.032  0.00  0.00    -0.006 A 
ATOM     10  S   UNL     1      -2.849   3.863   0.047  0.00  0.00    -0.073 S 
ATOM     11  C   UNL     1      -5.100   1.973   0.038  0.00  0.00    +0.027 C 
ATOM     12  C   UNL     1      -5.291   0.496   0.411  0.00  0.00    -0.067 C 
ATOM     13  C   UNL     1      -4.336  -0.351  -0.434  0.00  0.00    -0.011 C 
ATOM     14  C   UNL     1      -2.894  -0.118   0.020  0.00  0.00    +0.035 C 
ENDROOT
BRANCH  12  15
ATOM     15  N   UNL     1      -6.681   0.090   0.129  0.00  0.00    +0.383 N 
ATOM     16  H   UNL     1      -6.712  -0.923  -0.033  0.00  0.00    -0.085 HD
ATOM     17  H   UNL     1      -7.014   0.581  -0.709  0.00  0.00    -0.085 HD
BRANCH  15  18
ATOM     18  C   UNL     1      -7.555   0.428   1.269  0.00  0.00    -0.047 C 
BRANCH  18  19
ATOM     19  C   UNL     1      -8.987  -0.004   0.948  0.00  0.00    +0.051 C 
ATOM     20  C   UNL     1      -9.427   0.631  -0.372  0.00  0.00    +0.033 C 
ATOM     21  C   UNL     1     -10.860   0.199  -0.693  0.00  0.00    +0.003 C 
ATOM     22  C   UNL     1     -11.794   0.656   0.429  0.00  0.00    +0.000 C 
ATOM     23  C   UNL     1     -11.353   0.022   1.750  0.00  0.00    +0.003 C 
ATOM     24  C   UNL     1      -9.921   0.453   2.071  0.00  0.00    +0.033 C 
BRANCH  19  25
ATOM     25  O   UNL     1      -9.041  -1.427   0.834  0.00  0.00    -0.390 OA
ATOM     26  H   UNL     1      -8.472  -1.788   0.140  0.00  0.00    +0.210 HD
ENDBRANCH  19  25
ENDBRANCH  18  19
ENDBRANCH  15  18
ENDBRANCH  12  15
BRANCH   1  27
ATOM     27  C   UNL     1       2.412   1.197  -0.014  0.00  0.00    +0.164 C 
BRANCH  27  32
ATOM     28  C   UNL     1       4.244   1.492  -3.302  0.00  0.00    +0.000 A 
ATOM     29  C   UNL     1       3.618   0.518  -4.057  0.00  0.00    +0.003 A 
ATOM     30  C   UNL     1       2.602  -0.238  -3.505  0.00  0.00    +0.039 A 
ATOM     31  C   UNL     1       2.213  -0.022  -2.193  0.00  0.00    +0.128 A 
ATOM     32  C   UNL     1       2.837   0.958  -1.440  0.00  0.00    +0.008 A 
ATOM     33  C   UNL     1       3.854   1.712  -1.994  0.00  0.00    +0.008 A 
ATOM     34  F   UNL     1       1.222  -0.763  -1.651  0.00  0.00    -0.205 F 
ENDBRANCH  27  32
ENDBRANCH   1  27
TORSDOF 6
