REMARK  Name = ZINC22284525
REMARK  5 active torsions:
REMARK  status: ('A' for Active; 'I' for Inactive)
REMARK    1  A    between atoms: C_1  and  C_2
REMARK    2  A    between atoms: C_2  and  C_3
REMARK    3  A    between atoms: C_5  and  S_8
REMARK    4  A    between atoms: S_8  and  C_9
REMARK    5  A    between atoms: C_9  and  C_10
REMARK                            x       y       z     vdW  Elec       q    Type
REMARK                         _______ _______ _______ _____ _____    ______ ____
ROOT
ATOM      1  C   UNL     1       3.795   3.006  -0.194  0.00  0.00    +0.143 A 
ATOM      2  N   UNL     1       4.377   1.819  -0.201  0.00  0.00    -0.216 NA
ATOM      3  C   UNL     1       3.694   0.699  -0.031  0.00  0.00    +0.128 A 
ATOM      4  C   UNL     1       2.287   0.770   0.166  0.00  0.00    +0.051 A 
ATOM      5  C   UNL     1       1.337  -0.329   0.375  0.00  0.00    -0.025 A 
ATOM      6  C   UNL     1       0.042   0.011   0.534  0.00  0.00    -0.004 A 
ATOM      7  S   UNL     1       0.009   1.782   0.424  0.00  0.00    -0.073 S 
ATOM      8  C   UNL     1       1.739   2.066   0.160  0.00  0.00    +0.114 A 
ATOM      9  N   UNL     1       2.494   3.134  -0.016  0.00  0.00    -0.224 NA
ATOM     10  C   UNL     1      -1.127  -0.900   0.743  0.00  0.00    +0.043 C 
ATOM     11  C   UNL     1      -0.796  -1.905   1.855  0.00  0.00    +0.005 C 
ATOM     12  C   UNL     1      -0.147  -3.129   1.217  0.00  0.00    +0.001 C 
ATOM     13  C   UNL     1       0.675  -2.710  -0.001  0.00  0.00    +0.005 C 
ATOM     14  C   UNL     1       1.808  -1.780   0.416  0.00  0.00    +0.037 C 
ATOM     15  N   UNL     1       4.340  -0.525  -0.044  0.00  0.00    -0.343 N 
ATOM     16  H   UNL     1       3.764  -1.452   0.098  0.00  0.00    +0.144 HD
ATOM     17  H   UNL     1       5.428  -0.571  -0.197  0.00  0.00    +0.144 HD
ENDROOT
BRANCH   1  18
ATOM     18  C   UNL     1       4.636   4.240  -0.393  0.00  0.00    +0.153 C 
BRANCH  18  19
ATOM     19  S   UNL     1       4.733   4.626  -2.159  0.00  0.00    -0.079 S 
BRANCH  19  22
ATOM     20  C   UNL     1       6.914   7.823  -2.645  0.00  0.00    +0.152 A 
ATOM     21  N   UNL     1       6.158   6.811  -3.170  0.00  0.00    -0.206 NA
ATOM     22  C   UNL     1       5.744   6.068  -2.102  0.00  0.00    +0.185 A 
ATOM     23  N   UNL     1       6.242   6.630  -1.025  0.00  0.00    -0.254 N 
ATOM     24  N   UNL     1       6.938   7.660  -1.353  0.00  0.00    -0.157 NA
ATOM     25  H   UNL     1       6.142   6.348   0.033  0.00  0.00    +0.191 HD
BRANCH  20  27
ATOM     26  C   UNL     1       7.140  10.281  -2.881  0.00  0.00    +0.012 C 
ATOM     27  C   UNL     1       7.594   8.923  -3.419  0.00  0.00    +0.075 C 
ENDBRANCH  20  27
ENDBRANCH  19  22
ENDBRANCH  18  19
ENDBRANCH   1  18
TORSDOF 4
