REMARK  Name = ZINC65420526
REMARK  7 active torsions:
REMARK  status: ('A' for Active; 'I' for Inactive)
REMARK    1  A    between atoms: C_1  and  C_2
REMARK    2  A    between atoms: N_5  and  C_7
REMARK    3  A    between atoms: C_12  and  C_14
REMARK    4  A    between atoms: C_17  and  O_21
REMARK    5  A    between atoms: C_19  and  O_20
REMARK    6  A    between atoms: O_21  and  C_22
REMARK    7  A    between atoms: C_22  and  C_23
REMARK                            x       y       z     vdW  Elec       q    Type
REMARK                         _______ _______ _______ _____ _____    ______ ____
ROOT
ATOM      1  C   UNL     1      -1.440  -0.301  -3.053  0.00  0.00    +0.002 A 
ATOM      2  C   UNL     1      -2.292  -1.386  -2.978  0.00  0.00    +0.011 A 
ATOM      3  C   UNL     1      -3.600  -1.272  -3.408  0.00  0.00    +0.046 A 
ATOM      4  C   UNL     1      -4.062  -0.066  -3.916  0.00  0.00    +0.124 A 
ATOM      5  C   UNL     1      -3.209   1.024  -3.993  0.00  0.00    +0.091 A 
ATOM      6  C   UNL     1      -1.898   0.908  -3.556  0.00  0.00    +0.124 A 
ENDROOT
BRANCH   1  18
ATOM      7  C   UNL     1      -0.018   1.503   0.010  0.00  0.00    +0.068 C 
ATOM      8  C   UNL     1       0.002  -0.004   0.002  0.00  0.00    +0.066 A 
ATOM      9  C   UNL     1       0.008  -0.812  -1.125  0.00  0.00    +0.023 A 
ATOM     10  C   UNL     1       0.033  -2.117  -0.710  0.00  0.00    +0.127 A 
ATOM     11  N   UNL     1       0.033  -2.117   0.631  0.00  0.00    -0.253 N 
ATOM     12  N   UNL     1       0.023  -0.780   1.060  0.00  0.00    -0.175 NA
ATOM     13  C   UNL     1       0.046  -3.301   1.494  0.00  0.00    +0.174 C 
ATOM     14  N   UNL     1       0.065  -3.178  -1.615  0.00  0.00    -0.270 N 
ATOM     15  C   UNL     1       0.275  -2.895  -2.918  0.00  0.00    +0.219 C 
ATOM     16  O   UNL     1       0.120  -3.772  -3.741  0.00  0.00    -0.275 OA
ATOM     17  C   UNL     1       0.695  -1.529  -3.381  0.00  0.00    +0.109 C 
ATOM     18  C   UNL     1      -0.014  -0.430  -2.583  0.00  0.00    +0.066 C 
ATOM     19  H   UNL     1      -0.060  -4.092  -1.316  0.00  0.00    +0.156 HD
ENDBRANCH   1  18
BRANCH   6  20
ATOM     20  O   UNL     1      -1.061   1.977  -3.624  0.00  0.00    -0.506 OA
ATOM     21  H   UNL     1      -0.573   2.042  -4.456  0.00  0.00    +0.292 HD
ENDBRANCH   6  20
BRANCH   4  22
ATOM     22  O   UNL     1      -5.348   0.046  -4.339  0.00  0.00    -0.487 OA
BRANCH  22  23
ATOM     23  C   UNL     1      -6.170  -1.117  -4.231  0.00  0.00    +0.264 C 
BRANCH  23  24
ATOM     24  C   UNL     1      -7.553  -0.805  -4.745  0.00  0.00    -0.010 A 
ATOM     25  C   UNL     1      -8.517  -0.320  -3.881  0.00  0.00    +0.007 A 
ATOM     26  C   UNL     1      -9.785  -0.034  -4.352  0.00  0.00    +0.000 A 
ATOM     27  C   UNL     1     -10.088  -0.233  -5.686  0.00  0.00    +0.000 A 
ATOM     28  C   UNL     1      -9.123  -0.717  -6.550  0.00  0.00    +0.000 A 
ATOM     29  C   UNL     1      -7.854  -0.999  -6.080  0.00  0.00    +0.007 A 
ENDBRANCH  23  24
ENDBRANCH  22  23
ENDBRANCH   4  22
TORSDOF 5
