REMARK  Name = ZINC12539291
REMARK  7 active torsions:
REMARK  status: ('A' for Active; 'I' for Inactive)
REMARK    1  A    between atoms: C_1  and  C_2
REMARK    2  A    between atoms: C_2  and  C_4
REMARK    3  A    between atoms: C_2  and  N_13
REMARK    4  A    between atoms: N_13  and  C_14
REMARK    5  A    between atoms: N_17  and  N_18
REMARK    6  A    between atoms: C_19  and  C_21
REMARK    7  A    between atoms: N_23  and  C_30
REMARK                            x       y       z     vdW  Elec       q    Type
REMARK                         _______ _______ _______ _____ _____    ______ ____
ROOT
ATOM      1  N   UNL     1       4.036   1.989  -0.960  0.00  0.00    -0.278 N 
ATOM      2  C   UNL     1       3.576   3.353  -0.688  0.00  0.00    +0.134 C 
ATOM      3  C   UNL     1       4.831   1.744  -2.020  0.00  0.00    +0.319 C 
ATOM      4  O   UNL     1       5.285   0.630  -2.195  0.00  0.00    -0.251 OA
ATOM      5  N   UNL     1       5.122   2.735  -2.886  0.00  0.00    -0.218 N 
ATOM      6  H   UNL     1       4.821   3.639  -2.708  0.00  0.00    +0.174 HD
ENDROOT
BRANCH   5   7
ATOM      7  N   UNL     1       5.860   2.458  -4.045  0.00  0.00    -0.229 N 
ATOM      8  C   UNL     1       6.065   3.425  -4.960  0.00  0.00    +0.262 C 
ATOM      9  O   UNL     1       5.609   4.539  -4.781  0.00  0.00    -0.269 OA
ATOM     10  H   UNL     1       6.223   1.570  -4.188  0.00  0.00    +0.173 HD
BRANCH   8  11
ATOM     11  C   UNL     1       6.838   3.135  -6.175  0.00  0.00    +0.063 A 
ATOM     12  C   UNL     1       7.408   1.943  -6.515  0.00  0.00    +0.099 A 
ATOM     13  N   UNL     1       8.038   2.060  -7.708  0.00  0.00    -0.349 N 
ATOM     14  C   UNL     1       7.905   3.342  -8.200  0.00  0.00    +0.050 A 
ATOM     15  C   UNL     1       7.146   4.072  -7.271  0.00  0.00    +0.012 A 
ATOM     16  C   UNL     1       6.856   5.413  -7.506  0.00  0.00    +0.011 A 
ATOM     17  C   UNL     1       7.310   6.017  -8.659  0.00  0.00    +0.001 A 
ATOM     18  C   UNL     1       8.055   5.296  -9.580  0.00  0.00    +0.002 A 
ATOM     19  C   UNL     1       8.353   3.969  -9.357  0.00  0.00    +0.026 A 
ATOM     20  C   UNL     1       8.760   0.977  -8.381  0.00  0.00    +0.149 C 
ENDBRANCH   8  11
ENDBRANCH   5   7
BRANCH   1  22
ATOM     21  C   UNL     1       4.122   1.170   1.343  0.00  0.00    +0.036 C 
ATOM     22  C   UNL     1       3.631   0.890  -0.079  0.00  0.00    +0.140 C 
BRANCH  22  23
ATOM     23  C   UNL     1       2.129   0.775  -0.077  0.00  0.00    +0.126 A 
ATOM     24  C   UNL     1       1.448  -0.380  -0.084  0.00  0.00    +0.055 A 
ATOM     25  C   UNL     1       0.026  -0.016  -0.080  0.00  0.00    +0.020 A 
ATOM     26  C   UNL     1      -1.165  -0.740  -0.083  0.00  0.00    +0.011 A 
ATOM     27  C   UNL     1      -2.361  -0.078  -0.076  0.00  0.00    +0.001 A 
ATOM     28  C   UNL     1      -2.396   1.309  -0.066  0.00  0.00    +0.004 A 
ATOM     29  C   UNL     1      -1.228   2.042  -0.059  0.00  0.00    +0.047 A 
ATOM     30  C   UNL     1      -0.002   1.388  -0.070  0.00  0.00    +0.135 A 
ATOM     31  O   UNL     1       1.276   1.815  -0.069  0.00  0.00    -0.458 OA
ENDBRANCH  22  23
ENDBRANCH   1  22
TORSDOF 4
