REMARK  Name = ZINC61714621
REMARK  5 active torsions:
REMARK  status: ('A' for Active; 'I' for Inactive)
REMARK    1  A    between atoms: C_1  and  C_2
REMARK    2  A    between atoms: N_11  and  C_12
REMARK    3  A    between atoms: C_12  and  C_13
REMARK    4  A    between atoms: C_12  and  C_14
REMARK    5  A    between atoms: C_12  and  C_15
REMARK                            x       y       z     vdW  Elec       q    Type
REMARK                         _______ _______ _______ _____ _____    ______ ____
ROOT
ATOM      1  C   UNL     1      -0.019   1.526   0.010  0.00  0.00    +0.008 C 
ATOM      2  C   UNL     1       0.002  -0.004   0.002  0.00  0.00    -0.009 C 
ATOM      3  C   UNL     1      -1.433  -0.537   0.020  0.00  0.00    +0.010 C 
ATOM      4  C   UNL     1      -1.438  -2.046  -0.234  0.00  0.00    +0.056 C 
ATOM      5  C   UNL     1      -0.479  -2.708   0.745  0.00  0.00    +0.054 A 
ATOM      6  C   UNL     1       0.471  -1.978   1.381  0.00  0.00    +0.014 A 
ATOM      7  S   UNL     1       1.292  -3.192   2.376  0.00  0.00    -0.057 S 
ATOM      8  C   UNL     1       0.368  -4.521   1.906  0.00  0.00    +0.159 A 
ATOM      9  N   UNL     1      -0.487  -4.004   1.050  0.00  0.00    -0.230 NA
ATOM     10  N   UNL     1       0.481  -5.839   2.320  0.00  0.00    -0.319 N 
ATOM     11  C   UNL     1       0.739  -0.516   1.250  0.00  0.00    +0.047 C 
ATOM     12  H   UNL     1       1.164  -6.088   2.963  0.00  0.00    +0.148 HD
ENDROOT
BRANCH  10  13
ATOM     13  C   UNL     1      -0.429  -6.856   1.786  0.00  0.00    +0.025 C 
ATOM     14  C   UNL     1      -0.274  -6.931   0.266  0.00  0.00    +0.031 C 
ATOM     15  C   UNL     1      -0.092  -8.215   2.401  0.00  0.00    +0.031 C 
ATOM     16  C   UNL     1      -1.871  -6.482   2.134  0.00  0.00    +0.031 C 
ENDBRANCH  10  13
TORSDOF 1
