REMARK  Name = ZINC38857866
REMARK  8 active torsions:
REMARK  status: ('A' for Active; 'I' for Inactive)
REMARK    1  A    between atoms: C_1  and  C_2
REMARK    2  A    between atoms: C_2  and  O_3
REMARK    3  A    between atoms: O_3  and  C_4
REMARK    4  A    between atoms: C_4  and  C_6
REMARK    5  A    between atoms: C_10  and  N_11
REMARK    6  A    between atoms: C_12  and  C_14
REMARK    7  A    between atoms: N_17  and  S_26
REMARK    8  A    between atoms: S_26  and  C_29
REMARK                            x       y       z     vdW  Elec       q    Type
REMARK                         _______ _______ _______ _____ _____    ______ ____
ROOT
ATOM      1  N   UNL     1      -0.604  -2.455  -3.925  0.00  0.00    -0.276 N 
ATOM      2  C   UNL     1      -1.119  -2.783  -5.126  0.00  0.00    +0.260 C 
ATOM      3  O   UNL     1      -0.397  -3.225  -5.995  0.00  0.00    -0.271 OA
ATOM      4  H   UNL     1      -1.181  -2.102  -3.230  0.00  0.00    +0.155 HD
ENDROOT
BRANCH   2   5
ATOM      5  C   UNL     1      -2.591  -2.599  -5.391  0.00  0.00    +0.278 C 
ATOM      6  C   UNL     1      -2.939  -1.105  -5.350  0.00  0.00    +0.185 C 
ATOM      7  N   UNL     1      -4.372  -0.972  -5.662  0.00  0.00    -0.200 N 
ATOM      8  C   UNL     1      -4.891  -1.767  -6.696  0.00  0.00    +0.094 A 
ATOM      9  C   UNL     1      -6.142  -1.489  -7.225  0.00  0.00    +0.048 A 
ATOM     10  C   UNL     1      -6.650  -2.276  -8.242  0.00  0.00    +0.043 A 
ATOM     11  C   UNL     1      -5.911  -3.339  -8.731  0.00  0.00    +0.024 A 
ATOM     12  C   UNL     1      -4.663  -3.619  -8.207  0.00  0.00    +0.049 A 
ATOM     13  C   UNL     1      -4.145  -2.834  -7.189  0.00  0.00    +0.144 A 
ATOM     14  O   UNL     1      -2.913  -3.115  -6.685  0.00  0.00    -0.476 OA
ATOM     15 CL   UNL     1      -8.217  -1.931  -8.906  0.00  0.00    -0.083 Cl
BRANCH   7  16
ATOM     16  S   UNL     1      -5.339   0.076  -4.820  0.00  0.00    +0.043 S 
ATOM     17  O   UNL     1      -6.645  -0.473  -4.923  0.00  0.00    -0.155 OA
ATOM     18  O   UNL     1      -4.708   0.214  -3.554  0.00  0.00    -0.155 OA
ATOM     19  C   UNL     1      -5.243   1.638  -5.738  0.00  0.00    +0.218 C 
ENDBRANCH   7  16
ENDBRANCH   2   5
BRANCH   1  24
ATOM     20  C   UNL     1       1.449  -2.344  -2.516  0.00  0.00    +0.091 A 
ATOM     21  C   UNL     1       2.876  -2.619  -2.515  0.00  0.00    -0.021 A 
ATOM     22  C   UNL     1       3.343  -3.117  -3.680  0.00  0.00    -0.004 A 
ATOM     23  S   UNL     1       1.922  -3.212  -4.730  0.00  0.00    -0.077 S 
ATOM     24  C   UNL     1       0.750  -2.624  -3.681  0.00  0.00    +0.086 A 
ATOM     25  C   UNL     1       4.757  -3.498  -3.993  0.00  0.00    +0.043 C 
ATOM     26  C   UNL     1       5.669  -2.887  -2.920  0.00  0.00    +0.005 C 
ATOM     27  C   UNL     1       5.082  -3.191  -1.538  0.00  0.00    +0.005 C 
ATOM     28  C   UNL     1       3.799  -2.383  -1.329  0.00  0.00    +0.037 C 
BRANCH  20  29
ATOM     29  C   UNL     1       0.776  -1.800  -1.335  0.00  0.00    +0.342 C 
ATOM     30  O   UNL     1       0.312  -2.552  -0.499  0.00  0.00    -0.245 OA
BRANCH  29  31
ATOM     31  O   UNL     1       0.671  -0.465  -1.174  0.00  0.00    -0.461 OA
BRANCH  31  33
ATOM     32  C   UNL     1      -0.019   1.526   0.010  0.00  0.00    +0.048 C 
ATOM     33  C   UNL     1       0.002  -0.004   0.002  0.00  0.00    +0.229 C 
ENDBRANCH  31  33
ENDBRANCH  29  31
ENDBRANCH  20  29
ENDBRANCH   1  24
TORSDOF 6
