REMARK  Name = ZINC39770317
REMARK  8 active torsions:
REMARK  status: ('A' for Active; 'I' for Inactive)
REMARK    1  A    between atoms: C_1  and  C_2
REMARK    2  A    between atoms: C_4  and  C_9
REMARK    3  A    between atoms: C_5  and  C_8
REMARK    4  A    between atoms: C_9  and  C_10
REMARK    5  A    between atoms: C_10  and  C_11
REMARK    6  A    between atoms: N_13  and  N_14
REMARK    7  A    between atoms: C_15  and  C_16
REMARK    8  A    between atoms: C_21  and  O_22
REMARK                            x       y       z     vdW  Elec       q    Type
REMARK                         _______ _______ _______ _____ _____    ______ ____
ROOT
ATOM      1  C   UNL     1      -4.388   1.127  -1.594  0.00  0.00    +0.232 C 
ATOM      2  O   UNL     1      -4.584   0.297  -2.457  0.00  0.00    -0.274 OA
ATOM      3  N   UNL     1      -5.175   2.218  -1.517  0.00  0.00    -0.207 N 
ATOM      4  H   UNL     1      -5.019   2.881  -0.827  0.00  0.00    +0.177 HD
ENDROOT
BRANCH   3   5
ATOM      5  N   UNL     1      -6.220   2.394  -2.434  0.00  0.00    -0.188 NA
ATOM      6  C   UNL     1      -6.978   3.446  -2.360  0.00  0.00    +0.142 C 
BRANCH   6   7
ATOM      7  C   UNL     1      -8.076   3.631  -3.325  0.00  0.00    +0.037 A 
ATOM      8  C   UNL     1      -8.891   4.763  -3.252  0.00  0.00    +0.028 A 
ATOM      9  C   UNL     1      -9.917   4.931  -4.159  0.00  0.00    +0.019 A 
ATOM     10  C   UNL     1     -10.144   3.981  -5.141  0.00  0.00    +0.019 A 
ATOM     11  C   UNL     1      -9.345   2.856  -5.222  0.00  0.00    +0.047 A 
ATOM     12  C   UNL     1      -8.306   2.675  -4.324  0.00  0.00    +0.126 A 
ATOM     13 BR   UNL     1     -11.020   6.464  -4.060  0.00  0.00    -0.050 Br
BRANCH  12  14
ATOM     14  O   UNL     1      -7.517   1.573  -4.407  0.00  0.00    -0.506 OA
ATOM     15  H   UNL     1      -7.836   0.821  -3.890  0.00  0.00    +0.292 HD
ENDBRANCH  12  14
ENDBRANCH   6   7
ENDBRANCH   3   5
BRANCH   1  16
ATOM     16  C   UNL     1      -3.265   0.937  -0.608  0.00  0.00    +0.102 C 
BRANCH  16  17
ATOM     17  C   UNL     1      -2.532  -0.371  -0.914  0.00  0.00    +0.044 C 
BRANCH  17  20
ATOM     18  C   UNL     1      -0.019   1.526   0.010  0.00  0.00    +0.039 C 
ATOM     19  C   UNL     1       0.002  -0.004   0.002  0.00  0.00    +0.153 C 
ATOM     20  C   UNL     1      -1.409  -0.561   0.072  0.00  0.00    -0.021 C 
ATOM     21  C   UNL     1      -1.423  -1.257   1.211  0.00  0.00    +0.061 C 
ATOM     22  N   UNL     1      -0.222  -1.193   1.828  0.00  0.00    -0.159 NA
ATOM     23  N   UNL     1       0.629  -0.523   1.230  0.00  0.00    -0.180 NA
ATOM     24  C   UNL     1      -2.617  -2.011   1.738  0.00  0.00    +0.067 C 
ENDBRANCH  17  20
ENDBRANCH  16  17
ENDBRANCH   1  16
TORSDOF 6
