REMARK  Name = ZINC44444980
REMARK  6 active torsions:
REMARK  status: ('A' for Active; 'I' for Inactive)
REMARK    1  A    between atoms: C_1  and  C_2
REMARK    2  A    between atoms: N_7  and  C_8
REMARK    3  A    between atoms: C_8  and  C_9
REMARK    4  A    between atoms: N_16  and  C_17
REMARK    5  A    between atoms: C_20  and  O_23
REMARK    6  A    between atoms: O_23  and  C_24
REMARK                            x       y       z     vdW  Elec       q    Type
REMARK                         _______ _______ _______ _____ _____    ______ ____
ROOT
ATOM      1  C   UNL     1      -0.916   1.455   0.075  0.00  0.00    +0.075 C 
ATOM      2  C   UNL     1      -0.681  -0.034   0.053  0.00  0.00    +0.101 A 
ATOM      3  N   UNL     1      -0.519  -0.848  -0.969  0.00  0.00    -0.145 NA
ATOM      4  N   UNL     1      -0.333  -2.079  -0.751  0.00  0.00    -0.125 NA
ATOM      5  C   UNL     1      -0.296  -2.572   0.471  0.00  0.00    +0.192 A 
ATOM      6  S   UNL     1      -0.537  -1.192   1.407  0.00  0.00    -0.035 S 
ATOM      7  N   UNL     1      -0.103  -3.887   0.880  0.00  0.00    -0.228 N 
ATOM      8  C   UNL     1      -0.100  -4.190   2.194  0.00  0.00    +0.313 C 
ATOM      9  O   UNL     1      -0.266  -3.314   3.020  0.00  0.00    -0.252 OA
ATOM     10  N   UNL     1       0.087  -5.465   2.591  0.00  0.00    -0.269 N 
ATOM     11  H   UNL     1       0.143  -6.175   1.932  0.00  0.00    +0.156 HD
ENDROOT
BRANCH  10  12
ATOM     12  C   UNL     1       0.202  -5.764   3.955  0.00  0.00    +0.035 A 
ATOM     13  C   UNL     1      -0.275  -6.973   4.443  0.00  0.00    +0.027 A 
ATOM     14  C   UNL     1      -0.162  -7.267   5.788  0.00  0.00    +0.047 A 
ATOM     15  C   UNL     1       0.428  -6.355   6.650  0.00  0.00    +0.120 A 
ATOM     16  C   UNL     1       0.905  -5.147   6.163  0.00  0.00    +0.047 A 
ATOM     17  C   UNL     1       0.799  -4.854   4.818  0.00  0.00    +0.027 A 
BRANCH  15  18
ATOM     18  O   UNL     1       0.539  -6.645   7.974  0.00  0.00    -0.495 OA
ATOM     19  C   UNL     1       1.158  -5.660   8.805  0.00  0.00    +0.277 C 
ENDBRANCH  15  18
ENDBRANCH  10  12
BRANCH   7  20
ATOM     20  C   UNL     1       0.097  -4.943  -0.116  0.00  0.00    +0.153 C 
BRANCH  20  21
ATOM     21  C   UNL     1       1.569  -5.084  -0.409  0.00  0.00    -0.023 A 
ATOM     22  C   UNL     1       2.158  -4.341  -1.415  0.00  0.00    +0.013 A 
ATOM     23  C   UNL     1       3.483  -4.492  -1.654  0.00  0.00    +0.045 A 
ATOM     24  S   UNL     1       3.941  -5.714  -0.436  0.00  0.00    -0.105 S 
ATOM     25  C   UNL     1       2.336  -5.937   0.312  0.00  0.00    +0.050 A 
ENDBRANCH  20  21
ENDBRANCH   7  20
TORSDOF 4
