REMARK  Name = ZINC31167701
REMARK  11 active torsions:
REMARK  status: ('A' for Active; 'I' for Inactive)
REMARK    1  A    between atoms: C_1  and  O_2
REMARK    2  A    between atoms: O_2  and  C_3
REMARK    3  A    between atoms: C_5  and  O_29
REMARK    4  A    between atoms: C_6  and  C_19
REMARK    5  A    between atoms: C_7  and  O_18
REMARK    6  A    between atoms: C_8  and  C_9
REMARK    7  A    between atoms: C_9  and  C_10
REMARK    8  A    between atoms: C_14  and  O_17
REMARK    9  A    between atoms: C_15  and  O_16
REMARK   10  A    between atoms: C_19  and  C_21
REMARK   11  A    between atoms: C_22  and  C_23
REMARK                            x       y       z     vdW  Elec       q    Type
REMARK                         _______ _______ _______ _____ _____    ______ ____
ROOT
ATOM      1  C   UNL     1      -1.832   1.261   1.304  0.00  0.00    +0.131 A 
ATOM      2  C   UNL     1      -2.402   0.427   0.350  0.00  0.00    +0.092 A 
ATOM      3  C   UNL     1      -3.687  -0.053   0.525  0.00  0.00    +0.135 A 
ATOM      4  C   UNL     1      -4.420   0.313   1.667  0.00  0.00    +0.105 A 
ATOM      5  C   UNL     1      -3.838   1.160   2.623  0.00  0.00    +0.138 A 
ATOM      6  C   UNL     1      -2.550   1.627   2.436  0.00  0.00    +0.041 A 
ENDROOT
BRANCH   1   8
ATOM      7  C   UNL     1       0.114   1.309  -0.057  0.00  0.00    +0.277 C 
ATOM      8  O   UNL     1      -0.569   1.724   1.127  0.00  0.00    -0.495 OA
ENDBRANCH   1   8
BRANCH   5   9
ATOM      9  O   UNL     1      -4.537   1.519   3.729  0.00  0.00    -0.506 OA
ATOM     10  H   UNL     1      -4.080   2.182   4.478  0.00  0.00    +0.292 HD
ENDBRANCH   5   9
BRANCH   4  11
ATOM     11  C   UNL     1      -5.790  -0.189   1.858  0.00  0.00    +0.193 C 
ATOM     12  O   UNL     1      -6.729   0.396   1.348  0.00  0.00    -0.287 OA
BRANCH  11  13
ATOM     13  C   UNL     1      -6.024  -1.390   2.662  0.00  0.00    +0.052 C 
ATOM     14  C   UNL     1      -7.285  -1.792   2.922  0.00  0.00    +0.012 C 
BRANCH  14  15
ATOM     15  C   UNL     1      -7.520  -3.000   3.730  0.00  0.00    -0.025 A 
ATOM     16  C   UNL     1      -6.439  -3.737   4.224  0.00  0.00    +0.008 A 
ATOM     17  C   UNL     1      -6.668  -4.864   4.984  0.00  0.00    +0.001 A 
ATOM     18  C   UNL     1      -7.963  -5.273   5.249  0.00  0.00    +0.000 A 
ATOM     19  C   UNL     1      -9.039  -4.552   4.760  0.00  0.00    +0.001 A 
ATOM     20  C   UNL     1      -8.826  -3.420   4.003  0.00  0.00    +0.008 A 
ENDBRANCH  14  15
ENDBRANCH  11  13
ENDBRANCH   4  11
BRANCH   3  21
ATOM     21  O   UNL     1      -4.240  -0.871  -0.405  0.00  0.00    -0.506 OA
ATOM     22  H   UNL     1      -5.262  -1.252  -0.264  0.00  0.00    +0.292 HD
ENDBRANCH   3  21
BRANCH   6  23
ATOM     23  C   UNL     1      -1.923   2.536   3.462  0.00  0.00    +0.081 C 
BRANCH  23  24
ATOM     24  C   UNL     1      -1.325   1.707   4.569  0.00  0.00    +0.002 A 
ATOM     25  C   UNL     1      -2.070   1.421   5.698  0.00  0.00    +0.008 A 
ATOM     26  C   UNL     1      -1.524   0.660   6.715  0.00  0.00    +0.004 A 
ATOM     27  C   UNL     1      -0.231   0.183   6.608  0.00  0.00    +0.049 A 
ATOM     28  C   UNL     1       0.521   0.466   5.479  0.00  0.00    +0.159 A 
ATOM     29  C   UNL     1      -0.031   1.226   4.452  0.00  0.00    +0.162 A 
BRANCH  29  30
ATOM     30  O   UNL     1       0.701   1.502   3.340  0.00  0.00    -0.503 OA
ATOM     31  H   UNL     1       1.729   1.120   3.249  0.00  0.00    +0.292 HD
ENDBRANCH  29  30
BRANCH  28  32
ATOM     32  O   UNL     1       1.793  -0.003   5.373  0.00  0.00    -0.503 OA
ATOM     33  H   UNL     1       2.389   0.223   4.476  0.00  0.00    +0.292 HD
ENDBRANCH  28  32
ENDBRANCH  23  24
ENDBRANCH   6  23
TORSDOF 10
