REMARK  Name = ZINC64151491
REMARK  5 active torsions:
REMARK  status: ('A' for Active; 'I' for Inactive)
REMARK    1  A    between atoms: C_4  and  C_7
REMARK    2  A    between atoms: C_7  and  C_8
REMARK    3  A    between atoms: C_11  and  N_14
REMARK    4  A    between atoms: C_15  and  C_17
REMARK    5  A    between atoms: C_20  and  C_22
REMARK                            x       y       z     vdW  Elec       q    Type
REMARK                         _______ _______ _______ _____ _____    ______ ____
ROOT
ATOM      1  N   UNL     1       6.412  -0.827   4.377  0.00  0.00    -0.282 N 
ATOM      2  C   UNL     1       7.568  -1.408   4.756  0.00  0.00    +0.262 C 
ATOM      3  O   UNL     1       7.742  -2.597   4.568  0.00  0.00    -0.269 OA
ATOM      4  H   UNL     1       6.274   0.121   4.528  0.00  0.00    +0.152 HD
ENDROOT
BRANCH   1   8
ATOM      5  C   UNL     1       4.164  -0.959   1.377  0.00  0.00    +0.099 C 
ATOM      6  N   UNL     1       3.568  -0.631   2.474  0.00  0.00    -0.182 NA
ATOM      7  N   UNL     1       4.070  -0.911   3.725  0.00  0.00    -0.238 N 
ATOM      8  C   UNL     1       5.365  -1.628   3.737  0.00  0.00    +0.241 C 
ATOM      9  S   UNL     1       5.648  -1.789   1.926  0.00  0.00    -0.065 S 
ATOM     10  H   UNL     1       3.608  -0.657   4.539  0.00  0.00    +0.171 HD
BRANCH   5  11
ATOM     11  C   UNL     1       3.711  -0.707  -0.038  0.00  0.00    +0.099 C 
BRANCH  11  15
ATOM     12  C   UNL     1      -0.017   1.378   0.010  0.00  0.00    +0.000 A 
ATOM     13  C   UNL     1       1.171   2.086   0.002  0.00  0.00    +0.000 A 
ATOM     14  C   UNL     1       2.377   1.411  -0.013  0.00  0.00    +0.004 A 
ATOM     15  C   UNL     1       2.396   0.029  -0.020  0.00  0.00    -0.041 A 
ATOM     16  C   UNL     1       1.208  -0.679  -0.012  0.00  0.00    +0.004 A 
ATOM     17  C   UNL     1       0.002  -0.004   0.002  0.00  0.00    +0.000 A 
ENDBRANCH  11  15
ENDBRANCH   5  11
ENDBRANCH   1   8
BRANCH   2  18
ATOM     18  C   UNL     1       8.616  -0.606   5.397  0.00  0.00    +0.131 C 
ATOM     19  N   UNL     1       8.584   0.671   5.675  0.00  0.00    -0.148 NA
ATOM     20  N   UNL     1       9.639   1.116   6.236  0.00  0.00    -0.153 NA
ATOM     21  C   UNL     1      10.566   0.209   6.435  0.00  0.00    +0.077 C 
ATOM     22  C   UNL     1       9.974  -1.080   5.889  0.00  0.00    +0.120 C 
BRANCH  21  23
ATOM     23  C   UNL     1      11.885   0.397   7.052  0.00  0.00    -0.002 A 
ATOM     24  C   UNL     1      12.763  -0.686   7.182  0.00  0.00    +0.010 A 
ATOM     25  C   UNL     1      13.999  -0.500   7.763  0.00  0.00    +0.001 A 
ATOM     26  C   UNL     1      14.373   0.752   8.219  0.00  0.00    +0.000 A 
ATOM     27  C   UNL     1      13.511   1.829   8.095  0.00  0.00    +0.001 A 
ATOM     28  C   UNL     1      12.274   1.663   7.511  0.00  0.00    +0.010 A 
ENDBRANCH  21  23
ENDBRANCH   2  18
TORSDOF 5
