REMARK  Name = ZINC07204064
REMARK  8 active torsions:
REMARK  status: ('A' for Active; 'I' for Inactive)
REMARK    1  A    between atoms: C_1  and  C_2
REMARK    2  A    between atoms: C_2  and  C_4
REMARK    3  A    between atoms: C_2  and  S_11
REMARK    4  A    between atoms: N_6  and  C_7
REMARK    5  A    between atoms: C_7  and  C_8
REMARK    6  A    between atoms: C_8  and  C_9
REMARK    7  A    between atoms: C_8  and  C_10
REMARK    8  A    between atoms: S_11  and  C_12
REMARK                            x       y       z     vdW  Elec       q    Type
REMARK                         _______ _______ _______ _____ _____    ______ ____
ROOT
ATOM      1  C   UNL     1      -0.229  -0.241   2.820  0.00  0.00    +0.192 A 
ATOM      2  N   UNL     1      -1.347   0.431   2.571  0.00  0.00    -0.207 NA
ATOM      3  C   UNL     1      -2.058   0.994   3.533  0.00  0.00    +0.129 A 
ATOM      4  C   UNL     1      -1.617   0.880   4.881  0.00  0.00    +0.051 A 
ATOM      5  C   UNL     1      -2.237   1.417   6.095  0.00  0.00    -0.025 A 
ATOM      6  C   UNL     1      -1.613   1.166   7.263  0.00  0.00    -0.004 A 
ATOM      7  S   UNL     1      -0.183   0.212   6.828  0.00  0.00    -0.073 S 
ATOM      8  C   UNL     1      -0.425   0.153   5.072  0.00  0.00    +0.115 A 
ATOM      9  N   UNL     1       0.226  -0.384   4.058  0.00  0.00    -0.214 NA
ATOM     10  C   UNL     1      -2.039   1.602   8.632  0.00  0.00    +0.043 C 
ATOM     11  C   UNL     1      -3.100   2.700   8.483  0.00  0.00    +0.005 C 
ATOM     12  C   UNL     1      -4.144   2.239   7.461  0.00  0.00    +0.005 C 
ATOM     13  C   UNL     1      -3.529   2.228   6.061  0.00  0.00    +0.037 C 
ATOM     14  N   UNL     1      -3.217   1.686   3.232  0.00  0.00    -0.343 N 
ATOM     15  H   UNL     1      -3.641   1.569   2.368  0.00  0.00    +0.144 HD
ATOM     16  H   UNL     1      -3.606   2.288   3.885  0.00  0.00    +0.144 HD
ENDROOT
BRANCH   1  17
ATOM     17  S   UNL     1       0.663  -0.962   1.483  0.00  0.00    -0.073 S 
BRANCH  17  19
ATOM     18  C   UNL     1      -0.285   1.000  -0.170  0.00  0.00    +0.029 C 
ATOM     19  C   UNL     1      -0.309  -0.518   0.017  0.00  0.00    +0.137 C 
BRANCH  19  20
ATOM     20  C   UNL     1       0.284  -1.183  -1.199  0.00  0.00    +0.226 C 
ATOM     21  O   UNL     1       1.432  -1.574  -1.177  0.00  0.00    -0.275 OA
ATOM     22  N   UNL     1      -0.461  -1.342  -2.310  0.00  0.00    -0.314 N 
ATOM     23  H   UNL     1      -1.379  -1.028  -2.328  0.00  0.00    +0.149 HD
BRANCH  22  24
ATOM     24  C   UNL     1       0.115  -1.988  -3.492  0.00  0.00    +0.107 C 
BRANCH  24  25
ATOM     25  C   UNL     1      -0.933  -2.042  -4.606  0.00  0.00    -0.000 C 
ATOM     26  C   UNL     1      -1.280  -0.619  -5.050  0.00  0.00    +0.009 C 
ATOM     27  C   UNL     1      -0.375  -2.826  -5.795  0.00  0.00    +0.009 C 
ENDBRANCH  24  25
ENDBRANCH  22  24
ENDBRANCH  19  20
ENDBRANCH  17  19
ENDBRANCH   1  17
TORSDOF 5
