REMARK  Name = ZINC04253864
REMARK  6 active torsions:
REMARK  status: ('A' for Active; 'I' for Inactive)
REMARK    1  A    between atoms: C_3  and  N_27
REMARK    2  A    between atoms: C_6  and  C_7
REMARK    3  A    between atoms: C_7  and  N_53
REMARK    4  A    between atoms: C_12  and  C_13
REMARK    5  A    between atoms: C_12  and  C_20
REMARK    6  A    between atoms: C_12  and  N_55
REMARK                            x       y       z     vdW  Elec       q    Type
REMARK                         _______ _______ _______ _____ _____    ______ ____
ROOT
ATOM      1  C   UNL     1      -1.213   2.191  -0.608  0.00  0.00    -0.097 C 
ATOM      2  C   UNL     1      -1.080   3.715  -0.664  0.00  0.00    -0.097 C 
ATOM      3  C   UNL     1       1.184   3.549   0.174  0.00  0.00    -0.097 C 
ATOM      4  C   UNL     1       1.052   2.025   0.231  0.00  0.00    -0.097 C 
ATOM      5  N   UNL     1      -0.362   1.679   0.487  0.00  0.00    +0.380 N 
ATOM      6  H   UNL     1      -0.657   2.113   1.369  0.00  0.00    -0.082 HD
ATOM      7  N   UNL     1       0.334   4.061  -0.921  0.00  0.00    +0.385 N 
ATOM      8  H   UNL     1       0.629   3.627  -1.803  0.00  0.00    -0.081 HD
ENDROOT
BRANCH   5   9
ATOM      9  C   UNL     1      -0.511   0.212   0.599  0.00  0.00    -0.043 C 
BRANCH   9  15
ATOM     10  C   UNL     1      -2.171  -0.183   2.430  0.00  0.00    +0.004 A 
ATOM     11  C   UNL     1      -3.451  -0.465   2.868  0.00  0.00    +0.033 A 
ATOM     12  C   UNL     1      -4.465  -0.673   1.952  0.00  0.00    +0.126 A 
ATOM     13  C   UNL     1      -4.199  -0.595   0.597  0.00  0.00    +0.033 A 
ATOM     14  C   UNL     1      -2.920  -0.309   0.160  0.00  0.00    +0.004 A 
ATOM     15  C   UNL     1      -1.906  -0.100   1.076  0.00  0.00    -0.064 A 
BRANCH  12  16
ATOM     16  N   UNL     1      -5.835  -0.980   2.421  0.00  0.00    +0.056 N 
ATOM     17  O   UNL     1      -6.729  -1.163   1.613  0.00  0.00    -0.126 OA
ATOM     18  O   UNL     1      -6.069  -1.049   3.614  0.00  0.00    -0.126 OA
ENDBRANCH  12  16
ENDBRANCH   9  15
ENDBRANCH   5   9
BRANCH   7  19
ATOM     19  C   UNL     1       0.483   5.528  -1.033  0.00  0.00    -0.007 C 
BRANCH  19  20
ATOM     20  C   UNL     1       1.901   5.845  -1.432  0.00  0.00    -0.057 A 
ATOM     21  C   UNL     1       2.529   5.093  -2.407  0.00  0.00    +0.005 A 
ATOM     22  C   UNL     1       3.828   5.386  -2.777  0.00  0.00    +0.038 A 
ATOM     23  C   UNL     1       4.504   6.426  -2.164  0.00  0.00    +0.123 A 
ATOM     24  C   UNL     1       3.876   7.176  -1.183  0.00  0.00    +0.038 A 
ATOM     25  C   UNL     1       2.575   6.884  -0.818  0.00  0.00    +0.005 A 
ATOM     26  F   UNL     1       5.775   6.710  -2.522  0.00  0.00    -0.205 F 
ENDBRANCH  19  20
BRANCH  19  27
ATOM     27  C   UNL     1      -0.463   6.039  -2.089  0.00  0.00    -0.057 A 
ATOM     28  C   UNL     1      -0.577   5.372  -3.295  0.00  0.00    +0.005 A 
ATOM     29  C   UNL     1      -1.447   5.836  -4.263  0.00  0.00    +0.038 A 
ATOM     30  C   UNL     1      -2.197   6.977  -4.029  0.00  0.00    +0.123 A 
ATOM     31  C   UNL     1      -2.077   7.647  -2.823  0.00  0.00    +0.038 A 
ATOM     32  C   UNL     1      -1.210   7.177  -1.855  0.00  0.00    +0.005 A 
ATOM     33  F   UNL     1      -3.044   7.435  -4.976  0.00  0.00    -0.205 F 
ENDBRANCH  19  27
ENDBRANCH   7  19
TORSDOF 6
