REMARK  Name = ZINC01306019
REMARK  7 active torsions:
REMARK  status: ('A' for Active; 'I' for Inactive)
REMARK    1  A    between atoms: C_1  and  C_2
REMARK    2  A    between atoms: C_2  and  C_3
REMARK    3  A    between atoms: C_2  and  C_4
REMARK    4  A    between atoms: N_14  and  C_28
REMARK    5  A    between atoms: C_15  and  S_17
REMARK    6  A    between atoms: S_17  and  C_18
REMARK    7  A    between atoms: C_18  and  C_19
REMARK                            x       y       z     vdW  Elec       q    Type
REMARK                         _______ _______ _______ _____ _____    ______ ____
ROOT
ATOM      1  C   UNL     1       2.455   4.263   6.843  0.00  0.00    +0.126 C 
ATOM      2  C   UNL     1       2.045   3.798   5.442  0.00  0.00    +0.068 C 
ATOM      3  C   UNL     1       1.950   2.275   5.458  0.00  0.00    -0.018 A 
ATOM      4  C   UNL     1       2.544   1.581   6.453  0.00  0.00    +0.021 A 
ATOM      5  S   UNL     1       2.195  -0.118   6.100  0.00  0.00    -0.071 S 
ATOM      6  C   UNL     1       1.251   0.108   4.613  0.00  0.00    +0.117 A 
ATOM      7  C   UNL     1       1.239   1.503   4.441  0.00  0.00    +0.076 A 
ATOM      8  C   UNL     1       0.537   1.983   3.290  0.00  0.00    +0.263 A 
ATOM      9  O   UNL     1       0.477   3.178   3.057  0.00  0.00    -0.267 OA
ATOM     10  N   UNL     1      -0.061   1.097   2.472  0.00  0.00    -0.284 N 
ATOM     11  C   UNL     1       0.000  -0.244   2.715  0.00  0.00    +0.173 A 
ATOM     12  N   UNL     1       0.645  -0.713   3.764  0.00  0.00    -0.216 NA
ATOM     13  C   UNL     1       3.323   2.159   7.594  0.00  0.00    +0.203 C 
ATOM     14  O   UNL     1       3.602   3.534   7.287  0.00  0.00    -0.371 OA
ENDROOT
BRANCH  10  15
ATOM     15  C   UNL     1      -0.786   1.583   1.295  0.00  0.00    +0.093 C 
ATOM     16  C   UNL     1      -1.923   2.504   1.740  0.00  0.00    +0.025 C 
ATOM     17  C   UNL     1      -2.680   3.011   0.511  0.00  0.00    +0.002 C 
ATOM     18  C   UNL     1      -1.721   3.786  -0.395  0.00  0.00    +0.000 C 
ATOM     19  C   UNL     1      -0.584   2.864  -0.840  0.00  0.00    +0.002 C 
ATOM     20  C   UNL     1       0.173   2.358   0.389  0.00  0.00    +0.025 C 
ENDBRANCH  10  15
BRANCH   1  22
ATOM     21  C   UNL     1       3.200   6.223   8.202  0.00  0.00    +0.010 C 
ATOM     22  C   UNL     1       2.790   5.755   6.804  0.00  0.00    +0.012 C 
ATOM     23  C   UNL     1       3.944   5.994   5.828  0.00  0.00    +0.010 C 
ENDBRANCH   1  22
BRANCH  11  24
ATOM     24  S   UNL     1      -0.793  -1.364   1.610  0.00  0.00    -0.078 S 
BRANCH  24  25
ATOM     25  C   UNL     1      -0.388  -2.936   2.411  0.00  0.00    +0.173 C 
BRANCH  25  26
ATOM     26  C   UNL     1      -0.981  -4.072   1.617  0.00  0.00    +0.229 C 
ATOM     27  O   UNL     1      -1.615  -3.841   0.610  0.00  0.00    -0.275 OA
ATOM     28  N   UNL     1      -0.806  -5.344   2.028  0.00  0.00    -0.270 N 
ATOM     29  C   UNL     1      -1.263  -6.399   1.240  0.00  0.00    +0.125 A 
ATOM     30  C   UNL     1      -1.189  -7.701   1.722  0.00  0.00    +0.044 A 
ATOM     31  C   UNL     1      -1.646  -8.739   0.930  0.00  0.00    +0.005 A 
ATOM     32  C   UNL     1      -2.163  -8.438  -0.323  0.00  0.00    +0.020 A 
ATOM     33  C   UNL     1      -2.207  -7.122  -0.738  0.00  0.00    +0.113 A 
ATOM     34  N   UNL     1      -1.769  -6.152   0.042  0.00  0.00    -0.240 NA
ATOM     35  H   UNL     1      -0.363  -5.525   2.871  0.00  0.00    +0.156 HD
ENDBRANCH  25  26
ENDBRANCH  24  25
ENDBRANCH  11  24
TORSDOF 5
