REMARK  Name = ZINC39980400
REMARK  3 active torsions:
REMARK  status: ('A' for Active; 'I' for Inactive)
REMARK    1  A    between atoms: N_11  and  C_12
REMARK    2  A    between atoms: C_12  and  C_14
REMARK    3  A    between atoms: C_14  and  N_15
REMARK                            x       y       z     vdW  Elec       q    Type
REMARK                         _______ _______ _______ _____ _____    ______ ____
ROOT
ATOM      1  C   UNL     1       4.916  -3.248  -0.162  0.00  0.00    +0.259 C 
ATOM      2  O   UNL     1       5.508  -2.186  -0.163  0.00  0.00    -0.272 OA
ENDROOT
BRANCH   1  13
ATOM      3  C   UNL     1      -0.018   1.375  -0.018  0.00  0.00    +0.002 A 
ATOM      4  C   UNL     1       1.167   2.090  -0.015  0.00  0.00    +0.002 A 
ATOM      5  C   UNL     1       2.379   1.429  -0.020  0.00  0.00    +0.028 A 
ATOM      6  C   UNL     1       2.410   0.041  -0.029  0.00  0.00    +0.065 A 
ATOM      7  C   UNL     1       1.214  -0.680  -0.032  0.00  0.00    +0.065 A 
ATOM      8  C   UNL     1       0.001  -0.005  -0.027  0.00  0.00    +0.028 A 
ATOM      9  N   UNL     1       1.549  -2.030  -0.041  0.00  0.00    -0.326 N 
ATOM     10  H   UNL     1       0.924  -2.771  -0.045  0.00  0.00    +0.169 HD
ATOM     11  C   UNL     1       2.904  -2.132  -0.042  0.00  0.00    +0.198 A 
ATOM     12  N   UNL     1       3.447  -0.886  -0.035  0.00  0.00    -0.326 N 
ATOM     13  N   UNL     1       3.591  -3.271  -0.050  0.00  0.00    -0.145 NA
ATOM     14  H   UNL     1       4.394  -0.678  -0.035  0.00  0.00    +0.169 HD
ENDBRANCH   1  13
BRANCH   1  15
ATOM     15  C   UNL     1       5.684  -4.538  -0.290  0.00  0.00    +0.219 C 
BRANCH  15  16
ATOM     16  N   UNL     1       7.115  -4.246  -0.399  0.00  0.00    -0.338 N 
ATOM     17  C   UNL     1       7.805  -4.126  -1.575  0.00  0.00    +0.087 A 
ATOM     18  C   UNL     1       9.096  -3.855  -1.322  0.00  0.00    +0.029 A 
ATOM     19  C   UNL     1       9.244  -3.797   0.134  0.00  0.00    +0.014 A 
ATOM     20  C   UNL     1       7.965  -4.045   0.666  0.00  0.00    +0.051 A 
ATOM     21  C   UNL     1       7.787  -4.049   2.045  0.00  0.00    +0.026 A 
ATOM     22  C   UNL     1       8.858  -3.808   2.877  0.00  0.00    +0.003 A 
ATOM     23  C   UNL     1      10.120  -3.560   2.354  0.00  0.00    +0.016 A 
ATOM     24  C   UNL     1      10.321  -3.558   0.991  0.00  0.00    +0.027 A 
ATOM     25 BR   UNL     1      12.041  -3.217   0.284  0.00  0.00    -0.050 Br
ENDBRANCH  15  16
ENDBRANCH   1  15
TORSDOF 3
