REMARK  Name = ZINC14805298
REMARK  8 active torsions:
REMARK  status: ('A' for Active; 'I' for Inactive)
REMARK    1  A    between atoms: C_1  and  C_2
REMARK    2  A    between atoms: C_3  and  C_4
REMARK    3  A    between atoms: C_5  and  C_6
REMARK    4  A    between atoms: N_8  and  N_9
REMARK    5  A    between atoms: C_10  and  C_12
REMARK    6  A    between atoms: C_17  and  N_18
REMARK    7  A    between atoms: N_18  and  S_19
REMARK    8  A    between atoms: S_19  and  C_22
REMARK                            x       y       z     vdW  Elec       q    Type
REMARK                         _______ _______ _______ _____ _____    ______ ____
ROOT
ATOM      1  C   UNL     1       2.409  -8.442  -4.103  0.00  0.00    +0.063 A 
ATOM      2  C   UNL     1       1.819  -9.159  -3.058  0.00  0.00    +0.015 A 
ATOM      3  C   UNL     1       1.841 -10.536  -3.071  0.00  0.00    +0.001 A 
ATOM      4  C   UNL     1       2.446 -11.217  -4.116  0.00  0.00    +0.002 A 
ATOM      5  C   UNL     1       3.033 -10.523  -5.155  0.00  0.00    +0.027 A 
ATOM      6  C   UNL     1       3.014  -9.134  -5.162  0.00  0.00    +0.086 A 
ENDROOT
BRANCH   1   8
ATOM      7  N   UNL     1       1.806  -6.307  -3.074  0.00  0.00    -0.230 N 
ATOM      8  C   UNL     1       2.389  -6.968  -4.094  0.00  0.00    +0.262 C 
ATOM      9  O   UNL     1       2.898  -6.348  -5.008  0.00  0.00    -0.269 OA
ATOM     10  H   UNL     1       1.399  -6.802  -2.346  0.00  0.00    +0.173 HD
BRANCH   7  13
ATOM     11  C   UNL     1       1.204  -4.246  -2.047  0.00  0.00    +0.253 C 
ATOM     12  O   UNL     1       0.694  -4.867  -1.132  0.00  0.00    -0.269 OA
ATOM     13  N   UNL     1       1.787  -4.906  -3.067  0.00  0.00    -0.231 N 
ATOM     14  H   UNL     1       2.193  -4.412  -3.796  0.00  0.00    +0.173 HD
BRANCH  11  16
ATOM     15  C   UNL     1       0.599  -2.121  -1.016  0.00  0.00    +0.005 C 
ATOM     16  C   UNL     1       1.184  -2.784  -2.039  0.00  0.00    +0.069 C 
BRANCH  15  19
ATOM     17  C   UNL     1      -0.018   1.503   0.010  0.00  0.00    +0.035 C 
ATOM     18  C   UNL     1       0.002  -0.004   0.002  0.00  0.00    -0.030 C 
ATOM     19  C   UNL     1       0.579  -0.658  -1.008  0.00  0.00    -0.004 C 
ENDBRANCH  15  19
ENDBRANCH  11  16
ENDBRANCH   7  13
ENDBRANCH   1   8
BRANCH   6  20
ATOM     20  N   UNL     1       3.598  -8.434  -6.210  0.00  0.00    -0.097 NA
BRANCH  20  21
ATOM     21  S   UNL     1       4.312  -9.255  -7.459  0.00  0.00    +0.098 S 
ATOM     22  O   UNL     1       5.441  -9.923  -6.912  0.00  0.00    -0.148 OA
ATOM     23  O   UNL     1       3.272  -9.947  -8.137  0.00  0.00    -0.148 OA
BRANCH  21  24
ATOM     24  C   UNL     1       4.935  -8.052  -8.585  0.00  0.00    +0.148 A 
ATOM     25  C   UNL     1       6.155  -7.463  -8.616  0.00  0.00    +0.037 A 
ATOM     26  C   UNL     1       6.427  -6.535  -9.604  0.00  0.00    +0.010 A 
ATOM     27  C   UNL     1       5.465  -6.242 -10.513  0.00  0.00    +0.047 A 
ATOM     28  S   UNL     1       4.125  -7.298  -9.986  0.00  0.00    -0.077 S 
ENDBRANCH  21  24
ENDBRANCH  20  21
ENDBRANCH   6  20
TORSDOF 7
