REMARK  Name = ZINC36371024
REMARK  10 active torsions:
REMARK  status: ('A' for Active; 'I' for Inactive)
REMARK    1  A    between atoms: C_1  and  C_2
REMARK    2  A    between atoms: C_2  and  C_4
REMARK    3  A    between atoms: C_2  and  O_36
REMARK    4  A    between atoms: C_10  and  C_35
REMARK    5  A    between atoms: C_23  and  C_33
REMARK    6  A    between atoms: C_26  and  O_29
REMARK    7  A    between atoms: O_29  and  C_30
REMARK    8  A    between atoms: C_30  and  C_32
REMARK    9  A    between atoms: O_36  and  C_37
REMARK   10  A    between atoms: C_37  and  C_39
REMARK                            x       y       z     vdW  Elec       q    Type
REMARK                         _______ _______ _______ _____ _____    ______ ____
ROOT
ATOM      1  C   UNL     1      -1.440  -0.462  -0.120  0.00  0.00    +0.037 C 
ATOM      2  C   UNL     1      -2.226   0.179   1.056  0.00  0.00    +0.008 C 
ATOM      3  C   UNL     1      -2.784  -1.001   1.905  0.00  0.00    +0.005 C 
ATOM      4  C   UNL     1      -1.787  -2.120   1.573  0.00  0.00    +0.001 C 
ATOM      5  C   UNL     1      -1.653  -1.966   0.044  0.00  0.00    -0.004 C 
ATOM      6  C   UNL     1      -0.602  -2.935  -0.438  0.00  0.00    +0.129 C 
ATOM      7  C   UNL     1      -1.177  -4.335  -0.194  0.00  0.00    +0.151 C 
ATOM      8  O   UNL     1      -0.833  -5.238  -0.939  0.00  0.00    -0.296 OA
ATOM      9  C   UNL     1      -2.160  -4.554   0.909  0.00  0.00    +0.066 C 
ATOM     10  C   UNL     1      -2.104  -3.507   2.015  0.00  0.00    +0.003 C 
ATOM     11  C   UNL     1      -3.395  -3.592   2.834  0.00  0.00    +0.005 C 
ATOM     12  C   UNL     1      -3.518  -5.015   3.397  0.00  0.00    +0.004 C 
ATOM     13  C   UNL     1      -2.268  -5.814   3.053  0.00  0.00    -0.001 C 
ATOM     14  C   UNL     1      -2.083  -5.947   1.541  0.00  0.00    -0.019 C 
ATOM     15  C   UNL     1      -0.747  -6.630   1.270  0.00  0.00    +0.011 C 
ATOM     16  C   UNL     1      -0.693  -7.998   1.953  0.00  0.00    +0.045 C 
ATOM     17  C   UNL     1      -0.953  -7.883   3.451  0.00  0.00    +0.177 C 
ATOM     18  C   UNL     1      -2.297  -7.194   3.708  0.00  0.00    +0.048 C 
ATOM     19  C   UNL     1      -3.215  -6.788   0.938  0.00  0.00    +0.012 C 
ATOM     20 BR   UNL     1       1.078  -2.758   0.576  0.00  0.00    -0.079 Br
ATOM     21  C   UNL     1      -2.988  -2.276  -0.662  0.00  0.00    +0.013 C 
ENDROOT
BRANCH   1  23
ATOM     22  C   UNL     1       0.731  -0.551  -1.336  0.00  0.00    +0.052 C 
ATOM     23  C   UNL     1       0.019  -0.041  -0.081  0.00  0.00    +0.177 C 
BRANCH  23  24
ATOM     24  O   UNL     1       0.102   1.385  -0.033  0.00  0.00    -0.462 OA
BRANCH  24  25
ATOM     25  C   UNL     1       1.208   1.913   0.515  0.00  0.00    +0.304 C 
ATOM     26  O   UNL     1       2.076   1.188   0.940  0.00  0.00    -0.251 OA
ATOM     27  C   UNL     1       1.366   3.409   0.600  0.00  0.00    +0.136 C 
ENDBRANCH  24  25
ENDBRANCH  23  24
ENDBRANCH   1  23
BRANCH  17  28
ATOM     28  O   UNL     1      -0.978  -9.191   4.032  0.00  0.00    -0.462 OA
BRANCH  28  29
ATOM     29  C   UNL     1       0.189  -9.681   4.479  0.00  0.00    +0.304 C 
ATOM     30  O   UNL     1       1.198  -9.024   4.381  0.00  0.00    -0.251 OA
ATOM     31  C   UNL     1       0.240 -11.052   5.103  0.00  0.00    +0.136 C 
ENDBRANCH  28  29
ENDBRANCH  17  28
TORSDOF 5
