REMARK  Name = ZINC22418409
REMARK  8 active torsions:
REMARK  status: ('A' for Active; 'I' for Inactive)
REMARK    1  A    between atoms: C_1  and  N_2
REMARK    2  A    between atoms: N_2  and  C_3
REMARK    3  A    between atoms: N_2  and  C_4
REMARK    4  A    between atoms: C_7  and  C_10
REMARK    5  A    between atoms: C_10  and  C_12
REMARK    6  A    between atoms: C_10  and  N_26
REMARK    7  A    between atoms: C_12  and  N_13
REMARK    8  A    between atoms: N_16  and  C_17
REMARK                            x       y       z     vdW  Elec       q    Type
REMARK                         _______ _______ _______ _____ _____    ______ ____
ROOT
ATOM      1  C   UNL     1       8.356  -2.972   4.824  0.00  0.00    -0.020 C 
ENDROOT
BRANCH   1   5
ATOM      2  C   UNL     1       8.386  -7.224   5.256  0.00  0.00    +0.029 A 
ATOM      3  C   UNL     1       8.205  -6.412   6.369  0.00  0.00    +0.023 A 
ATOM      4  C   UNL     1       8.196  -5.038   6.226  0.00  0.00    +0.004 A 
ATOM      5  C   UNL     1       8.366  -4.471   4.976  0.00  0.00    -0.059 A 
ATOM      6  C   UNL     1       8.541  -5.276   3.866  0.00  0.00    +0.004 A 
ATOM      7  C   UNL     1       8.557  -6.650   4.003  0.00  0.00    +0.023 A 
BRANCH   2   9
ATOM      8  C   UNL     1       8.094  -9.219   6.697  0.00  0.00    +0.129 C 
ATOM      9  N   UNL     1       8.396  -8.613   5.398  0.00  0.00    -0.336 N 
ATOM     10  C   UNL     1       8.707  -9.464   4.247  0.00  0.00    +0.129 C 
ENDBRANCH   2   9
ENDBRANCH   1   5
BRANCH   1  11
ATOM     11  N   UNL     1       9.466  -2.560   3.954  0.00  0.00    +0.385 N 
ATOM     12  C   UNL     1       9.572  -1.080   3.892  0.00  0.00    -0.078 C 
ATOM     13  C   UNL     1      11.028  -0.849   3.413  0.00  0.00    -0.020 C 
ATOM     14  C   UNL     1      11.812  -1.965   4.141  0.00  0.00    -0.020 C 
ATOM     15  C   UNL     1      10.761  -3.036   4.487  0.00  0.00    -0.078 C 
ATOM     16  H   UNL     1       9.251  -2.997   2.967  0.00  0.00    -0.081 HD
ENDBRANCH   1  11
BRANCH   1  17
ATOM     17  C   UNL     1       7.029  -2.532   4.200  0.00  0.00    +0.095 C 
BRANCH  17  18
ATOM     18  N   UNL     1       6.973  -1.069   4.154  0.00  0.00    -0.300 N 
ATOM     19  C   UNL     1       5.948  -0.454   3.532  0.00  0.00    +0.304 C 
ATOM     20  O   UNL     1       5.069  -1.113   3.010  0.00  0.00    -0.253 OA
ATOM     21  N   UNL     1       5.896   0.893   3.489  0.00  0.00    -0.269 N 
ATOM     22  H   UNL     1       7.767  -0.473   4.626  0.00  0.00    +0.150 HD
ATOM     23  H   UNL     1       6.733   1.488   3.882  0.00  0.00    +0.156 HD
BRANCH  21  24
ATOM     24  C   UNL     1       4.774   1.534   2.945  0.00  0.00    +0.038 A 
ATOM     25  C   UNL     1       3.511   0.982   3.111  0.00  0.00    +0.027 A 
ATOM     26  C   UNL     1       2.404   1.614   2.576  0.00  0.00    +0.051 A 
ATOM     27  C   UNL     1       2.552   2.798   1.873  0.00  0.00    +0.166 A 
ATOM     28  C   UNL     1       3.818   3.353   1.705  0.00  0.00    +0.168 A 
ATOM     29  C   UNL     1       4.927   2.720   2.241  0.00  0.00    +0.073 A 
ATOM     30  O   UNL     1       3.697   4.507   0.984  0.00  0.00    -0.453 OA
ATOM     31  C   UNL     1       2.305   4.865   1.064  0.00  0.00    +0.466 C 
ATOM     32  O   UNL     1       1.637   3.604   1.257  0.00  0.00    -0.453 OA
ENDBRANCH  21  24
ENDBRANCH  17  18
ENDBRANCH   1  17
TORSDOF 6
