REMARK  Name = ZINC37520155
REMARK  9 active torsions:
REMARK  status: ('A' for Active; 'I' for Inactive)
REMARK    1  A    between atoms: C_1  and  C_2
REMARK    2  A    between atoms: C_7  and  C_8
REMARK    3  A    between atoms: C_8  and  N_9
REMARK    4  A    between atoms: N_12  and  C_18
REMARK    5  A    between atoms: C_15  and  C_17
REMARK    6  A    between atoms: C_21  and  C_24
REMARK    7  A    between atoms: C_24  and  C_25
REMARK    8  A    between atoms: C_24  and  C_26
REMARK    9  A    between atoms: C_24  and  C_27
REMARK                            x       y       z     vdW  Elec       q    Type
REMARK                         _______ _______ _______ _____ _____    ______ ____
ROOT
ATOM      1  N   UNL     1      -1.399   0.341   2.765  0.00  0.00    +0.391 N 
ATOM      2  C   UNL     1      -2.020  -0.754   3.526  0.00  0.00    -0.058 C 
ATOM      3  C   UNL     1      -3.526  -0.502   3.613  0.00  0.00    +0.095 C 
ATOM      4  N   UNL     1      -3.776   0.857   4.087  0.00  0.00    -0.275 N 
ATOM      5  C   UNL     1      -2.841   1.813   4.064  0.00  0.00    +0.206 C 
ATOM      6  O   UNL     1      -3.133   2.923   4.454  0.00  0.00    -0.277 OA
ATOM      7  C   UNL     1      -1.442   1.566   3.573  0.00  0.00    +0.017 C 
ATOM      8  C   UNL     1      -0.988   2.752   2.720  0.00  0.00    -0.004 C 
ATOM      9  H   UNL     1      -1.905   0.486   1.904  0.00  0.00    -0.080 HD
ENDROOT
BRANCH   4  10
ATOM     10  C   UNL     1      -5.045   1.171   4.587  0.00  0.00    +0.036 A 
ATOM     11  C   UNL     1      -6.035   1.633   3.729  0.00  0.00    +0.024 A 
ATOM     12  C   UNL     1      -7.287   1.943   4.225  0.00  0.00    +0.006 A 
ATOM     13  C   UNL     1      -7.554   1.793   5.574  0.00  0.00    -0.042 A 
ATOM     14  C   UNL     1      -6.570   1.334   6.430  0.00  0.00    +0.006 A 
ATOM     15  C   UNL     1      -5.319   1.016   5.939  0.00  0.00    +0.024 A 
BRANCH  13  16
ATOM     16  C   UNL     1      -8.921   2.132   6.111  0.00  0.00    -0.013 C 
ATOM     17  C   UNL     1      -9.970   1.256   5.426  0.00  0.00    +0.015 C 
ATOM     18  C   UNL     1      -8.952   1.880   7.620  0.00  0.00    +0.015 C 
ATOM     19  C   UNL     1      -9.227   3.606   5.834  0.00  0.00    +0.015 C 
ENDBRANCH  13  16
ENDBRANCH   4  10
BRANCH   1  20
ATOM     20  C   UNL     1      -0.002   0.000   2.463  0.00  0.00    -0.042 C 
BRANCH  20  27
ATOM     21  C   UNL     1      -0.448   0.369  -0.367  0.00  0.00    +0.044 C 
ATOM     22  C   UNL     1      -0.177  -1.009   0.179  0.00  0.00    -0.049 A 
ATOM     23  C   UNL     1      -0.136  -2.095  -0.674  0.00  0.00    +0.003 A 
ATOM     24  C   UNL     1       0.112  -3.359  -0.173  0.00  0.00    +0.000 A 
ATOM     25  C   UNL     1       0.320  -3.537   1.182  0.00  0.00    +0.000 A 
ATOM     26  C   UNL     1       0.280  -2.450   2.036  0.00  0.00    +0.002 A 
ATOM     27  C   UNL     1       0.036  -1.185   1.534  0.00  0.00    -0.061 A 
ENDBRANCH  20  27
ENDBRANCH   1  20
TORSDOF 4
