REMARK  Name = ZINC21992079
REMARK  12 active torsions:
REMARK  status: ('A' for Active; 'I' for Inactive)
REMARK    1  A    between atoms: C_1  and  C_2
REMARK    2  A    between atoms: C_3  and  C_36
REMARK    3  A    between atoms: C_4  and  C_27
REMARK    4  A    between atoms: C_6  and  C_10
REMARK    5  A    between atoms: C_7  and  C_9
REMARK    6  A    between atoms: C_10  and  O_12
REMARK    7  A    between atoms: O_12  and  C_13
REMARK    8  A    between atoms: N_18  and  C_20
REMARK    9  A    between atoms: C_20  and  C_21
REMARK   10  A    between atoms: C_31  and  N_33
REMARK   11  A    between atoms: C_36  and  O_38
REMARK   12  A    between atoms: O_38  and  C_39
REMARK                            x       y       z     vdW  Elec       q    Type
REMARK                         _______ _______ _______ _____ _____    ______ ____
ROOT
ATOM      1  C   UNL     1      -2.466   0.903  -0.379  0.00  0.00    +0.061 C 
ATOM      2  C   UNL     1      -1.207   1.631   0.017  0.00  0.00    +0.016 C 
ATOM      3  C   UNL     1      -1.271   2.925   0.380  0.00  0.00    +0.065 C 
ATOM      4  C   UNL     1      -0.041   3.687   0.784  0.00  0.00    +0.096 C 
ATOM      5  C   UNL     1       1.202   2.958   0.357  0.00  0.00    +0.065 C 
ATOM      6  C   UNL     1       1.166   1.663  -0.000  0.00  0.00    +0.016 C 
ATOM      7  N   UNL     1      -0.011   0.966   0.007  0.00  0.00    -0.321 N 
ATOM      8  C   UNL     1       2.439   0.970  -0.413  0.00  0.00    +0.061 C 
ATOM      9  H   UNL     1       0.007  -0.134   0.006  0.00  0.00    +0.152 HD
ENDROOT
BRANCH   4  10
ATOM     10  C   UNL     1      -0.029   3.851   2.283  0.00  0.00    -0.033 A 
ATOM     11  C   UNL     1       0.001   2.736   3.100  0.00  0.00    +0.005 A 
ATOM     12  C   UNL     1       0.017   2.887   4.474  0.00  0.00    +0.003 A 
ATOM     13  C   UNL     1      -0.008   4.152   5.031  0.00  0.00    +0.033 A 
ATOM     14  C   UNL     1      -0.044   5.266   4.214  0.00  0.00    +0.126 A 
ATOM     15  C   UNL     1      -0.054   5.116   2.840  0.00  0.00    +0.037 A 
BRANCH  14  16
ATOM     16  N   UNL     1      -0.070   6.621   4.810  0.00  0.00    +0.056 N 
ATOM     17  O   UNL     1      -0.102   7.603   4.090  0.00  0.00    -0.126 OA
ATOM     18  O   UNL     1      -0.061   6.753   6.021  0.00  0.00    -0.126 OA
ENDBRANCH  14  16
ENDBRANCH   4  10
BRANCH   5  19
ATOM     19  C   UNL     1       2.435   3.650   0.330  0.00  0.00    +0.338 C 
ATOM     20  O   UNL     1       3.449   3.072  -0.014  0.00  0.00    -0.245 OA
BRANCH  19  21
ATOM     21  O   UNL     1       2.487   4.951   0.685  0.00  0.00    -0.460 OA
BRANCH  21  22
ATOM     22  C   UNL     1       3.765   5.587   0.635  0.00  0.00    +0.160 C 
ATOM     23  C   UNL     1       3.977   6.200  -0.752  0.00  0.00    +0.041 C 
ATOM     24  C   UNL     1       5.322   6.931  -0.779  0.00  0.00    -0.015 C 
ATOM     25  C   UNL     1       5.340   7.997   0.319  0.00  0.00    -0.078 C 
ATOM     26  N   UNL     1       5.135   7.359   1.626  0.00  0.00    +0.385 N 
ATOM     27  C   UNL     1       3.829   6.692   1.692  0.00  0.00    -0.033 C 
ATOM     28  H   UNL     1       5.912   6.590   1.749  0.00  0.00    -0.081 HD
BRANCH  26  29
ATOM     29  C   UNL     1       5.285   8.333   2.716  0.00  0.00    -0.043 C 
BRANCH  29  30
ATOM     30  C   UNL     1       6.517   9.167   2.479  0.00  0.00    -0.064 A 
ATOM     31  C   UNL     1       7.735   8.761   2.992  0.00  0.00    +0.002 A 
ATOM     32  C   UNL     1       8.867   9.524   2.771  0.00  0.00    +0.000 A 
ATOM     33  C   UNL     1       8.778  10.697   2.045  0.00  0.00    +0.000 A 
ATOM     34  C   UNL     1       7.559  11.105   1.537  0.00  0.00    +0.000 A 
ATOM     35  C   UNL     1       6.429  10.340   1.754  0.00  0.00    +0.002 A 
ENDBRANCH  29  30
ENDBRANCH  26  29
ENDBRANCH  21  22
ENDBRANCH  19  21
ENDBRANCH   5  19
BRANCH   3  36
ATOM     36  C   UNL     1      -2.522   3.583   0.376  0.00  0.00    +0.337 C 
ATOM     37  O   UNL     1      -3.527   2.978   0.051  0.00  0.00    -0.245 OA
BRANCH  36  38
ATOM     38  O   UNL     1      -2.603   4.882   0.733  0.00  0.00    -0.465 OA
ATOM     39  C   UNL     1      -3.899   5.483   0.706  0.00  0.00    +0.280 C 
ENDBRANCH  36  38
ENDBRANCH   3  36
TORSDOF 9
