REMARK  Name = ZINC63386226
REMARK  8 active torsions:
REMARK  status: ('A' for Active; 'I' for Inactive)
REMARK    1  A    between atoms: C_1  and  C_2
REMARK    2  A    between atoms: C_8  and  N_10
REMARK    3  A    between atoms: C_11  and  C_13
REMARK    4  A    between atoms: C_13  and  C_14
REMARK    5  A    between atoms: C_14  and  C_15
REMARK    6  A    between atoms: N_19  and  C_23
REMARK    7  A    between atoms: C_23  and  C_24
REMARK    8  A    between atoms: C_24  and  C_25
REMARK                            x       y       z     vdW  Elec       q    Type
REMARK                         _______ _______ _______ _____ _____    ______ ____
ROOT
ATOM      1  C   UNL     1       6.180   1.230   3.799  0.00  0.00    +0.161 C 
ATOM      2  C   UNL     1       6.712   1.357   5.213  0.00  0.00    +0.243 C 
ATOM      3  O   UNL     1       6.274   2.058   6.099  0.00  0.00    -0.273 OA
ATOM      4  N   UNL     1       7.773   0.529   5.279  0.00  0.00    -0.224 N 
ATOM      5  C   UNL     1       7.983  -0.098   4.115  0.00  0.00    +0.309 C 
ATOM      6  O   UNL     1       8.882  -0.894   3.930  0.00  0.00    -0.252 OA
ATOM      7  N   UNL     1       7.087   0.254   3.170  0.00  0.00    -0.288 N 
ATOM      8  H   UNL     1       7.047  -0.070   2.257  0.00  0.00    +0.151 HD
ENDROOT
BRANCH   1   9
ATOM      9  C   UNL     1       4.745   0.700   3.810  0.00  0.00    +0.041 C 
BRANCH   9  10
ATOM     10  C   UNL     1       4.209   0.649   2.377  0.00  0.00    +0.098 C 
BRANCH  10  12
ATOM     11  N   UNL     1       2.116  -0.004   1.231  0.00  0.00    -0.312 N 
ATOM     12  C   UNL     1       2.795   0.128   2.388  0.00  0.00    +0.213 C 
ATOM     13  O   UNL     1       2.268  -0.174   3.438  0.00  0.00    -0.276 OA
ATOM     14  H   UNL     1       2.538   0.237   0.392  0.00  0.00    +0.149 HD
BRANCH  11  21
ATOM     15  C   UNL     1      -0.019   1.526   0.010  0.00  0.00    +0.009 C 
ATOM     16  C   UNL     1       0.002  -0.004   0.002  0.00  0.00    +0.006 C 
ATOM     17  C   UNL     1      -1.433  -0.534   0.013  0.00  0.00    +0.005 C 
ATOM     18  C   UNL     1      -1.413  -2.063   0.004  0.00  0.00    +0.000 C 
ATOM     19  C   UNL     1      -0.673  -2.570   1.244  0.00  0.00    +0.002 C 
ATOM     20  C   UNL     1       0.763  -2.041   1.233  0.00  0.00    +0.022 C 
ATOM     21  C   UNL     1       0.742  -0.511   1.242  0.00  0.00    +0.076 C 
ENDBRANCH  11  21
ENDBRANCH  10  12
ENDBRANCH   9  10
ENDBRANCH   1   9
BRANCH   4  22
ATOM     22  C   UNL     1       8.595   0.339   6.476  0.00  0.00    +0.122 C 
BRANCH  22  23
ATOM     23  C   UNL     1       8.017  -0.801   7.316  0.00  0.00    +0.052 C 
BRANCH  23  24
ATOM     24  C   UNL     1       8.863  -0.997   8.548  0.00  0.00    -0.040 C 
ATOM     25  C   UNL     1       8.645  -0.472   9.775  0.00  0.00    -0.001 A 
ATOM     26  C   UNL     1       7.597   0.405  10.310  0.00  0.00    +0.010 A 
ATOM     27  C   UNL     1       7.649   0.771  11.611  0.00  0.00    +0.001 A 
ATOM     28  C   UNL     1       8.676   0.335  12.460  0.00  0.00    +0.002 A 
ATOM     29  C   UNL     1       9.674  -0.473  12.041  0.00  0.00    +0.026 A 
ATOM     30  C   UNL     1       9.719  -0.920  10.692  0.00  0.00    +0.043 A 
ATOM     31  N   UNL     1      10.566  -1.691  10.056  0.00  0.00    -0.380 N 
ATOM     32  C   UNL     1      10.123  -1.825   8.664  0.00  0.00    +0.144 C 
ATOM     33  H   UNL     1      11.353  -2.107  10.442  0.00  0.00    +0.160 HD
ENDBRANCH  23  24
ENDBRANCH  22  23
ENDBRANCH   4  22
TORSDOF 7
