REMARK  Name = ZINC05866703
REMARK  6 active torsions:
REMARK  status: ('A' for Active; 'I' for Inactive)
REMARK    1  A    between atoms: C_3  and  C_6
REMARK    2  A    between atoms: C_9  and  S_17
REMARK    3  A    between atoms: N_10  and  C_11
REMARK    4  A    between atoms: S_17  and  C_18
REMARK    5  A    between atoms: C_18  and  C_19
REMARK    6  A    between atoms: N_24  and  C_25
REMARK                            x       y       z     vdW  Elec       q    Type
REMARK                         _______ _______ _______ _____ _____    ______ ____
ROOT
ATOM      1  C   UNL     1       3.005   3.542  11.341  0.00  0.00    +0.201 A 
ATOM      2  N   UNL     1       3.712   3.669  10.240  0.00  0.00    -0.125 NA
ATOM      3  N   UNL     1       2.993   3.365   9.220  0.00  0.00    -0.122 NA
ATOM      4  C   UNL     1       1.781   3.033   9.603  0.00  0.00    +0.193 A 
ATOM      5  N   UNL     1       1.745   3.130  10.966  0.00  0.00    -0.297 N 
ENDROOT
BRANCH   5   6
ATOM      6  C   UNL     1       0.605   2.855  11.843  0.00  0.00    +0.091 C 
ATOM      7  C   UNL     1       0.167   1.399  11.669  0.00  0.00    +0.025 C 
ATOM      8  C   UNL     1      -1.024   1.111  12.585  0.00  0.00    +0.002 C 
ATOM      9  C   UNL     1      -2.184   2.040  12.221  0.00  0.00    +0.000 C 
ATOM     10  C   UNL     1      -1.746   3.495  12.395  0.00  0.00    +0.002 C 
ATOM     11  C   UNL     1      -0.556   3.783  11.478  0.00  0.00    +0.025 C 
ENDBRANCH   5   6
BRANCH   1  14
ATOM     12  C   UNL     1       4.749   4.147  14.498  0.00  0.00    +0.042 A 
ATOM     13  C   UNL     1       4.768   3.917  13.109  0.00  0.00    +0.053 A 
ATOM     14  C   UNL     1       3.470   3.792  12.715  0.00  0.00    +0.172 A 
ATOM     15  O   UNL     1       2.687   3.941  13.801  0.00  0.00    -0.460 OA
ATOM     16  C   UNL     1       3.457   4.151  14.881  0.00  0.00    +0.196 A 
ENDBRANCH   1  14
BRANCH   4  17
ATOM     17  S   UNL     1       0.451   2.546   8.554  0.00  0.00    -0.077 S 
BRANCH  17  18
ATOM     18  C   UNL     1       1.263   2.664   6.941  0.00  0.00    +0.173 C 
BRANCH  18  19
ATOM     19  C   UNL     1       0.287   2.282   5.858  0.00  0.00    +0.231 C 
ATOM     20  O   UNL     1      -0.846   1.961   6.149  0.00  0.00    -0.274 OA
ATOM     21  N   UNL     1       0.673   2.296   4.567  0.00  0.00    -0.239 N 
ATOM     22  C   UNL     1      -0.200   1.954   3.599  0.00  0.00    +0.306 C 
ATOM     23  O   UNL     1      -1.335   1.633   3.890  0.00  0.00    -0.252 OA
ATOM     24  N   UNL     1       0.186   1.969   2.308  0.00  0.00    -0.296 N 
ATOM     25  H   UNL     1       1.579   2.553   4.335  0.00  0.00    +0.159 HD
ATOM     26  H   UNL     1       1.092   2.226   2.075  0.00  0.00    +0.151 HD
BRANCH  24  27
ATOM     27  C   UNL     1      -0.763   1.597   1.255  0.00  0.00    +0.074 C 
ATOM     28  C   UNL     1      -0.013   1.086   0.008  0.00  0.00    +0.022 C 
ATOM     29  C   UNL     1      -0.784   1.609  -1.216  0.00  0.00    +0.002 C 
ATOM     30  C   UNL     1      -1.978   2.421  -0.670  0.00  0.00    +0.002 C 
ATOM     31  C   UNL     1      -1.531   2.845   0.750  0.00  0.00    +0.022 C 
ENDBRANCH  24  27
ENDBRANCH  18  19
ENDBRANCH  17  18
ENDBRANCH   4  17
TORSDOF 6
