REMARK  Name = ZINC15317605
REMARK  10 active torsions:
REMARK  status: ('A' for Active; 'I' for Inactive)
REMARK    1  A    between atoms: C_1  and  C_2
REMARK    2  A    between atoms: C_4  and  C_30
REMARK    3  A    between atoms: C_6  and  C_8
REMARK    4  A    between atoms: N_10  and  N_11
REMARK    5  A    between atoms: C_12  and  C_14
REMARK    6  A    between atoms: C_17  and  C_20
REMARK    7  A    between atoms: C_20  and  S_21
REMARK    8  A    between atoms: S_21  and  C_22
REMARK    9  A    between atoms: C_24  and  C_29
REMARK   10  A    between atoms: C_26  and  C_28
REMARK                            x       y       z     vdW  Elec       q    Type
REMARK                         _______ _______ _______ _____ _____    ______ ____
ROOT
ATOM      1  N   UNL     1      -1.234   1.650   0.017  0.00  0.00    -0.230 N 
ATOM      2  C   UNL     1      -2.392   0.960   0.019  0.00  0.00    +0.260 C 
ATOM      3  O   UNL     1      -2.375  -0.255   0.012  0.00  0.00    -0.269 OA
ATOM      4  H   UNL     1      -1.247   2.620   0.022  0.00  0.00    +0.173 HD
ENDROOT
BRANCH   2   5
ATOM      5  C   UNL     1      -3.682   1.682   0.029  0.00  0.00    +0.038 A 
ATOM      6  C   UNL     1      -3.704   3.077   0.042  0.00  0.00    +0.013 A 
ATOM      7  C   UNL     1      -4.912   3.745   0.046  0.00  0.00    +0.005 A 
ATOM      8  C   UNL     1      -6.099   3.034   0.048  0.00  0.00    -0.037 A 
ATOM      9  C   UNL     1      -6.083   1.650   0.040  0.00  0.00    +0.005 A 
ATOM     10  C   UNL     1      -4.883   0.971   0.030  0.00  0.00    +0.013 A 
BRANCH   8  11
ATOM     11  C   UNL     1      -7.414   3.769   0.058  0.00  0.00    +0.112 C 
BRANCH  11  12
ATOM     12  S   UNL     1      -7.933   4.055   1.768  0.00  0.00    -0.081 S 
BRANCH  12  13
ATOM     13  C   UNL     1      -9.451   4.905   1.489  0.00  0.00    +0.189 A 
ATOM     14  N   UNL     1      -9.845   5.135   0.245  0.00  0.00    -0.227 NA
ATOM     15  C   UNL     1     -10.982   5.765   0.001  0.00  0.00    +0.043 A 
ATOM     16  C   UNL     1     -11.758   6.196   1.066  0.00  0.00    +0.046 A 
ATOM     17  C   UNL     1     -11.314   5.944   2.355  0.00  0.00    +0.043 A 
ATOM     18  N   UNL     1     -10.170   5.303   2.529  0.00  0.00    -0.227 NA
ATOM     19  C   UNL     1     -12.125   6.394   3.542  0.00  0.00    +0.066 C 
ATOM     20  C   UNL     1     -11.425   6.018  -1.417  0.00  0.00    +0.066 C 
ENDBRANCH  12  13
ENDBRANCH  11  12
ENDBRANCH   8  11
ENDBRANCH   2   5
BRANCH   1  23
ATOM     21  C   UNL     1       1.147   1.655   0.000  0.00  0.00    +0.260 C 
ATOM     22  O   UNL     1       1.130   2.871   0.007  0.00  0.00    -0.269 OA
ATOM     23  N   UNL     1      -0.011   0.966   0.007  0.00  0.00    -0.230 N 
ATOM     24  H   UNL     1       0.002  -0.004   0.002  0.00  0.00    +0.173 HD
BRANCH  21  30
ATOM     25  C   UNL     1       3.693  -2.636  -0.045  0.00  0.00    +0.044 C 
ATOM     26  C   UNL     1       3.667  -1.129  -0.038  0.00  0.00    -0.049 A 
ATOM     27  C   UNL     1       4.854  -0.418  -0.046  0.00  0.00    +0.006 A 
ATOM     28  C   UNL     1       4.838   0.966  -0.038  0.00  0.00    -0.049 A 
ATOM     29  C   UNL     1       3.638   1.645  -0.024  0.00  0.00    +0.016 A 
ATOM     30  C   UNL     1       2.437   0.934  -0.016  0.00  0.00    +0.039 A 
ATOM     31  C   UNL     1       2.459  -0.462  -0.018  0.00  0.00    +0.016 A 
ATOM     32  C   UNL     1       6.136   1.732  -0.047  0.00  0.00    +0.044 C 
ENDBRANCH  21  30
ENDBRANCH   1  23
TORSDOF 6
