REMARK  Name = ZINC58904894
REMARK  10 active torsions:
REMARK  status: ('A' for Active; 'I' for Inactive)
REMARK    1  A    between atoms: C_1  and  C_2
REMARK    2  A    between atoms: C_5  and  S_23
REMARK    3  A    between atoms: C_7  and  N_8
REMARK    4  A    between atoms: C_9  and  C_11
REMARK    5  A    between atoms: C_11  and  C_12
REMARK    6  A    between atoms: C_12  and  N_13
REMARK    7  A    between atoms: C_14  and  C_16
REMARK    8  A    between atoms: C_17  and  C_18
REMARK    9  A    between atoms: S_23  and  N_26
REMARK   10  A    between atoms: N_26  and  C_27
REMARK                            x       y       z     vdW  Elec       q    Type
REMARK                         _______ _______ _______ _____ _____    ______ ____
ROOT
ATOM      1  N   UNL     1       0.025  -0.015   2.417  0.00  0.00    -0.285 N 
ATOM      2  C   UNL     1      -0.056  -0.694   3.578  0.00  0.00    +0.219 C 
ATOM      3  O   UNL     1      -0.040  -1.907   3.573  0.00  0.00    -0.275 OA
ATOM      4  H   UNL     1       0.078   0.954   2.425  0.00  0.00    +0.155 HD
ENDROOT
BRANCH   1  11
ATOM      5  C   UNL     1      -1.264   1.184   0.181  0.00  0.00    +0.045 C 
ATOM      6  C   UNL     1      -0.584  -0.158   0.084  0.00  0.00    -0.029 A 
ATOM      7  C   UNL     1      -0.568  -0.840  -1.117  0.00  0.00    +0.007 A 
ATOM      8  C   UNL     1       0.055  -2.071  -1.206  0.00  0.00    +0.029 A 
ATOM      9  C   UNL     1       0.666  -2.622  -0.095  0.00  0.00    +0.107 A 
ATOM     10  C   UNL     1       0.655  -1.945   1.108  0.00  0.00    +0.052 A 
ATOM     11  C   UNL     1       0.034  -0.706   1.201  0.00  0.00    +0.038 A 
BRANCH   9  12
ATOM     12  S   UNL     1       1.460  -4.191  -0.214  0.00  0.00    +0.058 S 
ATOM     13  O   UNL     1       1.482  -4.736   1.098  0.00  0.00    -0.153 OA
ATOM     14  O   UNL     1       0.858  -4.868  -1.310  0.00  0.00    -0.153 OA
BRANCH  12  15
ATOM     15  N   UNL     1       3.036  -3.912  -0.638  0.00  0.00    -0.193 NA
ATOM     16  C   UNL     1       3.926  -3.199   0.282  0.00  0.00    +0.127 C 
ATOM     17  H   UNL     1       3.370  -4.220  -1.495  0.00  0.00    +0.148 HD
ENDBRANCH  12  15
ENDBRANCH   9  12
ENDBRANCH   1  11
BRANCH   2  18
ATOM     18  C   UNL     1      -0.168   0.052   4.882  0.00  0.00    +0.115 C 
BRANCH  18  19
ATOM     19  C   UNL     1      -0.245  -0.948   6.037  0.00  0.00    +0.113 C 
BRANCH  19  20
ATOM     20  N   UNL     1      -0.353  -0.222   7.305  0.00  0.00    -0.311 N 
ATOM     21  C   UNL     1      -0.434  -0.901   8.466  0.00  0.00    +0.237 C 
ATOM     22  O   UNL     1      -0.418  -2.119   8.461  0.00  0.00    -0.271 OA
ATOM     23  H   UNL     1      -0.366   0.748   7.309  0.00  0.00    +0.149 HD
BRANCH  21  24
ATOM     24  C   UNL     1      -0.539  -0.200   9.691  0.00  0.00    +0.071 C 
ATOM     25  C   UNL     1      -0.621  -0.884  10.860  0.00  0.00    +0.051 C 
BRANCH  25  26
ATOM     26  C   UNL     1      -0.726  -0.182  12.085  0.00  0.00    +0.128 A 
ATOM     27  C   UNL     1      -0.810  -0.747  13.341  0.00  0.00    +0.049 A 
ATOM     28  C   UNL     1      -0.897   0.316  14.252  0.00  0.00    +0.042 A 
ATOM     29  C   UNL     1      -0.863   1.461  13.535  0.00  0.00    +0.195 A 
ATOM     30  O   UNL     1      -0.754   1.159  12.234  0.00  0.00    -0.464 OA
ENDBRANCH  25  26
ENDBRANCH  21  24
ENDBRANCH  19  20
ENDBRANCH  18  19
ENDBRANCH   2  18
TORSDOF 8
