REMARK  Name = ZINC12289099
REMARK  9 active torsions:
REMARK  status: ('A' for Active; 'I' for Inactive)
REMARK    1  A    between atoms: C_1  and  C_2
REMARK    2  A    between atoms: N_13  and  C_14
REMARK    3  A    between atoms: C_14  and  C_15
REMARK    4  A    between atoms: C_15  and  C_17
REMARK    5  A    between atoms: C_15  and  O_27
REMARK    6  A    between atoms: C_17  and  O_18
REMARK    7  A    between atoms: O_18  and  C_19
REMARK    8  A    between atoms: N_30  and  C_35
REMARK    9  A    between atoms: N_33  and  C_34
REMARK                            x       y       z     vdW  Elec       q    Type
REMARK                         _______ _______ _______ _____ _____    ______ ____
ROOT
ATOM      1  C   UNL     1       0.722  -2.010  -1.039  0.00  0.00    +0.009 C 
ATOM      2  C   UNL     1       0.818  -0.958   0.067  0.00  0.00    +0.003 C 
ATOM      3  C   UNL     1      -0.294   0.078  -0.113  0.00  0.00    +0.006 C 
ATOM      4  C   UNL     1      -0.153   1.159   0.963  0.00  0.00    +0.019 C 
ATOM      5  C   UNL     1       1.234   1.796   0.860  0.00  0.00    +0.108 C 
ATOM      6  N   UNL     1       2.263   0.764   1.040  0.00  0.00    -0.301 N 
ATOM      7  C   UNL     1       2.178  -0.259  -0.009  0.00  0.00    +0.111 C 
ATOM      8  C   UNL     1       3.520   1.323   1.083  0.00  0.00    +0.201 A 
ATOM      9  N   UNL     1       4.101   1.966   0.091  0.00  0.00    -0.196 NA
ATOM     10  C   UNL     1       5.312   2.381   0.466  0.00  0.00    +0.170 A 
ATOM     11  C   UNL     1       5.511   1.966   1.778  0.00  0.00    +0.153 A 
ATOM     12  N   UNL     1       4.357   1.292   2.154  0.00  0.00    -0.304 N 
ATOM     13  C   UNL     1       6.724   2.273   2.419  0.00  0.00    +0.282 A 
ATOM     14  O   UNL     1       6.920   1.919   3.568  0.00  0.00    -0.265 OA
ATOM     15  N   UNL     1       7.669   2.964   1.748  0.00  0.00    -0.262 N 
ATOM     16  C   UNL     1       7.467   3.361   0.480  0.00  0.00    +0.333 A 
ATOM     17  O   UNL     1       8.341   3.983  -0.094  0.00  0.00    -0.246 OA
ATOM     18  N   UNL     1       6.320   3.088  -0.171  0.00  0.00    -0.280 N 
ATOM     19  C   UNL     1       6.138   3.538  -1.553  0.00  0.00    +0.155 C 
ATOM     20  C   UNL     1       8.935   3.287   2.412  0.00  0.00    +0.157 C 
ENDROOT
BRANCH  12  21
ATOM     21  C   UNL     1       4.091   0.670   3.453  0.00  0.00    +0.160 C 
BRANCH  21  22
ATOM     22  C   UNL     1       4.441  -0.818   3.387  0.00  0.00    +0.172 C 
BRANCH  22  23
ATOM     23  O   UNL     1       5.846  -0.969   3.176  0.00  0.00    -0.387 OA
ATOM     24  H   UNL     1       6.392  -0.578   3.871  0.00  0.00    +0.210 HD
ENDBRANCH  22  23
BRANCH  22  25
ATOM     25  C   UNL     1       4.048  -1.493   4.703  0.00  0.00    +0.262 C 
BRANCH  25  26
ATOM     26  O   UNL     1       4.265  -2.901   4.599  0.00  0.00    -0.488 OA
BRANCH  26  27
ATOM     27  C   UNL     1       3.964  -3.654   5.690  0.00  0.00    +0.139 A 
ATOM     28  C   UNL     1       3.475  -3.049   6.838  0.00  0.00    +0.048 A 
ATOM     29  C   UNL     1       3.165  -3.816   7.944  0.00  0.00    +0.023 A 
ATOM     30  C   UNL     1       3.352  -5.187   7.912  0.00  0.00    +0.043 A 
ATOM     31  C   UNL     1       3.845  -5.793   6.770  0.00  0.00    +0.043 A 
ATOM     32  C   UNL     1       4.151  -5.029   5.659  0.00  0.00    +0.084 A 
ATOM     33 CL   UNL     1       4.769  -5.790   4.226  0.00  0.00    -0.080 Cl
ATOM     34 CL   UNL     1       2.967  -6.148   9.306  0.00  0.00    -0.083 Cl
ENDBRANCH  26  27
ENDBRANCH  25  26
ENDBRANCH  22  25
ENDBRANCH  21  22
ENDBRANCH  12  21
TORSDOF 6
