REMARK  Name = ZINC22636591
REMARK  1 active torsions:
REMARK  status: ('A' for Active; 'I' for Inactive)
REMARK    1  A    between atoms: C_1  and  C_2
REMARK                            x       y       z     vdW  Elec       q    Type
REMARK                         _______ _______ _______ _____ _____    ______ ____
ROOT
ATOM      1  C   UNL     1      -2.565   3.861   0.047  0.00  0.00    +0.046 C 
ATOM      2  C   UNL     1      -1.252   3.122   0.031  0.00  0.00    -0.021 A 
ATOM      3  C   UNL     1      -1.232   1.738   0.017  0.00  0.00    +0.022 A 
ATOM      4  C   UNL     1      -0.013   1.076   0.008  0.00  0.00    +0.017 A 
ATOM      5  C   UNL     1       1.174   1.762   0.000  0.00  0.00    +0.030 A 
ATOM      6  C   UNL     1       1.192   3.175   0.008  0.00  0.00    +0.081 A 
ATOM      7  C   UNL     1      -0.069   3.816   0.024  0.00  0.00    +0.045 A 
ATOM      8  S   UNL     1       0.380   5.535   0.029  0.00  0.00    -0.052 S 
ATOM      9  C   UNL     1       2.152   5.305   0.011  0.00  0.00    +0.157 A 
ATOM     10  N   UNL     1       2.265   3.996   0.002  0.00  0.00    -0.225 NA
ATOM     11  N   UNL     1       3.149   6.260   0.006  0.00  0.00    -0.337 N 
ATOM     12 BR   UNL     1      -2.850   0.759   0.020  0.00  0.00    -0.050 Br
ATOM     13  H   UNL     1       4.205   5.952  -0.006  0.00  0.00    +0.144 HD
ATOM     14  H   UNL     1       2.887   7.328   0.014  0.00  0.00    +0.144 HD
ENDROOT
TORSDOF 0
