REMARK  Name = ZINC35241175
REMARK  13 active torsions:
REMARK  status: ('A' for Active; 'I' for Inactive)
REMARK    1  A    between atoms: C_1  and  C_2
REMARK    2  A    between atoms: C_2  and  C_3
REMARK    3  A    between atoms: C_3  and  O_4
REMARK    4  A    between atoms: O_4  and  C_5
REMARK    5  A    between atoms: C_8  and  C_15
REMARK    6  A    between atoms: C_9  and  O_11
REMARK    7  A    between atoms: O_11  and  C_12
REMARK    8  A    between atoms: C_12  and  C_13
REMARK    9  A    between atoms: C_13  and  C_14
REMARK   10  A    between atoms: C_17  and  C_29
REMARK   11  A    between atoms: C_19  and  C_24
REMARK   12  A    between atoms: C_19  and  O_28
REMARK   13  A    between atoms: C_29  and  C_31
REMARK                            x       y       z     vdW  Elec       q    Type
REMARK                         _______ _______ _______ _____ _____    ______ ____
ROOT
ATOM      1  C   UNL     1       3.242  -4.417  -5.656  0.00  0.00    +0.121 C 
ATOM      2  C   UNL     1       2.192  -4.759  -6.718  0.00  0.00    +0.144 C 
ATOM      3  C   UNL     1       1.592  -3.453  -7.250  0.00  0.00    +0.241 C 
ATOM      4  N   UNL     1       2.670  -2.595  -7.742  0.00  0.00    -0.291 N 
ATOM      5  C   UNL     1       3.905  -2.657  -7.221  0.00  0.00    +0.133 C 
ATOM      6  S   UNL     1       5.111  -1.610  -7.838  0.00  0.00    -0.019 S 
ATOM      7  N   UNL     1       4.232  -3.507  -6.235  0.00  0.00    -0.319 N 
ATOM      8  H   UNL     1       2.489  -1.968  -8.460  0.00  0.00    +0.151 HD
ATOM      9  H   UNL     1       5.142  -3.518  -5.898  0.00  0.00    +0.148 HD
ENDROOT
BRANCH   1  13
ATOM     10  C   UNL     1       1.341  -2.529  -2.322  0.00  0.00    +0.124 A 
ATOM     11  C   UNL     1       1.909  -1.761  -3.329  0.00  0.00    +0.046 A 
ATOM     12  C   UNL     1       2.522  -2.373  -4.405  0.00  0.00    +0.012 A 
ATOM     13  C   UNL     1       2.573  -3.752  -4.481  0.00  0.00    +0.015 A 
ATOM     14  C   UNL     1       2.007  -4.525  -3.477  0.00  0.00    +0.129 A 
ATOM     15  C   UNL     1       1.396  -3.913  -2.394  0.00  0.00    +0.091 A 
BRANCH  10  16
ATOM     16  O   UNL     1       0.738  -1.926  -1.265  0.00  0.00    -0.492 OA
BRANCH  16  17
ATOM     17  C   UNL     1       0.718  -0.497  -1.257  0.00  0.00    +0.229 C 
BRANCH  17  19
ATOM     18  C   UNL     1      -0.019   1.526   0.010  0.00  0.00    +0.007 C 
ATOM     19  C   UNL     1       0.002  -0.004   0.002  0.00  0.00    +0.038 C 
ENDBRANCH  17  19
ENDBRANCH  16  17
ENDBRANCH  10  16
BRANCH  14  20
ATOM     20  O   UNL     1       2.057  -5.881  -3.553  0.00  0.00    -0.492 OA
BRANCH  20  21
ATOM     21  C   UNL     1       1.454  -6.613  -2.484  0.00  0.00    +0.229 C 
BRANCH  21  22
ATOM     22  C   UNL     1       1.609  -8.113  -2.743  0.00  0.00    +0.038 C 
ATOM     23  C   UNL     1       0.964  -8.897  -1.598  0.00  0.00    +0.007 C 
ENDBRANCH  21  22
ENDBRANCH  20  21
ENDBRANCH  14  20
ENDBRANCH   1  13
BRANCH   3  24
ATOM     24  C   UNL     1       0.623  -3.764  -8.392  0.00  0.00    +0.436 C 
ATOM     25  F   UNL     1      -0.404  -4.590  -7.922  0.00  0.00    -0.166 F 
ATOM     26  F   UNL     1       0.076  -2.571  -8.877  0.00  0.00    -0.166 F 
ATOM     27  F   UNL     1       1.310  -4.414  -9.423  0.00  0.00    -0.166 F 
ENDBRANCH   3  24
BRANCH   3  28
ATOM     28  O   UNL     1       0.893  -2.785  -6.197  0.00  0.00    -0.364 OA
ATOM     29  H   UNL     1       0.487  -1.949  -6.463  0.00  0.00    +0.212 HD
ENDBRANCH   3  28
BRANCH   2  30
ATOM     30  C   UNL     1       2.841  -5.519  -7.846  0.00  0.00    +0.179 C 
ATOM     31  O   UNL     1       4.029  -5.387  -8.063  0.00  0.00    -0.291 OA
BRANCH  30  32
ATOM     32  C   UNL     1       2.068  -6.384  -8.652  0.00  0.00    +0.055 A 
ATOM     33  C   UNL     1       2.468  -7.172  -9.727  0.00  0.00    +0.019 A 
ATOM     34  C   UNL     1       1.479  -7.916 -10.319  0.00  0.00    +0.008 A 
ATOM     35  C   UNL     1       0.213  -7.838  -9.834  0.00  0.00    +0.046 A 
ATOM     36  S   UNL     1       0.328  -6.757  -8.552  0.00  0.00    -0.094 S 
ENDBRANCH  30  32
ENDBRANCH   2  30
TORSDOF 11
