REMARK  Name = ZINC58505324
REMARK  8 active torsions:
REMARK  status: ('A' for Active; 'I' for Inactive)
REMARK    1  A    between atoms: C_1  and  C_2
REMARK    2  A    between atoms: C_5  and  C_33
REMARK    3  A    between atoms: C_13  and  S_21
REMARK    4  A    between atoms: N_14  and  C_15
REMARK    5  A    between atoms: C_15  and  C_16
REMARK    6  A    between atoms: S_21  and  C_22
REMARK    7  A    between atoms: C_22  and  C_24
REMARK    8  A    between atoms: C_22  and  C_25
REMARK                            x       y       z     vdW  Elec       q    Type
REMARK                         _______ _______ _______ _____ _____    ______ ____
ROOT
ATOM      1  C   UNL     1      -2.137  -1.399  -1.043  0.00  0.00    +0.009 C 
ATOM      2  C   UNL     1      -1.452  -1.938   0.214  0.00  0.00    +0.004 C 
ATOM      3  C   UNL     1      -2.118  -1.339   1.455  0.00  0.00    +0.009 C 
ATOM      4  C   UNL     1      -1.455  -1.903   2.714  0.00  0.00    +0.004 C 
ATOM      5  C   UNL     1       0.026  -1.514   2.724  0.00  0.00    +0.111 C 
ATOM      6  N   UNL     1       0.642  -1.960   1.467  0.00  0.00    -0.299 N 
ATOM      7  C   UNL     1       0.030  -1.550   0.196  0.00  0.00    +0.111 C 
ATOM      8  C   UNL     1       1.780  -2.755   1.480  0.00  0.00    +0.221 A 
ATOM      9  N   UNL     1       1.807  -4.061   1.585  0.00  0.00    -0.112 NA
ATOM     10  N   UNL     1       3.147  -4.470   1.557  0.00  0.00    -0.121 NA
ATOM     11  C   UNL     1       3.894  -3.401   1.435  0.00  0.00    +0.194 A 
ATOM     12  N   UNL     1       3.069  -2.313   1.378  0.00  0.00    -0.283 N 
ATOM     13  C   UNL     1      -1.583  -3.428   2.719  0.00  0.00    +0.009 C 
ENDROOT
BRANCH  12  14
ATOM     14  C   UNL     1       3.492  -0.917   1.237  0.00  0.00    +0.201 C 
BRANCH  14  15
ATOM     15  C   UNL     1       3.725  -0.323   2.602  0.00  0.00    +0.125 A 
ATOM     16  C   UNL     1       4.890  -0.327   3.274  0.00  0.00    +0.046 A 
ATOM     17  C   UNL     1       4.657   0.333   4.503  0.00  0.00    +0.041 A 
ATOM     18  C   UNL     1       3.363   0.702   4.508  0.00  0.00    +0.195 A 
ATOM     19  O   UNL     1       2.805   0.307   3.352  0.00  0.00    -0.466 OA
ENDBRANCH  14  15
ENDBRANCH  12  14
BRANCH  11  20
ATOM     20  S   UNL     1       5.654  -3.371   1.353  0.00  0.00    -0.073 S 
BRANCH  20  21
ATOM     21  C   UNL     1       6.129  -5.118   1.474  0.00  0.00    +0.137 C 
ATOM     22  C   UNL     1       5.615  -5.872   0.245  0.00  0.00    +0.029 C 
BRANCH  21  23
ATOM     23  C   UNL     1       7.630  -5.228   1.539  0.00  0.00    +0.236 C 
ATOM     24  O   UNL     1       8.322  -4.310   1.152  0.00  0.00    -0.274 OA
ATOM     25  N   UNL     1       8.204  -6.345   2.027  0.00  0.00    -0.224 N 
ATOM     26  C   UNL     1       9.651  -6.576   2.150  0.00  0.00    +0.136 C 
ATOM     27  C   UNL     1       9.749  -7.989   2.756  0.00  0.00    +0.125 C 
ATOM     28  N   UNL     1       8.347  -8.405   2.911  0.00  0.00    -0.297 N 
ATOM     29  C   UNL     1       7.546  -7.420   2.482  0.00  0.00    +0.309 C 
ATOM     30  O   UNL     1       6.334  -7.496   2.501  0.00  0.00    -0.252 OA
ATOM     31  H   UNL     1       8.049  -9.255   3.270  0.00  0.00    +0.150 HD
ENDBRANCH  21  23
ENDBRANCH  20  21
ENDBRANCH  11  20
TORSDOF 5
