REMARK  Name = ZINC51715933
REMARK  7 active torsions:
REMARK  status: ('A' for Active; 'I' for Inactive)
REMARK    1  A    between atoms: C_3  and  N_8
REMARK    2  A    between atoms: C_9  and  C_11
REMARK    3  A    between atoms: C_11  and  N_12
REMARK    4  A    between atoms: N_15  and  C_16
REMARK    5  A    between atoms: C_16  and  C_17
REMARK    6  A    between atoms: C_17  and  C_18
REMARK    7  A    between atoms: C_17  and  N_23
REMARK                            x       y       z     vdW  Elec       q    Type
REMARK                         _______ _______ _______ _____ _____    ______ ____
ROOT
ATOM      1  N   UNL     1       7.186   1.326   0.874  0.00  0.00    -0.291 N 
ATOM      2  C   UNL     1       8.453   1.788   0.868  0.00  0.00    +0.300 C 
ATOM      3  O   UNL     1       8.665   2.980   0.977  0.00  0.00    -0.253 OA
ATOM      4  N   UNL     1       9.483   0.928   0.743  0.00  0.00    -0.301 N 
ATOM      5  H   UNL     1       7.016   0.375   0.787  0.00  0.00    +0.151 HD
ATOM      6  H   UNL     1       9.313  -0.023   0.656  0.00  0.00    +0.150 HD
ENDROOT
BRANCH   1   7
ATOM      7  C   UNL     1       6.066   2.261   1.010  0.00  0.00    +0.202 C 
BRANCH   7   9
ATOM      8  N   UNL     1       3.597   2.153   1.098  0.00  0.00    -0.284 N 
ATOM      9  C   UNL     1       4.768   1.496   0.987  0.00  0.00    +0.234 C 
ATOM     10  O   UNL     1       4.777   0.289   0.868  0.00  0.00    -0.274 OA
ATOM     11  H   UNL     1       3.585   3.123   1.122  0.00  0.00    +0.155 HD
BRANCH   8  14
ATOM     12  C   UNL     1       1.181  -0.503   1.893  0.00  0.00    +0.005 A 
ATOM     13  C   UNL     1       2.366   0.202   1.814  0.00  0.00    +0.023 A 
ATOM     14  C   UNL     1       2.398   1.437   1.179  0.00  0.00    +0.036 A 
ATOM     15  C   UNL     1       1.237   1.960   0.625  0.00  0.00    +0.061 A 
ATOM     16  C   UNL     1       0.053   1.249   0.707  0.00  0.00    +0.125 A 
ATOM     17  C   UNL     1       0.026   0.018   1.341  0.00  0.00    +0.038 A 
ATOM     18  F   UNL     1      -1.078   1.756   0.168  0.00  0.00    -0.205 F 
ENDBRANCH   8  14
ENDBRANCH   7   9
ENDBRANCH   1   7
BRANCH   4  19
ATOM     19  C   UNL     1      10.859   1.430   0.737  0.00  0.00    +0.095 C 
BRANCH  19  20
ATOM     20  C   UNL     1      11.824   0.270   0.480  0.00  0.00    -0.013 C 
BRANCH  20  21
ATOM     21  N   UNL     1      13.191   0.791   0.349  0.00  0.00    +0.386 N 
ATOM     22  C   UNL     1      14.139  -0.322   0.084  0.00  0.00    -0.078 C 
ATOM     23  C   UNL     1      15.349   0.392  -0.570  0.00  0.00    -0.020 C 
ATOM     24  C   UNL     1      14.679   1.479  -1.442  0.00  0.00    -0.020 C 
ATOM     25  C   UNL     1      13.285   1.688  -0.823  0.00  0.00    -0.078 C 
ATOM     26  H   UNL     1      13.458   1.284   1.187  0.00  0.00    -0.081 HD
ENDBRANCH  20  21
BRANCH  20  27
ATOM     27  C   UNL     1      11.764  -0.698   1.633  0.00  0.00    -0.022 A 
ATOM     28  C   UNL     1      11.102  -1.878   1.724  0.00  0.00    +0.009 A 
ATOM     29  C   UNL     1      11.192  -2.609   2.893  0.00  0.00    +0.008 A 
ATOM     30  C   UNL     1      11.938  -2.124   3.916  0.00  0.00    +0.045 A 
ATOM     31  S   UNL     1      12.551  -0.593   3.232  0.00  0.00    -0.103 S 
ENDBRANCH  20  27
ENDBRANCH  19  20
ENDBRANCH   4  19
TORSDOF 7
