REMARK  Name = ZINC05923760
REMARK  8 active torsions:
REMARK  status: ('A' for Active; 'I' for Inactive)
REMARK    1  A    between atoms: C_1  and  C_2
REMARK    2  A    between atoms: C_2  and  C_3
REMARK    3  A    between atoms: C_3  and  S_4
REMARK    4  A    between atoms: S_4  and  C_5
REMARK    5  A    between atoms: C_16  and  C_18
REMARK    6  A    between atoms: C_21  and  O_26
REMARK    7  A    between atoms: C_22  and  O_24
REMARK    8  A    between atoms: O_24  and  C_25
REMARK                            x       y       z     vdW  Elec       q    Type
REMARK                         _______ _______ _______ _____ _____    ______ ____
ROOT
ATOM      1  C   UNL     1       3.775  -1.472   1.146  0.00  0.00    +0.171 A 
ATOM      2  N   UNL     1       2.704  -2.312   1.180  0.00  0.00    -0.302 N 
ATOM      3  H   UNL     1       2.834  -3.356   1.502  0.00  0.00    +0.171 HD
ATOM      4  C   UNL     1       1.482  -1.868   0.819  0.00  0.00    +0.258 A 
ATOM      5  O   UNL     1       0.515  -2.613   0.846  0.00  0.00    -0.267 OA
ATOM      6  C   UNL     1       1.343  -0.535   0.414  0.00  0.00    +0.069 A 
ATOM      7  C   UNL     1       2.462   0.279   0.399  0.00  0.00    +0.135 A 
ATOM      8  N   UNL     1       3.649  -0.216   0.766  0.00  0.00    -0.208 NA
ATOM      9  N   UNL     1       2.345   1.597   0.007  0.00  0.00    -0.302 N 
ATOM     10  C   UNL     1       1.126   2.219   0.003  0.00  0.00    +0.017 C 
ATOM     11  C   UNL     1      -0.018   1.504   0.010  0.00  0.00    +0.024 C 
ATOM     12  C   UNL     1       0.002  -0.004   0.002  0.00  0.00    +0.093 C 
ATOM     13  C   UNL     1      -1.271   2.142   0.032  0.00  0.00    +0.162 C 
ATOM     14  O   UNL     1      -2.283   1.469   0.037  0.00  0.00    -0.292 OA
ATOM     15  C   UNL     1      -1.385   3.642   0.041  0.00  0.00    +0.080 C 
ATOM     16  C   UNL     1      -0.145   4.229   0.724  0.00  0.00    +0.014 C 
ATOM     17  C   UNL     1       1.098   3.728  -0.015  0.00  0.00    +0.051 C 
ATOM     18  H   UNL     1       3.237   2.159  -0.307  0.00  0.00    +0.153 HD
ENDROOT
BRANCH  12  19
ATOM     19  C   UNL     1      -0.315  -0.494  -1.387  0.00  0.00    -0.032 A 
ATOM     20  C   UNL     1       0.498  -0.136  -2.447  0.00  0.00    +0.008 A 
ATOM     21  C   UNL     1       0.212  -0.584  -3.723  0.00  0.00    +0.049 A 
ATOM     22  C   UNL     1      -0.892  -1.392  -3.943  0.00  0.00    +0.158 A 
ATOM     23  C   UNL     1      -1.711  -1.751  -2.877  0.00  0.00    +0.162 A 
ATOM     24  C   UNL     1      -1.415  -1.304  -1.599  0.00  0.00    +0.054 A 
BRANCH  23  25
ATOM     25  O   UNL     1      -2.796  -2.544  -3.087  0.00  0.00    -0.491 OA
ATOM     26  C   UNL     1      -3.590  -2.873  -1.946  0.00  0.00    +0.277 C 
ENDBRANCH  23  25
BRANCH  22  27
ATOM     27  O   UNL     1      -1.175  -1.833  -5.198  0.00  0.00    -0.503 OA
ATOM     28  H   UNL     1      -2.052  -2.475  -5.371  0.00  0.00    +0.292 HD
ENDBRANCH  22  27
ENDBRANCH  12  19
BRANCH   1  29
ATOM     29  S   UNL     1       5.361  -2.075   1.620  0.00  0.00    -0.088 S 
BRANCH  29  30
ATOM     30  C   UNL     1       6.350  -0.578   1.384  0.00  0.00    +0.077 C 
BRANCH  30  32
ATOM     31  C   UNL     1       8.645   0.397   1.546  0.00  0.00    +0.004 C 
ATOM     32  C   UNL     1       7.809  -0.868   1.745  0.00  0.00    +0.008 C 
ENDBRANCH  30  32
ENDBRANCH  29  30
ENDBRANCH   1  29
TORSDOF 6
