REMARK  Name = ZINC26568695
REMARK  8 active torsions:
REMARK  status: ('A' for Active; 'I' for Inactive)
REMARK    1  A    between atoms: C_1  and  C_2
REMARK    2  A    between atoms: C_2  and  C_3
REMARK    3  A    between atoms: C_2  and  C_4
REMARK    4  A    between atoms: C_7  and  C_10
REMARK    5  A    between atoms: C_10  and  C_29
REMARK    6  A    between atoms: N_13  and  C_17
REMARK    7  A    between atoms: C_17  and  C_18
REMARK    8  A    between atoms: N_22  and  C_23
REMARK                            x       y       z     vdW  Elec       q    Type
REMARK                         _______ _______ _______ _____ _____    ______ ____
ROOT
ATOM      1  C   UNL     1      -4.865   5.278  -1.195  0.00  0.00    +0.135 C 
ATOM      2  C   UNL     1      -3.819   4.475  -0.447  0.00  0.00    +0.251 C 
ATOM      3  O   UNL     1      -2.615   4.546  -0.569  0.00  0.00    -0.272 OA
ATOM      4  N   UNL     1      -4.507   3.663   0.380  0.00  0.00    -0.216 N 
ATOM      5  C   UNL     1      -5.828   3.845   0.265  0.00  0.00    +0.310 C 
ATOM      6  O   UNL     1      -6.653   3.230   0.911  0.00  0.00    -0.252 OA
ATOM      7  N   UNL     1      -6.139   4.785  -0.646  0.00  0.00    -0.281 N 
ATOM      8  C   UNL     1      -4.699   6.772  -0.910  0.00  0.00    +0.047 C 
ATOM      9  H   UNL     1      -7.092   5.199  -1.008  0.00  0.00    +0.152 HD
ENDROOT
BRANCH   1  13
ATOM     10  C   UNL     1      -4.641   4.519  -5.393  0.00  0.00    -0.045 A 
ATOM     11  C   UNL     1      -5.866   4.763  -4.798  0.00  0.00    +0.004 A 
ATOM     12  C   UNL     1      -5.938   5.008  -3.440  0.00  0.00    +0.006 A 
ATOM     13  C   UNL     1      -4.786   5.010  -2.676  0.00  0.00    -0.015 A 
ATOM     14  C   UNL     1      -3.561   4.772  -3.271  0.00  0.00    +0.006 A 
ATOM     15  C   UNL     1      -3.490   4.522  -4.629  0.00  0.00    +0.004 A 
BRANCH  10  17
ATOM     16  C   UNL     1      -3.681   5.312  -7.537  0.00  0.00    +0.012 C 
ATOM     17  C   UNL     1      -4.563   4.253  -6.874  0.00  0.00    +0.013 C 
ATOM     18  C   UNL     1      -3.960   2.866  -7.111  0.00  0.00    +0.012 C 
ENDBRANCH  10  17
ENDBRANCH   1  13
BRANCH   4  19
ATOM     19  C   UNL     1      -3.885   2.703   1.296  0.00  0.00    +0.196 C 
BRANCH  19  20
ATOM     20  C   UNL     1      -3.687   1.388   0.587  0.00  0.00    +0.174 A 
ATOM     21  N   UNL     1      -2.685   1.069  -0.189  0.00  0.00    -0.111 NA
ATOM     22  N   UNL     1      -2.820  -0.128  -0.634  0.00  0.00    -0.023 NA
ATOM     23  N   UNL     1      -3.903  -0.655  -0.173  0.00  0.00    -0.039 NA
ATOM     24  N   UNL     1      -4.512   0.319   0.637  0.00  0.00    -0.196 N 
BRANCH  24  25
ATOM     25  C   UNL     1      -5.715   0.204   1.349  0.00  0.00    +0.069 A 
ATOM     26  C   UNL     1      -6.827  -0.367   0.747  0.00  0.00    +0.028 A 
ATOM     27  C   UNL     1      -8.009  -0.485   1.453  0.00  0.00    +0.002 A 
ATOM     28  C   UNL     1      -8.085  -0.030   2.757  0.00  0.00    +0.000 A 
ATOM     29  C   UNL     1      -6.980   0.544   3.357  0.00  0.00    +0.002 A 
ATOM     30  C   UNL     1      -5.796   0.665   2.656  0.00  0.00    +0.028 A 
ENDBRANCH  24  25
ENDBRANCH  19  20
ENDBRANCH   4  19
TORSDOF 5
