REMARK  Name = ZINC07744530
REMARK  11 active torsions:
REMARK  status: ('A' for Active; 'I' for Inactive)
REMARK    1  A    between atoms: C_1  and  C_2
REMARK    2  A    between atoms: C_6  and  C_31
REMARK    3  A    between atoms: C_7  and  N_8
REMARK    4  A    between atoms: C_9  and  C_11
REMARK    5  A    between atoms: C_11  and  N_12
REMARK    6  A    between atoms: C_13  and  C_15
REMARK    7  A    between atoms: C_15  and  C_17
REMARK    8  A    between atoms: C_15  and  N_62
REMARK    9  A    between atoms: C_18  and  C_20
REMARK   10  A    between atoms: C_18  and  C_21
REMARK   11  A    between atoms: C_18  and  N_62
REMARK                            x       y       z     vdW  Elec       q    Type
REMARK                         _______ _______ _______ _____ _____    ______ ____
ROOT
ATOM      1  N   UNL     1       1.716  -1.221   0.133  0.00  0.00    -0.308 N 
ATOM      2  C   UNL     1       1.132  -0.752   1.253  0.00  0.00    +0.199 C 
ATOM      3  O   UNL     1       0.237  -1.379   1.778  0.00  0.00    -0.278 OA
ATOM      4  H   UNL     1       2.433  -0.720  -0.288  0.00  0.00    +0.149 HD
ENDROOT
BRANCH   2   5
ATOM      5  C   UNL     1       1.592   0.552   1.853  0.00  0.00    +0.014 C 
ATOM      6  C   UNL     1       1.399   1.678   0.836  0.00  0.00    -0.004 C 
BRANCH   5   7
ATOM      7  N   UNL     1       0.796   0.847   3.059  0.00  0.00    +0.391 N 
ATOM      8  H   UNL     1      -0.158   0.488   2.931  0.00  0.00    -0.084 HD
ATOM      9  H   UNL     1       0.763   1.863   3.203  0.00  0.00    -0.084 HD
BRANCH   7  10
ATOM     10  C   UNL     1       1.402   0.206   4.242  0.00  0.00    -0.043 C 
ATOM     11  C   UNL     1       2.461   1.135   4.839  0.00  0.00    -0.009 C 
BRANCH  10  12
ATOM     12  C   UNL     1       0.328  -0.056   5.266  0.00  0.00    -0.061 A 
ATOM     13  C   UNL     1      -0.663   0.881   5.488  0.00  0.00    +0.002 A 
ATOM     14  C   UNL     1      -1.644   0.632   6.425  0.00  0.00    +0.004 A 
ATOM     15  C   UNL     1      -1.637  -0.548   7.158  0.00  0.00    -0.044 A 
ATOM     16  C   UNL     1      -0.649  -1.481   6.939  0.00  0.00    -0.044 A 
ATOM     17  C   UNL     1       0.335  -1.230   5.990  0.00  0.00    +0.006 A 
ATOM     18  C   UNL     1      -0.585  -2.786   7.688  0.00  0.00    +0.035 C 
ATOM     19  C   UNL     1      -1.440  -2.722   8.952  0.00  0.00    +0.005 C 
ATOM     20  C   UNL     1      -2.837  -2.221   8.566  0.00  0.00    +0.005 C 
ATOM     21  C   UNL     1      -2.730  -0.748   8.175  0.00  0.00    +0.035 C 
ENDBRANCH  10  12
ENDBRANCH   7  10
ENDBRANCH   5   7
ENDBRANCH   2   5
BRANCH   1  22
ATOM     22  C   UNL     1       1.269  -2.489  -0.451  0.00  0.00    +0.200 C 
BRANCH  22  24
ATOM     23  N   UNL     1       1.839  -3.907  -2.395  0.00  0.00    -0.284 N 
ATOM     24  C   UNL     1       2.077  -2.785  -1.688  0.00  0.00    +0.234 C 
ATOM     25  O   UNL     1       2.941  -2.014  -2.047  0.00  0.00    -0.274 OA
ATOM     26  H   UNL     1       1.096  -4.483  -2.156  0.00  0.00    +0.155 HD
BRANCH  23  33
ATOM     27  C   UNL     1       3.143  -6.436  -2.357  0.00  0.00    +0.045 C 
ATOM     28  C   UNL     1       3.319  -5.466  -3.496  0.00  0.00    -0.029 A 
ATOM     29  C   UNL     1       4.128  -5.795  -4.566  0.00  0.00    +0.005 A 
ATOM     30  C   UNL     1       4.295  -4.904  -5.610  0.00  0.00    +0.001 A 
ATOM     31  C   UNL     1       3.648  -3.682  -5.588  0.00  0.00    +0.005 A 
ATOM     32  C   UNL     1       2.833  -3.348  -4.524  0.00  0.00    -0.029 A 
ATOM     33  C   UNL     1       2.664  -4.242  -3.475  0.00  0.00    +0.039 A 
ATOM     34  C   UNL     1       2.128  -2.016  -4.502  0.00  0.00    +0.045 C 
ENDBRANCH  23  33
ENDBRANCH  22  24
ENDBRANCH   1  22
TORSDOF 7
