REMARK  Name = ZINC55331348
REMARK  5 active torsions:
REMARK  status: ('A' for Active; 'I' for Inactive)
REMARK    1  A    between atoms: C_1  and  C_2
REMARK    2  A    between atoms: C_5  and  C_9
REMARK    3  A    between atoms: C_6  and  C_8
REMARK    4  A    between atoms: C_9  and  C_11
REMARK    5  A    between atoms: C_9  and  O_17
REMARK                            x       y       z     vdW  Elec       q    Type
REMARK                         _______ _______ _______ _____ _____    ______ ____
ROOT
ATOM      1  C   UNL     1       0.059  -4.229   0.077  0.00  0.00    +0.172 C 
ENDROOT
BRANCH   1   6
ATOM      2  C   UNL     1      -0.018   1.503   0.010  0.00  0.00    +0.065 C 
ATOM      3  C   UNL     1       0.002  -0.004   0.002  0.00  0.00    +0.039 A 
ATOM      4  C   UNL     1       0.005  -0.681  -1.203  0.00  0.00    +0.023 A 
ATOM      5  C   UNL     1       0.024  -2.067  -1.200  0.00  0.00    +0.010 A 
ATOM      6  C   UNL     1       0.039  -2.724   0.021  0.00  0.00    +0.006 A 
ATOM      7  C   UNL     1       0.035  -1.980   1.186  0.00  0.00    +0.044 A 
ATOM      8  N   UNL     1       0.022  -0.662   1.145  0.00  0.00    -0.257 NA
ATOM      9  C   UNL     1       0.050  -2.683   2.519  0.00  0.00    +0.066 C 
ENDBRANCH   1   6
BRANCH   1  10
ATOM     10  C   UNL     1      -1.349  -4.745   0.227  0.00  0.00    -0.041 C 
ATOM     11  C   UNL     1      -1.656  -5.363   1.323  0.00  0.00    -0.025 C 
ATOM     12  C   UNL     1      -3.010  -5.940   1.611  0.00  0.00    +0.027 C 
ATOM     13  C   UNL     1      -4.051  -5.343   0.661  0.00  0.00    +0.004 C 
ATOM     14  C   UNL     1      -3.514  -5.443  -0.772  0.00  0.00    +0.005 C 
ATOM     15  C   UNL     1      -2.309  -4.507  -0.901  0.00  0.00    +0.033 C 
ENDBRANCH   1  10
BRANCH   1  16
ATOM     16  O   UNL     1       0.630  -4.744  -1.128  0.00  0.00    -0.383 OA
ATOM     17  H   UNL     1       0.148  -4.494  -1.928  0.00  0.00    +0.211 HD
ENDBRANCH   1  16
TORSDOF 3
