REMARK  Name = ZINC03520924
REMARK  11 active torsions:
REMARK  status: ('A' for Active; 'I' for Inactive)
REMARK    1  A    between atoms: C_1  and  C_2
REMARK    2  A    between atoms: C_2  and  O_3
REMARK    3  A    between atoms: O_3  and  C_4
REMARK    4  A    between atoms: C_4  and  C_6
REMARK    5  A    between atoms: C_7  and  C_27
REMARK    6  A    between atoms: C_8  and  C_23
REMARK    7  A    between atoms: C_10  and  N_11
REMARK    8  A    between atoms: C_12  and  C_14
REMARK    9  A    between atoms: C_14  and  S_15
REMARK   10  A    between atoms: S_15  and  C_16
REMARK   11  A    between atoms: N_25  and  C_26
REMARK                            x       y       z     vdW  Elec       q    Type
REMARK                         _______ _______ _______ _____ _____    ______ ____
ROOT
ATOM      1  C   UNL     1      -1.248  -2.099   0.003  0.00  0.00    +0.091 A 
ATOM      2  C   UNL     1      -1.259  -2.822   1.186  0.00  0.00    -0.015 A 
ATOM      3  C   UNL     1      -1.318  -4.186   1.097  0.00  0.00    +0.079 A 
ATOM      4  S   UNL     1      -1.345  -4.463  -0.664  0.00  0.00    -0.068 S 
ATOM      5  C   UNL     1      -1.287  -2.815  -1.198  0.00  0.00    +0.087 A 
ATOM      6  C   UNL     1      -1.214  -2.129   2.524  0.00  0.00    +0.046 C 
ENDROOT
BRANCH   3   7
ATOM      7  C   UNL     1      -1.345  -5.173   2.178  0.00  0.00    +0.251 C 
ATOM      8  O   UNL     1      -1.320  -4.805   3.338  0.00  0.00    -0.270 OA
ATOM      9  N   UNL     1      -1.399  -6.488   1.889  0.00  0.00    -0.314 N 
ATOM     10  C   UNL     1      -1.427  -7.475   2.971  0.00  0.00    +0.128 C 
ATOM     11  H   UNL     1      -1.422  -6.820   0.841  0.00  0.00    +0.149 HD
ENDBRANCH   3   7
BRANCH   5  12
ATOM     12  N   UNL     1      -1.280  -2.329  -2.491  0.00  0.00    -0.279 N 
ATOM     13  C   UNL     1      -1.323  -3.183  -3.533  0.00  0.00    +0.228 C 
ATOM     14  O   UNL     1      -1.367  -4.379  -3.334  0.00  0.00    -0.275 OA
ATOM     15  H   UNL     1      -1.240  -1.244  -2.671  0.00  0.00    +0.155 HD
BRANCH  13  16
ATOM     16  C   UNL     1      -1.315  -2.653  -4.943  0.00  0.00    +0.173 C 
BRANCH  16  17
ATOM     17  S   UNL     1      -1.380  -4.040  -6.111  0.00  0.00    -0.075 S 
BRANCH  17  18
ATOM     18  C   UNL     1      -1.365  -3.265  -7.693  0.00  0.00    +0.210 A 
ATOM     19  N   UNL     1      -1.395  -3.901  -8.870  0.00  0.00    -0.188 NA
ATOM     20  C   UNL     1      -1.375  -3.021  -9.849  0.00  0.00    +0.209 A 
ATOM     21  N   UNL     1      -1.322  -1.789  -9.301  0.00  0.00    -0.246 N 
ATOM     22  H   UNL     1      -1.293  -0.900  -9.948  0.00  0.00    +0.192 HD
ATOM     23  N   UNL     1      -1.316  -1.973  -7.909  0.00  0.00    -0.144 NA
ATOM     24  N   UNL     1      -1.399  -3.309 -11.201  0.00  0.00    -0.328 N 
ATOM     25  H   UNL     1      -1.378  -2.492 -11.938  0.00  0.00    +0.145 HD
ATOM     26  H   UNL     1      -1.438  -4.355 -11.541  0.00  0.00    +0.145 HD
ENDBRANCH  17  18
ENDBRANCH  16  17
ENDBRANCH  13  16
ENDBRANCH   5  12
BRANCH   1  27
ATOM     27  C   UNL     1      -1.191  -0.632   0.010  0.00  0.00    +0.342 C 
ATOM     28  O   UNL     1      -2.220   0.016   0.023  0.00  0.00    -0.245 OA
BRANCH  27  29
ATOM     29  O   UNL     1       0.002  -0.004   0.002  0.00  0.00    -0.461 OA
BRANCH  29  31
ATOM     30  C   UNL     1       1.418   1.977  -0.001  0.00  0.00    +0.048 C 
ATOM     31  C   UNL     1      -0.018   1.448   0.010  0.00  0.00    +0.229 C 
ENDBRANCH  29  31
ENDBRANCH  27  29
ENDBRANCH   1  27
TORSDOF 8
