REMARK  Name = ZINC20562778
REMARK  9 active torsions:
REMARK  status: ('A' for Active; 'I' for Inactive)
REMARK    1  A    between atoms: C_1  and  C_2
REMARK    2  A    between atoms: C_9  and  N_15
REMARK    3  A    between atoms: C_10  and  C_11
REMARK    4  A    between atoms: C_11  and  O_13
REMARK    5  A    between atoms: O_13  and  C_14
REMARK    6  A    between atoms: N_15  and  C_16
REMARK    7  A    between atoms: C_16  and  N_18
REMARK    8  A    between atoms: N_18  and  N_19
REMARK    9  A    between atoms: C_20  and  C_22
REMARK                            x       y       z     vdW  Elec       q    Type
REMARK                         _______ _______ _______ _____ _____    ______ ____
ROOT
ATOM      1  C   UNL     1      -3.572  -6.202   0.395  0.00  0.00    +0.151 C 
ATOM      2  S   UNL     1      -4.598  -4.960  -0.182  0.00  0.00    -0.017 S 
ENDROOT
BRANCH   1   3
ATOM      3  N   UNL     1      -2.307  -5.915   0.762  0.00  0.00    -0.290 N 
ATOM      4  H   UNL     1      -1.648  -6.714   1.133  0.00  0.00    +0.154 HD
BRANCH   3  12
ATOM      5  C   UNL     1      -0.019   1.526   0.010  0.00  0.00    +0.008 C 
ATOM      6  C   UNL     1       0.002  -0.004   0.002  0.00  0.00    -0.009 C 
ATOM      7  C   UNL     1       0.742  -0.514   1.242  0.00  0.00    +0.008 C 
ATOM      8  C   UNL     1       0.984  -2.020   1.121  0.00  0.00    +0.037 C 
ATOM      9  C   UNL     1      -0.341  -2.706   0.809  0.00  0.00    -0.021 A 
ATOM     10  C   UNL     1      -1.390  -2.006   0.327  0.00  0.00    -0.004 A 
ATOM     11  S   UNL     1      -2.679  -3.203   0.124  0.00  0.00    -0.077 S 
ATOM     12  C   UNL     1      -1.838  -4.615   0.672  0.00  0.00    +0.086 A 
ATOM     13  C   UNL     1      -0.579  -4.127   0.999  0.00  0.00    +0.091 A 
ATOM     14  C   UNL     1      -1.437  -0.538   0.031  0.00  0.00    +0.046 C 
BRANCH  13  15
ATOM     15  C   UNL     1       0.467  -5.011   1.516  0.00  0.00    +0.342 C 
ATOM     16  O   UNL     1       0.574  -5.191   2.714  0.00  0.00    -0.245 OA
BRANCH  15  17
ATOM     17  O   UNL     1       1.313  -5.625   0.663  0.00  0.00    -0.464 OA
ATOM     18  C   UNL     1       2.326  -6.486   1.246  0.00  0.00    +0.280 C 
ENDBRANCH  15  17
ENDBRANCH  13  15
ENDBRANCH   3  12
ENDBRANCH   1   3
BRANCH   1  19
ATOM     19  N   UNL     1      -4.028  -7.467   0.483  0.00  0.00    -0.245 N 
ATOM     20  H   UNL     1      -5.061  -7.702   0.183  0.00  0.00    +0.172 HD
BRANCH  19  21
ATOM     21  N   UNL     1      -3.188  -8.484   0.955  0.00  0.00    -0.231 N 
ATOM     22  C   UNL     1      -3.645  -9.749   1.042  0.00  0.00    +0.261 C 
ATOM     23  O   UNL     1      -4.786 -10.008   0.711  0.00  0.00    -0.269 OA
ATOM     24  H   UNL     1      -2.156  -8.250   1.255  0.00  0.00    +0.173 HD
BRANCH  22  25
ATOM     25  C   UNL     1      -2.762 -10.818   1.539  0.00  0.00    +0.049 A 
ATOM     26  C   UNL     1      -1.464 -10.550   1.914  0.00  0.00    +0.058 A 
ATOM     27  S   UNL     1      -0.868 -12.100   2.411  0.00  0.00    -0.101 S 
ATOM     28  C   UNL     1      -2.318 -13.070   2.113  0.00  0.00    -0.006 A 
ATOM     29  C   UNL     1      -3.229 -12.187   1.643  0.00  0.00    -0.025 A 
ATOM     30  C   UNL     1      -4.633 -12.638   1.260  0.00  0.00    +0.037 C 
ATOM     31  C   UNL     1      -4.625 -14.155   1.060  0.00  0.00    +0.005 C 
ATOM     32  C   UNL     1      -4.017 -14.839   2.288  0.00  0.00    +0.005 C 
ATOM     33  C   UNL     1      -2.511 -14.539   2.328  0.00  0.00    +0.043 C 
ENDBRANCH  22  25
ENDBRANCH  19  21
ENDBRANCH   1  19
TORSDOF 7
