REMARK  Name = ZINC14018647
REMARK  5 active torsions:
REMARK  status: ('A' for Active; 'I' for Inactive)
REMARK    1  A    between atoms: C_1  and  C_2
REMARK    2  A    between atoms: C_4  and  C_7
REMARK    3  A    between atoms: C_7  and  N_8
REMARK    4  A    between atoms: C_11  and  C_15
REMARK    5  A    between atoms: C_11  and  C_16
REMARK                            x       y       z     vdW  Elec       q    Type
REMARK                         _______ _______ _______ _____ _____    ______ ____
ROOT
ATOM      1  N   UNL     1      -3.943   0.944  -1.762  0.00  0.00    -0.218 N 
ATOM      2  C   UNL     1      -3.591   1.737  -0.726  0.00  0.00    +0.251 C 
ATOM      3  O   UNL     1      -4.039   2.829  -0.450  0.00  0.00    -0.272 OA
ATOM      4  C   UNL     1      -2.513   0.975   0.019  0.00  0.00    +0.135 C 
ATOM      5  N   UNL     1      -2.372  -0.274  -0.750  0.00  0.00    -0.281 N 
ATOM      6  C   UNL     1      -3.247  -0.199  -1.769  0.00  0.00    +0.310 C 
ATOM      7  O   UNL     1      -3.390  -1.071  -2.603  0.00  0.00    -0.252 OA
ATOM      8  C   UNL     1      -2.958   0.677   1.452  0.00  0.00    +0.047 C 
ATOM      9  H   UNL     1      -1.766  -1.007  -0.559  0.00  0.00    +0.152 HD
ENDROOT
BRANCH   4  10
ATOM     10  C   UNL     1      -1.219   1.748   0.017  0.00  0.00    -0.015 A 
ATOM     11  C   UNL     1      -1.239   3.130   0.030  0.00  0.00    +0.006 A 
ATOM     12  C   UNL     1      -0.052   3.836   0.022  0.00  0.00    +0.004 A 
ATOM     13  C   UNL     1       1.159   3.164   0.008  0.00  0.00    -0.044 A 
ATOM     14  C   UNL     1       1.179   1.782   0.000  0.00  0.00    -0.044 A 
ATOM     15  C   UNL     1      -0.013   1.076   0.008  0.00  0.00    +0.010 A 
ATOM     16  C   UNL     1       2.610   1.291  -0.016  0.00  0.00    +0.036 C 
ATOM     17  C   UNL     1       3.450   2.509  -0.459  0.00  0.00    +0.009 C 
ATOM     18  C   UNL     1       2.576   3.696  -0.004  0.00  0.00    +0.036 C 
ENDBRANCH   4  10
BRANCH   1  19
ATOM     19  C   UNL     1      -4.963   1.292  -2.754  0.00  0.00    +0.176 C 
BRANCH  19  23
ATOM     20  C   UNL     1      -9.602   0.926  -0.691  0.00  0.00    +0.089 C 
ATOM     21  C   UNL     1      -8.296   0.663  -1.394  0.00  0.00    +0.135 A 
ATOM     22  C   UNL     1      -7.282   1.543  -1.577  0.00  0.00    +0.072 A 
ATOM     23  C   UNL     1      -6.309   0.801  -2.284  0.00  0.00    +0.102 A 
ATOM     24  N   UNL     1      -6.807  -0.390  -2.455  0.00  0.00    -0.081 NA
ATOM     25  O   UNL     1      -7.907  -0.487  -1.963  0.00  0.00    -0.360 OA
ENDBRANCH  19  23
ENDBRANCH   1  19
TORSDOF 3
