REMARK  Name = ZINC31224041
REMARK  6 active torsions:
REMARK  status: ('A' for Active; 'I' for Inactive)
REMARK    1  A    between atoms: C_1  and  C_2
REMARK    2  A    between atoms: C_5  and  C_7
REMARK    3  A    between atoms: C_9  and  C_26
REMARK    4  A    between atoms: C_10  and  C_12
REMARK    5  A    between atoms: N_14  and  N_15
REMARK    6  A    between atoms: C_16  and  C_18
REMARK                            x       y       z     vdW  Elec       q    Type
REMARK                         _______ _______ _______ _____ _____    ______ ____
ROOT
ATOM      1  C   UNL     1      -0.016   1.344   0.009  0.00  0.00    +0.269 C 
ATOM      2  O   UNL     1       1.030   1.966   0.003  0.00  0.00    -0.268 OA
ATOM      3  N   UNL     1       0.002  -0.004   0.002  0.00  0.00    -0.230 N 
ATOM      4  H   UNL     1      -0.943  -0.567   0.008  0.00  0.00    +0.173 HD
ENDROOT
BRANCH   1   8
ATOM      5  C   UNL     1      -3.806   2.992   0.035  0.00  0.00    +0.144 A 
ATOM      6  N   UNL     1      -2.781   3.843   0.036  0.00  0.00    -0.240 NA
ATOM      7  C   UNL     1      -1.547   3.425   0.028  0.00  0.00    +0.058 A 
ATOM      8  C   UNL     1      -1.294   2.058   0.019  0.00  0.00    +0.098 A 
ATOM      9  S   UNL     1      -2.963   1.415   0.016  0.00  0.00    -0.059 S 
ATOM     10  C   UNL     1      -0.408   4.411   0.029  0.00  0.00    +0.067 C 
BRANCH   5  15
ATOM     11  C   UNL     1      -8.141   5.504   0.070  0.00  0.00    +0.086 C 
ATOM     12  C   UNL     1      -7.150   4.369   0.059  0.00  0.00    +0.103 A 
ATOM     13  C   UNL     1      -7.460   3.055   0.052  0.00  0.00    +0.045 A 
ATOM     14  C   UNL     1      -6.246   2.345   0.043  0.00  0.00    +0.052 A 
ATOM     15  C   UNL     1      -5.247   3.274   0.043  0.00  0.00    +0.160 A 
ATOM     16  O   UNL     1      -5.815   4.497   0.059  0.00  0.00    -0.458 OA
ENDBRANCH   5  15
ENDBRANCH   1   8
BRANCH   3  17
ATOM     17  N   UNL     1       1.225  -0.688  -0.013  0.00  0.00    -0.230 N 
ATOM     18  C   UNL     1       1.243  -2.036  -0.021  0.00  0.00    +0.267 C 
ATOM     19  O   UNL     1       0.197  -2.658  -0.014  0.00  0.00    -0.268 OA
ATOM     20  H   UNL     1       2.170  -0.125  -0.019  0.00  0.00    +0.173 HD
BRANCH  18  21
ATOM     21  C   UNL     1       2.522  -2.751  -0.037  0.00  0.00    +0.076 A 
ATOM     22  C   UNL     1       2.759  -4.110  -0.046  0.00  0.00    +0.024 A 
ATOM     23  C   UNL     1       4.083  -4.549  -0.062  0.00  0.00    -0.036 A 
ATOM     24  C   UNL     1       5.045  -3.588  -0.064  0.00  0.00    -0.006 A 
ATOM     25  S   UNL     1       4.179  -2.092  -0.057  0.00  0.00    -0.088 S 
ATOM     26  C   UNL     1       6.428  -4.178  -0.075  0.00  0.00    +0.043 C 
ATOM     27  C   UNL     1       6.229  -5.647   0.357  0.00  0.00    +0.010 C 
ATOM     28  C   UNL     1       4.776  -5.914  -0.080  0.00  0.00    +0.036 C 
ENDBRANCH  18  21
ENDBRANCH   3  17
TORSDOF 4
