REMARK  Name = ZINC09645722
REMARK  7 active torsions:
REMARK  status: ('A' for Active; 'I' for Inactive)
REMARK    1  A    between atoms: C_1  and  N_2
REMARK    2  A    between atoms: C_5  and  N_21
REMARK    3  A    between atoms: C_6  and  N_15
REMARK    4  A    between atoms: N_9  and  C_14
REMARK    5  A    between atoms: N_21  and  S_22
REMARK    6  A    between atoms: S_22  and  C_25
REMARK    7  A    between atoms: C_28  and  C_31
REMARK                            x       y       z     vdW  Elec       q    Type
REMARK                         _______ _______ _______ _____ _____    ______ ____
ROOT
ATOM      1  C   UNL     1       5.891  -2.733   5.366  0.00  0.00    +0.153 C 
ATOM      2  N   UNL     1       4.591  -2.074   5.507  0.00  0.00    -0.305 N 
ATOM      3  C   UNL     1       3.939  -1.573   4.383  0.00  0.00    +0.070 A 
ATOM      4  C   UNL     1       4.532  -1.704   3.131  0.00  0.00    +0.054 A 
ATOM      5  C   UNL     1       3.893  -1.214   2.006  0.00  0.00    +0.071 A 
ATOM      6  C   UNL     1       2.654  -0.578   2.127  0.00  0.00    +0.055 A 
ATOM      7  C   UNL     1       2.061  -0.447   3.371  0.00  0.00    +0.053 A 
ATOM      8  C   UNL     1       2.700  -0.942   4.503  0.00  0.00    +0.070 A 
ATOM      9  N   UNL     1       2.094  -0.804   5.750  0.00  0.00    -0.305 N 
ATOM     10  C   UNL     1       2.703  -1.280   6.854  0.00  0.00    +0.316 A 
ATOM     11  O   UNL     1       2.178  -1.162   7.944  0.00  0.00    -0.262 OA
ATOM     12  C   UNL     1       4.026  -1.954   6.726  0.00  0.00    +0.316 A 
ATOM     13  O   UNL     1       4.591  -2.390   7.709  0.00  0.00    -0.262 OA
ATOM     14  C   UNL     1       0.792  -0.141   5.861  0.00  0.00    +0.153 C 
ENDROOT
BRANCH   6  15
ATOM     15  N   UNL     1       2.009  -0.078   0.989  0.00  0.00    -0.324 N 
ATOM     16  C   UNL     1       0.700  -0.719   0.801  0.00  0.00    +0.133 C 
ATOM     17  C   UNL     1       0.058  -0.188  -0.484  0.00  0.00    +0.178 C 
ATOM     18  O   UNL     1      -0.043   1.236  -0.408  0.00  0.00    -0.377 OA
ATOM     19  C   UNL     1       1.215   1.893  -0.225  0.00  0.00    +0.178 C 
ATOM     20  C   UNL     1       1.868   1.384   1.062  0.00  0.00    +0.133 C 
ENDBRANCH   6  15
BRANCH   5  21
ATOM     21  N   UNL     1       4.489  -1.351   0.746  0.00  0.00    -0.214 N 
ATOM     22  H   UNL     1       4.387  -0.650   0.083  0.00  0.00    +0.174 HD
BRANCH  21  23
ATOM     23  S   UNL     1       5.367  -2.708   0.389  0.00  0.00    +0.072 S 
ATOM     24  O   UNL     1       5.722  -2.613  -0.983  0.00  0.00    -0.150 OA
ATOM     25  O   UNL     1       6.336  -2.847   1.419  0.00  0.00    -0.150 OA
BRANCH  23  26
ATOM     26  C   UNL     1       4.278  -4.086   0.533  0.00  0.00    +0.109 A 
ATOM     27  C   UNL     1       4.151  -4.743   1.743  0.00  0.00    +0.029 A 
ATOM     28  C   UNL     1       3.292  -5.820   1.858  0.00  0.00    +0.006 A 
ATOM     29  C   UNL     1       2.570  -6.248   0.759  0.00  0.00    -0.044 A 
ATOM     30  C   UNL     1       2.702  -5.595  -0.452  0.00  0.00    +0.006 A 
ATOM     31  C   UNL     1       3.556  -4.514  -0.565  0.00  0.00    +0.029 A 
BRANCH  29  32
ATOM     32  C   UNL     1       1.640  -7.427   0.883  0.00  0.00    +0.019 C 
ATOM     33  C   UNL     1       0.570  -7.125   1.934  0.00  0.00    +0.008 C 
ATOM     34  C   UNL     1      -0.375  -8.321   2.059  0.00  0.00    +0.001 C 
ATOM     35  C   UNL     1       0.420  -9.558   2.482  0.00  0.00    +0.000 C 
ATOM     36  C   UNL     1       1.490  -9.860   1.431  0.00  0.00    +0.001 C 
ATOM     37  C   UNL     1       2.435  -8.664   1.306  0.00  0.00    +0.008 C 
ENDBRANCH  29  32
ENDBRANCH  23  26
ENDBRANCH  21  23
ENDBRANCH   5  21
TORSDOF 5
