REMARK  Name = ZINC22472740
REMARK  11 active torsions:
REMARK  status: ('A' for Active; 'I' for Inactive)
REMARK    1  A    between atoms: C_1  and  C_2
REMARK    2  A    between atoms: C_2  and  C_3
REMARK    3  A    between atoms: C_2  and  C_4
REMARK    4  A    between atoms: C_2  and  C_5
REMARK    5  A    between atoms: C_8  and  C_11
REMARK    6  A    between atoms: N_13  and  C_14
REMARK    7  A    between atoms: N_13  and  C_15
REMARK    8  A    between atoms: C_15  and  C_16
REMARK    9  A    between atoms: C_16  and  C_17
REMARK   10  A    between atoms: C_17  and  N_18
REMARK   11  A    between atoms: C_21  and  O_22
REMARK                            x       y       z     vdW  Elec       q    Type
REMARK                         _______ _______ _______ _____ _____    ______ ____
ROOT
ATOM      1  C   UNL     1      -3.457   2.540   0.423  0.00  0.00    +0.040 C 
ENDROOT
BRANCH   1   2
ATOM      2  C   UNL     1      -4.748   1.836  -0.001  0.00  0.00    +0.109 C 
BRANCH   2   5
ATOM      3  C   UNL     1      -6.575   2.913   1.199  0.00  0.00    +0.246 C 
ATOM      4  O   UNL     1      -6.215   2.341   2.209  0.00  0.00    -0.270 OA
ATOM      5  N   UNL     1      -5.864   2.783   0.061  0.00  0.00    -0.301 N 
ATOM      6  C   UNL     1      -6.207   3.589  -1.113  0.00  0.00    +0.132 C 
BRANCH   3  10
ATOM      7  C   UNL     1     -10.074   5.320   1.252  0.00  0.00    -0.042 A 
ATOM      8  C   UNL     1      -9.425   5.022   2.437  0.00  0.00    +0.005 A 
ATOM      9  C   UNL     1      -8.288   4.241   2.427  0.00  0.00    +0.013 A 
ATOM     10  C   UNL     1      -7.793   3.750   1.217  0.00  0.00    +0.037 A 
ATOM     11  C   UNL     1      -8.450   4.059   0.025  0.00  0.00    +0.013 A 
ATOM     12  C   UNL     1      -9.588   4.837   0.050  0.00  0.00    +0.005 A 
BRANCH   7  14
ATOM     13  C   UNL     1     -10.983   7.543   1.868  0.00  0.00    +0.015 C 
ATOM     14  C   UNL     1     -11.316   6.174   1.271  0.00  0.00    -0.013 C 
ATOM     15  C   UNL     1     -11.834   6.353  -0.158  0.00  0.00    +0.015 C 
ATOM     16  C   UNL     1     -12.390   5.494   2.122  0.00  0.00    +0.015 C 
ENDBRANCH   7  14
ENDBRANCH   3  10
ENDBRANCH   2   5
ENDBRANCH   1   2
BRANCH   1  17
ATOM     17  C   UNL     1      -2.292   1.551   0.359  0.00  0.00    +0.114 C 
BRANCH  17  18
ATOM     18  N   UNL     1      -1.056   2.225   0.765  0.00  0.00    -0.384 N 
ATOM     19  C   UNL     1       0.133   1.530   0.785  0.00  0.00    +0.053 A 
ATOM     20  C   UNL     1       0.184   0.207   0.430  0.00  0.00    +0.113 A 
ATOM     21  C   UNL     1       1.409  -0.472   0.455  0.00  0.00    +0.286 A 
ATOM     22  O   UNL     1       2.549   0.136   0.821  0.00  0.00    -0.425 OA
ATOM     23  C   UNL     1       2.576   1.437   1.184  0.00  0.00    +0.141 A 
ATOM     24  C   UNL     1       1.389   2.187   1.184  0.00  0.00    +0.041 A 
ATOM     25  C   UNL     1       1.412   3.531   1.558  0.00  0.00    +0.013 A 
ATOM     26  C   UNL     1       2.604   4.115   1.926  0.00  0.00    +0.001 A 
ATOM     27  C   UNL     1       3.777   3.374   1.924  0.00  0.00    +0.004 A 
ATOM     28  C   UNL     1       3.767   2.045   1.558  0.00  0.00    +0.047 A 
ATOM     29  H   UNL     1      -1.078   3.286   1.054  0.00  0.00    +0.160 HD
BRANCH  21  30
ATOM     30  O   UNL     1       1.441  -1.648   0.136  0.00  0.00    -0.480 OA
ATOM     31  H   UNL     1       2.395  -2.196   0.151  0.00  0.00    +0.295 HD
ENDBRANCH  21  30
ENDBRANCH  17  18
ENDBRANCH   1  17
TORSDOF 7
