REMARK  Name = ZINC38008798
REMARK  7 active torsions:
REMARK  status: ('A' for Active; 'I' for Inactive)
REMARK    1  A    between atoms: C_1  and  C_2
REMARK    2  A    between atoms: C_4  and  C_21
REMARK    3  A    between atoms: C_5  and  N_9
REMARK    4  A    between atoms: C_6  and  C_8
REMARK    5  A    between atoms: N_9  and  S_10
REMARK    6  A    between atoms: S_10  and  C_13
REMARK    7  A    between atoms: N_19  and  N_20
REMARK                            x       y       z     vdW  Elec       q    Type
REMARK                         _______ _______ _______ _____ _____    ______ ____
ROOT
ATOM      1  S   UNL     1       1.361  -4.982  -0.587  0.00  0.00    +0.092 S 
ATOM      2  O   UNL     1       1.335  -4.813  -1.998  0.00  0.00    -0.148 OA
ATOM      3  O   UNL     1       2.477  -4.599   0.205  0.00  0.00    -0.148 OA
ENDROOT
BRANCH   1   4
ATOM      4  C   UNL     1       1.090  -6.695  -0.280  0.00  0.00    +0.115 A 
ATOM      5  C   UNL     1       1.523  -7.282   0.903  0.00  0.00    +0.046 A 
ATOM      6  C   UNL     1       1.294  -8.626   1.114  0.00  0.00    +0.086 A 
ATOM      7  N   UNL     1       0.672  -9.357   0.208  0.00  0.00    -0.349 N 
ATOM      8  C   UNL     1       0.244  -8.835  -0.931  0.00  0.00    +0.112 A 
ATOM      9  C   UNL     1       0.436  -7.485  -1.207  0.00  0.00    +0.071 A 
ATOM     10  N   UNL     1      -0.406  -9.642  -1.857  0.00  0.00    -0.269 N 
ATOM     11  H   UNL     1      -0.721  -9.264  -2.693  0.00  0.00    +0.167 HD
ATOM     12  H   UNL     1       0.524 -10.300   0.382  0.00  0.00    +0.167 HD
BRANCH  10  13
ATOM     13  N   UNL     1      -0.603 -10.967  -1.590  0.00  0.00    -0.255 NA
ATOM     14  H   UNL     1      -1.099 -11.091  -0.720  0.00  0.00    +0.140 HD
ATOM     15  H   UNL     1      -1.086 -11.422  -2.350  0.00  0.00    +0.140 HD
ENDBRANCH  10  13
ENDBRANCH   1   4
BRANCH   1  16
ATOM     16  N   UNL     1       0.052  -4.163   0.012  0.00  0.00    -0.097 NA
BRANCH  16  21
ATOM     17  C   UNL     1      -0.221   1.482  -0.458  0.00  0.00    +0.044 C 
ATOM     18  C   UNL     1      -0.148  -0.018  -0.333  0.00  0.00    -0.050 A 
ATOM     19  C   UNL     1      -0.224  -0.809  -1.465  0.00  0.00    +0.008 A 
ATOM     20  C   UNL     1      -0.157  -2.184  -1.354  0.00  0.00    -0.025 A 
ATOM     21  C   UNL     1      -0.015  -2.773  -0.104  0.00  0.00    +0.080 A 
ATOM     22  C   UNL     1       0.061  -1.975   1.031  0.00  0.00    -0.025 A 
ATOM     23  C   UNL     1      -0.001  -0.601   0.912  0.00  0.00    +0.008 A 
ATOM     24  C   UNL     1       0.215  -2.609   2.389  0.00  0.00    +0.046 C 
ATOM     25  C   UNL     1      -0.240  -3.046  -2.588  0.00  0.00    +0.046 C 
ENDBRANCH  16  21
ENDBRANCH   1  16
TORSDOF 4
