REMARK  Name = ZINC38517793
REMARK  8 active torsions:
REMARK  status: ('A' for Active; 'I' for Inactive)
REMARK    1  A    between atoms: C_1  and  N_2
REMARK    2  A    between atoms: C_9  and  C_11
REMARK    3  A    between atoms: C_11  and  C_13
REMARK    4  A    between atoms: C_11  and  N_27
REMARK    5  A    between atoms: C_13  and  N_14
REMARK    6  A    between atoms: N_17  and  C_18
REMARK    7  A    between atoms: N_27  and  C_28
REMARK    8  A    between atoms: N_27  and  C_29
REMARK                            x       y       z     vdW  Elec       q    Type
REMARK                         _______ _______ _______ _____ _____    ______ ____
ROOT
ATOM      1  C   UNL     1      -1.374  -3.958   4.647  0.00  0.00    +0.095 C 
ENDROOT
BRANCH   1   2
ATOM      2  N   UNL     1      -2.184  -4.352   3.492  0.00  0.00    -0.300 N 
ATOM      3  C   UNL     1      -3.516  -4.511   3.626  0.00  0.00    +0.304 C 
ATOM      4  O   UNL     1      -4.045  -4.326   4.705  0.00  0.00    -0.253 OA
ATOM      5  N   UNL     1      -4.261  -4.873   2.563  0.00  0.00    -0.269 N 
ATOM      6  H   UNL     1      -1.762  -4.499   2.631  0.00  0.00    +0.150 HD
ATOM      7  H   UNL     1      -3.849  -4.965   1.690  0.00  0.00    +0.156 HD
BRANCH   5   8
ATOM      8  C   UNL     1      -5.632  -5.118   2.719  0.00  0.00    +0.038 A 
ATOM      9  C   UNL     1      -6.248  -6.117   1.978  0.00  0.00    +0.027 A 
ATOM     10  C   UNL     1      -7.600  -6.359   2.131  0.00  0.00    +0.051 A 
ATOM     11  C   UNL     1      -8.344  -5.607   3.026  0.00  0.00    +0.166 A 
ATOM     12  C   UNL     1      -7.729  -4.604   3.771  0.00  0.00    +0.168 A 
ATOM     13  C   UNL     1      -6.373  -4.365   3.620  0.00  0.00    +0.073 A 
ATOM     14  O   UNL     1      -8.667  -4.016   4.569  0.00  0.00    -0.453 OA
ATOM     15  C   UNL     1      -9.939  -4.391   4.009  0.00  0.00    +0.466 C 
ATOM     16  O   UNL     1      -9.669  -5.646   3.357  0.00  0.00    -0.453 OA
ENDBRANCH   5   8
ENDBRANCH   1   2
BRANCH   1  17
ATOM     17  C   UNL     1       0.071  -3.726   4.201  0.00  0.00    -0.021 C 
BRANCH  17  26
ATOM     18  C   UNL     1       0.227   1.851   0.433  0.00  0.00    +0.129 C 
ATOM     19  N   UNL     1       0.247   0.392   0.308  0.00  0.00    -0.332 N 
ATOM     20  C   UNL     1       0.330  -0.341  -0.958  0.00  0.00    +0.109 C 
ATOM     21  C   UNL     1       0.320  -1.827  -0.565  0.00  0.00    +0.056 C 
ATOM     22  C   UNL     1       0.229  -1.820   0.944  0.00  0.00    -0.025 A 
ATOM     23  C   UNL     1       0.197  -0.504   1.378  0.00  0.00    +0.033 A 
ATOM     24  C   UNL     1       0.118  -0.243   2.747  0.00  0.00    +0.023 A 
ATOM     25  C   UNL     1       0.078  -1.282   3.652  0.00  0.00    +0.004 A 
ATOM     26  C   UNL     1       0.115  -2.592   3.209  0.00  0.00    -0.059 A 
ATOM     27  C   UNL     1       0.183  -2.858   1.854  0.00  0.00    +0.007 A 
ENDBRANCH  17  26
BRANCH  17  28
ATOM     28  N   UNL     1       0.896  -3.387   5.369  0.00  0.00    +0.382 N 
ATOM     29  C   UNL     1       0.937  -4.532   6.288  0.00  0.00    -0.096 C 
ATOM     30  C   UNL     1       2.259  -3.064   4.928  0.00  0.00    -0.096 C 
ATOM     31  H   UNL     1       0.497  -2.590   5.842  0.00  0.00    -0.082 HD
ENDBRANCH  17  28
ENDBRANCH   1  17
TORSDOF 5
