REMARK  Name = ZINC60354118
REMARK  11 active torsions:
REMARK  status: ('A' for Active; 'I' for Inactive)
REMARK    1  A    between atoms: C_1  and  C_2
REMARK    2  A    between atoms: C_3  and  C_16
REMARK    3  A    between atoms: C_8  and  C_10
REMARK    4  A    between atoms: C_16  and  C_17
REMARK    5  A    between atoms: C_17  and  C_18
REMARK    6  A    between atoms: N_20  and  C_21
REMARK    7  A    between atoms: C_21  and  C_23
REMARK    8  A    between atoms: C_21  and  C_24
REMARK    9  A    between atoms: C_24  and  N_25
REMARK   10  A    between atoms: C_27  and  C_34
REMARK   11  A    between atoms: C_30  and  C_33
REMARK                            x       y       z     vdW  Elec       q    Type
REMARK                         _______ _______ _______ _____ _____    ______ ____
ROOT
ATOM      1  C   UNL     1      -3.409  -0.102  -1.024  0.00  0.00    +0.100 C 
ENDROOT
BRANCH   1   2
ATOM      2  C   UNL     1      -4.669   0.715  -1.158  0.00  0.00    +0.213 C 
ATOM      3  O   UNL     1      -5.272   1.066  -0.166  0.00  0.00    -0.276 OA
ATOM      4  N   UNL     1      -5.125   1.054  -2.380  0.00  0.00    -0.314 N 
ATOM      5  H   UNL     1      -4.642   0.774  -3.173  0.00  0.00    +0.149 HD
BRANCH   4   6
ATOM      6  C   UNL     1      -6.349   1.848  -2.510  0.00  0.00    +0.053 C 
ATOM      7  C   UNL     1      -6.004   3.336  -2.422  0.00  0.00    +0.026 C 
BRANCH   6   8
ATOM      8  C   UNL     1      -7.005   1.555  -3.861  0.00  0.00    -0.057 C 
BRANCH   8   9
ATOM      9  N   UNL     1      -7.239   0.111  -3.989  0.00  0.00    +0.381 N 
ATOM     10  C   UNL     1      -7.728  -0.186  -5.341  0.00  0.00    -0.076 C 
ATOM     11  C   UNL     1      -7.897  -1.698  -5.506  0.00  0.00    -0.031 C 
ATOM     12  C   UNL     1      -8.906  -2.209  -4.473  0.00  0.00    +0.003 C 
ATOM     13  C   UNL     1      -8.423  -1.828  -3.071  0.00  0.00    -0.031 C 
ATOM     14  C   UNL     1      -8.234  -0.311  -2.996  0.00  0.00    -0.076 C 
ATOM     15  C   UNL     1      -9.461  -2.266  -2.036  0.00  0.00    +0.005 C 
ATOM     16  C   UNL     1      -6.549  -2.389  -5.290  0.00  0.00    +0.005 C 
ATOM     17  H   UNL     1      -6.375  -0.385  -3.830  0.00  0.00    -0.082 HD
ENDBRANCH   8   9
ENDBRANCH   6   8
ENDBRANCH   4   6
ENDBRANCH   1   2
BRANCH   1  18
ATOM     18  C   UNL     1      -3.115  -0.347   0.458  0.00  0.00    +0.051 C 
BRANCH  18  21
ATOM     19  C   UNL     1      -0.577   0.949   0.881  0.00  0.00    +0.066 C 
ATOM     20  C   UNL     1      -0.653  -0.553   0.793  0.00  0.00    +0.049 A 
ATOM     21  C   UNL     1      -1.856  -1.163   0.592  0.00  0.00    +0.038 A 
ATOM     22  C   UNL     1      -1.901  -2.569   0.512  0.00  0.00    +0.255 A 
ATOM     23  O   UNL     1      -2.960  -3.148   0.333  0.00  0.00    -0.268 OA
ATOM     24  N   UNL     1      -0.750  -3.263   0.638  0.00  0.00    -0.307 N 
ATOM     25  H   UNL     1      -0.757  -4.232   0.586  0.00  0.00    +0.170 HD
ATOM     26  C   UNL     1       0.422  -2.597   0.838  0.00  0.00    +0.142 A 
ATOM     27  N   UNL     1       0.456  -1.282   0.905  0.00  0.00    -0.234 NA
BRANCH  26  28
ATOM     28  C   UNL     1       1.678  -3.363   0.974  0.00  0.00    +0.035 A 
ATOM     29  C   UNL     1       2.895  -2.704   1.185  0.00  0.00    +0.014 A 
ATOM     30  C   UNL     1       4.042  -3.467   1.307  0.00  0.00    +0.020 A 
ATOM     31  C   UNL     1       3.951  -4.845   1.216  0.00  0.00    +0.111 A 
ATOM     32  N   UNL     1       2.791  -5.439   1.017  0.00  0.00    -0.263 NA
ATOM     33  C   UNL     1       1.671  -4.757   0.901  0.00  0.00    +0.122 A 
ENDBRANCH  26  28
ENDBRANCH  18  21
ENDBRANCH   1  18
TORSDOF 7
