REMARK  Name = ZINC28381803
REMARK  10 active torsions:
REMARK  status: ('A' for Active; 'I' for Inactive)
REMARK    1  A    between atoms: C_1  and  C_2
REMARK    2  A    between atoms: C_2  and  C_4
REMARK    3  A    between atoms: C_2  and  N_16
REMARK    4  A    between atoms: N_9  and  C_10
REMARK    5  A    between atoms: N_16  and  C_17
REMARK    6  A    between atoms: C_20  and  O_23
REMARK    7  A    between atoms: O_23  and  C_24
REMARK    8  A    between atoms: C_24  and  C_25
REMARK    9  A    between atoms: N_27  and  C_28
REMARK   10  A    between atoms: N_27  and  C_29
REMARK                            x       y       z     vdW  Elec       q    Type
REMARK                         _______ _______ _______ _____ _____    ______ ____
ROOT
ATOM      1  C   UNL     1       6.011   2.646   1.908  0.00  0.00    +0.038 C 
ATOM      2  C   UNL     1       5.979   1.246   1.291  0.00  0.00    +0.154 C 
ENDROOT
BRANCH   2   3
ATOM      3  C   UNL     1       4.565   0.725   1.301  0.00  0.00    +0.240 C 
ATOM      4  O   UNL     1       4.300  -0.295   1.901  0.00  0.00    -0.273 OA
ATOM      5  N   UNL     1       3.596   1.392   0.645  0.00  0.00    -0.239 N 
ATOM      6  C   UNL     1       2.331   0.926   0.654  0.00  0.00    +0.306 C 
ATOM      7  O   UNL     1       2.065  -0.097   1.255  0.00  0.00    -0.252 OA
ATOM      8  N   UNL     1       1.362   1.593  -0.002  0.00  0.00    -0.296 N 
ATOM      9  H   UNL     1       3.836   2.317   0.101  0.00  0.00    +0.159 HD
ATOM     10  H   UNL     1       1.602   2.518  -0.546  0.00  0.00    +0.151 HD
BRANCH   8  11
ATOM     11  C   UNL     1      -0.013   1.086   0.008  0.00  0.00    +0.074 C 
ATOM     12  C   UNL     1      -0.729   1.579   1.267  0.00  0.00    +0.022 C 
ATOM     13  C   UNL     1      -2.164   1.050   1.278  0.00  0.00    +0.002 C 
ATOM     14  C   UNL     1      -2.904   1.556   0.038  0.00  0.00    +0.000 C 
ATOM     15  C   UNL     1      -2.188   1.063  -1.221  0.00  0.00    +0.002 C 
ATOM     16  C   UNL     1      -0.753   1.593  -1.232  0.00  0.00    +0.022 C 
ENDBRANCH   8  11
ENDBRANCH   2   3
BRANCH   2  17
ATOM     17  N   UNL     1       6.836   0.350   2.070  0.00  0.00    -0.333 N 
ATOM     18  H   UNL     1       6.401  -0.276   2.863  0.00  0.00    +0.147 HD
BRANCH  17  19
ATOM     19  C   UNL     1       8.209   0.289   1.805  0.00  0.00    +0.028 A 
ATOM     20  C   UNL     1       8.758   1.074   0.800  0.00  0.00    +0.026 A 
ATOM     21  C   UNL     1      10.114   1.018   0.543  0.00  0.00    +0.047 A 
ATOM     22  C   UNL     1      10.925   0.169   1.282  0.00  0.00    +0.121 A 
ATOM     23  C   UNL     1      10.377  -0.620   2.282  0.00  0.00    +0.047 A 
ATOM     24  C   UNL     1       9.022  -0.561   2.544  0.00  0.00    +0.026 A 
BRANCH  22  25
ATOM     25  O   UNL     1      12.259   0.110   1.025  0.00  0.00    -0.483 OA
BRANCH  25  26
ATOM     26  C   UNL     1      12.757   0.950  -0.019  0.00  0.00    +0.324 C 
BRANCH  26  27
ATOM     27  C   UNL     1      14.244   0.750  -0.159  0.00  0.00    +0.253 C 
ATOM     28  O   UNL     1      14.821  -0.034   0.564  0.00  0.00    -0.272 OA
ATOM     29  N   UNL     1      14.932   1.444  -1.087  0.00  0.00    -0.305 N 
ATOM     30  C   UNL     1      16.378   1.250  -1.223  0.00  0.00    +0.131 C 
ATOM     31  C   UNL     1      14.235   2.391  -1.960  0.00  0.00    +0.131 C 
ENDBRANCH  26  27
ENDBRANCH  25  26
ENDBRANCH  22  25
ENDBRANCH  17  19
ENDBRANCH   2  17
TORSDOF 7
