REMARK  Name = ZINC16901445
REMARK  6 active torsions:
REMARK  status: ('A' for Active; 'I' for Inactive)
REMARK    1  A    between atoms: C_1  and  C_2
REMARK    2  A    between atoms: C_5  and  O_24
REMARK    3  A    between atoms: C_6  and  N_8
REMARK    4  A    between atoms: N_8  and  C_9
REMARK    5  A    between atoms: N_14  and  C_17
REMARK    6  A    between atoms: C_21  and  O_23
REMARK                            x       y       z     vdW  Elec       q    Type
REMARK                         _______ _______ _______ _____ _____    ______ ____
ROOT
ATOM      1  C   UNL     1       0.096  -2.212   3.605  0.00  0.00    +0.167 C 
ATOM      2  C   UNL     1      -0.543  -2.821   4.870  0.00  0.00    +0.128 C 
ATOM      3  C   UNL     1       0.599  -2.857   5.862  0.00  0.00    +0.228 C 
ATOM      4  O   UNL     1       0.529  -3.269   6.999  0.00  0.00    -0.275 OA
ATOM      5  N   UNL     1       1.700  -2.361   5.283  0.00  0.00    -0.209 N 
ATOM      6  C   UNL     1       1.532  -1.965   4.012  0.00  0.00    +0.247 C 
ATOM      7  O   UNL     1       2.391  -1.487   3.302  0.00  0.00    -0.273 OA
ENDROOT
BRANCH   5   8
ATOM      8  C   UNL     1       2.929  -2.261   5.951  0.00  0.00    +0.047 A 
ATOM      9  C   UNL     1       3.455  -1.013   6.258  0.00  0.00    +0.024 A 
ATOM     10  C   UNL     1       4.665  -0.914   6.916  0.00  0.00    +0.005 A 
ATOM     11  C   UNL     1       5.356  -2.057   7.271  0.00  0.00    +0.045 A 
ATOM     12  C   UNL     1       4.836  -3.307   6.968  0.00  0.00    +0.119 A 
ATOM     13  C   UNL     1       3.618  -3.409   6.312  0.00  0.00    +0.069 A 
BRANCH  12  14
ATOM     14  O   UNL     1       5.516  -4.430   7.317  0.00  0.00    -0.507 OA
ATOM     15  H   UNL     1       5.292  -4.769   8.195  0.00  0.00    +0.292 HD
ENDBRANCH  12  14
ENDBRANCH   5   8
BRANCH   1  16
ATOM     16  N   UNL     1       0.032  -3.159   2.489  0.00  0.00    -0.330 N 
ATOM     17  H   UNL     1      -0.054  -4.109   2.663  0.00  0.00    +0.147 HD
BRANCH  16  23
ATOM     18  C   UNL     1       0.417   0.601  -0.655  0.00  0.00    +0.044 C 
ATOM     19  C   UNL     1       0.282  -0.875  -0.384  0.00  0.00    -0.048 A 
ATOM     20  C   UNL     1       0.223  -1.768  -1.438  0.00  0.00    +0.007 A 
ATOM     21  C   UNL     1       0.100  -3.124  -1.194  0.00  0.00    +0.047 A 
ATOM     22  C   UNL     1       0.036  -3.591   0.108  0.00  0.00    +0.138 A 
ATOM     23  C   UNL     1       0.097  -2.692   1.171  0.00  0.00    +0.070 A 
ATOM     24  C   UNL     1       0.225  -1.334   0.919  0.00  0.00    +0.030 A 
BRANCH  22  25
ATOM     25  O   UNL     1      -0.085  -4.924   0.348  0.00  0.00    -0.505 OA
ATOM     26  H   UNL     1       0.760  -5.387   0.433  0.00  0.00    +0.292 HD
ENDBRANCH  22  25
ENDBRANCH  16  23
ENDBRANCH   1  16
TORSDOF 5
