REMARK  Name = ZINC60243779
REMARK  9 active torsions:
REMARK  status: ('A' for Active; 'I' for Inactive)
REMARK    1  A    between atoms: C_1  and  C_2
REMARK    2  A    between atoms: C_3  and  C_8
REMARK    3  A    between atoms: C_4  and  C_7
REMARK    4  A    between atoms: C_8  and  S_9
REMARK    5  A    between atoms: S_9  and  C_10
REMARK    6  A    between atoms: C_15  and  C_16
REMARK    7  A    between atoms: N_18  and  C_19
REMARK    8  A    between atoms: N_25  and  C_30
REMARK    9  A    between atoms: N_28  and  C_29
REMARK                            x       y       z     vdW  Elec       q    Type
REMARK                         _______ _______ _______ _____ _____    ______ ____
ROOT
ATOM      1  C   UNL     1       3.999   0.522  -5.032  0.00  0.00    +0.249 C 
ATOM      2  O   UNL     1       4.134   0.150  -3.883  0.00  0.00    -0.270 OA
ATOM      3  N   UNL     1       5.085   0.785  -5.787  0.00  0.00    -0.281 N 
ATOM      4  H   UNL     1       4.980   1.017  -6.723  0.00  0.00    +0.155 HD
ENDROOT
BRANCH   3   5
ATOM      5  C   UNL     1       6.364   0.723  -5.221  0.00  0.00    +0.036 A 
ATOM      6  C   UNL     1       6.645  -0.228  -4.247  0.00  0.00    +0.025 A 
ATOM      7  C   UNL     1       7.904  -0.294  -3.684  0.00  0.00    +0.030 A 
ATOM      8  C   UNL     1       8.891   0.591  -4.090  0.00  0.00    +0.070 A 
ATOM      9  C   UNL     1       8.611   1.547  -5.069  0.00  0.00    +0.071 A 
ATOM     10  C   UNL     1       7.348   1.607  -5.636  0.00  0.00    +0.051 A 
ATOM     11  N   UNL     1       9.781   2.278  -5.264  0.00  0.00    -0.295 N 
ATOM     12  C   UNL     1      10.729   1.789  -4.442  0.00  0.00    +0.330 A 
ATOM     13  O   UNL     1      11.870   2.205  -4.364  0.00  0.00    -0.246 OA
ATOM     14  N   UNL     1      10.224   0.771  -3.721  0.00  0.00    -0.295 N 
ATOM     15  C   UNL     1      10.950  -0.014  -2.720  0.00  0.00    +0.154 C 
ATOM     16  C   UNL     1       9.951   3.389  -6.203  0.00  0.00    +0.154 C 
ENDBRANCH   3   5
BRANCH   1  22
ATOM     17  C   UNL     1       1.516   0.414  -4.818  0.00  0.00    +0.020 A 
ATOM     18  C   UNL     1       0.248   0.579  -5.364  0.00  0.00    +0.015 A 
ATOM     19  C   UNL     1       0.107   1.002  -6.669  0.00  0.00    +0.001 A 
ATOM     20  C   UNL     1       1.225   1.266  -7.446  0.00  0.00    +0.001 A 
ATOM     21  C   UNL     1       2.490   1.109  -6.923  0.00  0.00    +0.014 A 
ATOM     22  C   UNL     1       2.650   0.687  -5.600  0.00  0.00    +0.050 A 
BRANCH  17  23
ATOM     23  S   UNL     1       1.699  -0.126  -3.150  0.00  0.00    -0.120 S 
BRANCH  23  24
ATOM     24  C   UNL     1      -0.006  -0.341  -2.569  0.00  0.00    +0.114 C 
BRANCH  24  27
ATOM     25  C   UNL     1      -0.027   1.526  -0.001  0.00  0.00    +0.069 C 
ATOM     26  C   UNL     1      -0.002   0.019   0.001  0.00  0.00    +0.085 A 
ATOM     27  C   UNL     1       0.007  -0.808  -1.136  0.00  0.00    +0.027 A 
ATOM     28  C   UNL     1       0.030  -2.089  -0.722  0.00  0.00    +0.138 A 
ATOM     29  O   UNL     1       0.034  -2.091   0.620  0.00  0.00    -0.359 OA
ATOM     30  N   UNL     1       0.019  -0.745   1.057  0.00  0.00    -0.083 NA
ATOM     31  C   UNL     1       0.046  -3.307  -1.610  0.00  0.00    +0.089 C 
ENDBRANCH  24  27
ENDBRANCH  23  24
ENDBRANCH  17  23
ENDBRANCH   1  22
TORSDOF 5
