REMARK  Name = ZINC40999403
REMARK  3 active torsions:
REMARK  status: ('A' for Active; 'I' for Inactive)
REMARK    1  A    between atoms: C_1  and  C_2
REMARK    2  A    between atoms: C_2  and  C_15
REMARK    3  A    between atoms: N_4  and  C_8
REMARK                            x       y       z     vdW  Elec       q    Type
REMARK                         _______ _______ _______ _____ _____    ______ ____
ROOT
ATOM      1  C   UNL     1       0.601  -2.857  -2.182  0.00  0.00    +0.089 A 
ATOM      2  C   UNL     1      -0.633  -3.365  -2.418  0.00  0.00    +0.130 A 
ATOM      3  N   UNL     1      -0.549  -4.156  -3.522  0.00  0.00    -0.281 N 
ATOM      4  H   UNL     1      -1.279  -4.651  -3.926  0.00  0.00    +0.188 HD
ATOM      5  N   UNL     1       0.776  -4.128  -3.974  0.00  0.00    -0.157 NA
ATOM      6  C   UNL     1       1.467  -3.347  -3.178  0.00  0.00    +0.159 A 
ATOM      7  N   UNL     1       2.832  -3.054  -3.296  0.00  0.00    -0.340 N 
ATOM      8  H   UNL     1       3.275  -2.524  -2.615  0.00  0.00    +0.144 HD
ATOM      9  H   UNL     1       3.334  -3.380  -4.059  0.00  0.00    +0.144 HD
ENDROOT
BRANCH   1  13
ATOM     10  C   UNL     1      -0.014   1.504  -0.037  0.00  0.00    +0.043 C 
ATOM     11  C   UNL     1       0.016  -0.026  -0.027  0.00  0.00    +0.080 C 
ATOM     12  C   UNL     1       0.775  -0.531  -1.259  0.00  0.00    +0.139 C 
ATOM     13  N   UNL     1       0.953  -1.986  -1.130  0.00  0.00    -0.321 N 
ATOM     14  C   UNL     1       1.509  -2.506   0.129  0.00  0.00    +0.133 C 
ATOM     15  C   UNL     1       0.714  -1.905   1.294  0.00  0.00    +0.179 C 
ATOM     16  O   UNL     1       0.679  -0.482   1.154  0.00  0.00    -0.371 OA
ATOM     17  C   UNL     1      -1.415  -0.565  -0.050  0.00  0.00    +0.043 C 
ENDBRANCH   1  13
TORSDOF 1
