REMARK  Name = ZINC35870371
REMARK  9 active torsions:
REMARK  status: ('A' for Active; 'I' for Inactive)
REMARK    1  A    between atoms: C_1  and  O_2
REMARK    2  A    between atoms: O_2  and  C_3
REMARK    3  A    between atoms: C_3  and  C_4
REMARK    4  A    between atoms: C_4  and  N_5
REMARK    5  A    between atoms: C_6  and  C_8
REMARK    6  A    between atoms: C_13  and  N_33
REMARK    7  A    between atoms: N_21  and  C_24
REMARK    8  A    between atoms: C_29  and  O_30
REMARK    9  A    between atoms: O_30  and  C_31
REMARK                            x       y       z     vdW  Elec       q    Type
REMARK                         _______ _______ _______ _____ _____    ______ ____
ROOT
ATOM      1  C   UNL     1      -2.484  -4.345  -1.134  0.00  0.00    +0.101 C 
ATOM      2  C   UNL     1      -3.284  -3.736   0.016  0.00  0.00    +0.051 C 
ATOM      3  C   UNL     1      -2.727  -4.250   1.318  0.00  0.00    -0.023 A 
ATOM      4  C   UNL     1      -2.817  -3.468   2.455  0.00  0.00    +0.038 A 
ATOM      5  C   UNL     1      -2.299  -3.925   3.652  0.00  0.00    +0.127 A 
ATOM      6  C   UNL     1      -1.689  -5.165   3.715  0.00  0.00    +0.034 A 
ATOM      7  C   UNL     1      -1.601  -5.951   2.583  0.00  0.00    +0.025 A 
ATOM      8  C   UNL     1      -2.127  -5.494   1.378  0.00  0.00    +0.033 A 
ATOM      9  N   UNL     1      -2.044  -6.329   0.250  0.00  0.00    -0.323 N 
ATOM     10  C   UNL     1      -2.520  -5.874  -1.042  0.00  0.00    +0.103 C 
ATOM     11  C   UNL     1      -1.728  -6.442  -2.209  0.00  0.00    +0.128 C 
ATOM     12  N   UNL     1      -1.226  -7.778  -1.956  0.00  0.00    -0.324 N 
ATOM     13  C   UNL     1      -0.669  -8.174  -0.673  0.00  0.00    +0.124 C 
ATOM     14  C   UNL     1      -1.514  -7.673   0.471  0.00  0.00    +0.124 C 
ENDROOT
BRANCH  12  15
ATOM     15  C   UNL     1      -1.279  -8.723  -2.987  0.00  0.00    +0.073 A 
ATOM     16  C   UNL     1      -0.212  -8.855  -3.864  0.00  0.00    +0.046 A 
ATOM     17  C   UNL     1      -0.267  -9.790  -4.882  0.00  0.00    +0.043 A 
ATOM     18  C   UNL     1      -1.384 -10.594  -5.027  0.00  0.00    +0.024 A 
ATOM     19  C   UNL     1      -2.450 -10.466  -4.157  0.00  0.00    +0.049 A 
ATOM     20  C   UNL     1      -2.401  -9.536  -3.131  0.00  0.00    +0.141 A 
ATOM     21 CL   UNL     1       1.067  -9.956  -5.980  0.00  0.00    -0.083 Cl
BRANCH  20  22
ATOM     22  O   UNL     1      -3.447  -9.414  -2.271  0.00  0.00    -0.493 OA
ATOM     23  C   UNL     1      -4.563 -10.281  -2.479  0.00  0.00    +0.277 C 
ENDBRANCH  20  22
ENDBRANCH  12  15
BRANCH   1  25
ATOM     24  N   UNL     1      -0.776  -2.556  -1.119  0.00  0.00    -0.313 N 
ATOM     25  C   UNL     1      -1.055  -3.873  -1.054  0.00  0.00    +0.218 C 
ATOM     26  O   UNL     1      -0.156  -4.678  -0.932  0.00  0.00    -0.275 OA
ATOM     27  H   UNL     1      -1.495  -1.912  -1.217  0.00  0.00    +0.149 HD
BRANCH  24  28
ATOM     28  C   UNL     1       0.613  -2.097  -1.041  0.00  0.00    +0.132 C 
BRANCH  28  29
ATOM     29  C   UNL     1       0.652  -0.570  -1.138  0.00  0.00    +0.178 C 
BRANCH  29  31
ATOM     30  C   UNL     1      -0.017   1.425   0.010  0.00  0.00    +0.194 C 
ATOM     31  O   UNL     1       0.002  -0.004   0.002  0.00  0.00    -0.381 OA
ENDBRANCH  29  31
ENDBRANCH  28  29
ENDBRANCH  24  28
ENDBRANCH   1  25
BRANCH   5  32
ATOM     32  N   UNL     1      -2.397  -3.088   4.868  0.00  0.00    +0.056 N 
ATOM     33  O   UNL     1      -2.930  -2.004   4.814  0.00  0.00    -0.126 OA
ATOM     34  O   UNL     1      -1.945  -3.487   5.916  0.00  0.00    -0.126 OA
ENDBRANCH   5  32
TORSDOF 7
