REMARK  Name = ZINC36347266
REMARK  4 active torsions:
REMARK  status: ('A' for Active; 'I' for Inactive)
REMARK    1  A    between atoms: C_1  and  C_2
REMARK    2  A    between atoms: C_5  and  C_8
REMARK    3  A    between atoms: N_18  and  C_19
REMARK    4  A    between atoms: C_19  and  C_20
REMARK                            x       y       z     vdW  Elec       q    Type
REMARK                         _______ _______ _______ _____ _____    ______ ____
ROOT
ATOM      1  C   UNL     1       0.015  -4.235   0.048  0.00  0.00    +0.011 C 
ATOM      2  C   UNL     1      -1.330  -4.785   0.456  0.00  0.00    +0.009 A 
ATOM      3  C   UNL     1      -2.524  -4.194   0.260  0.00  0.00    +0.021 A 
ATOM      4  C   UNL     1      -3.511  -5.055   0.780  0.00  0.00    +0.019 A 
ATOM      5  C   UNL     1      -2.881  -6.138   1.278  0.00  0.00    +0.086 A 
ATOM      6  N   UNL     1      -1.542  -5.975   1.091  0.00  0.00    -0.352 N 
ATOM      7  C   UNL     1      -0.485  -6.904   1.507  0.00  0.00    +0.119 C 
ATOM      8  C   UNL     1       0.502  -7.085   0.350  0.00  0.00    +0.003 C 
ATOM      9  C   UNL     1       1.585  -6.016   0.425  0.00  0.00    -0.075 C 
ATOM     10  N   UNL     1       1.049  -4.758   0.951  0.00  0.00    +0.391 N 
ATOM     11  H   UNL     1       0.647  -4.921   1.862  0.00  0.00    -0.080 HD
ENDROOT
BRANCH   1  16
ATOM     12  C   UNL     1      -0.079   1.534   0.366  0.00  0.00    +0.044 C 
ATOM     13  C   UNL     1      -0.054   0.030   0.283  0.00  0.00    -0.050 A 
ATOM     14  C   UNL     1      -0.266  -0.729   1.419  0.00  0.00    +0.003 A 
ATOM     15  C   UNL     1      -0.244  -2.109   1.343  0.00  0.00    +0.002 A 
ATOM     16  C   UNL     1      -0.010  -2.730   0.131  0.00  0.00    -0.055 A 
ATOM     17  C   UNL     1       0.201  -1.972  -1.006  0.00  0.00    +0.002 A 
ATOM     18  C   UNL     1       0.174  -0.592  -0.930  0.00  0.00    +0.003 A 
ENDBRANCH   1  16
BRANCH  10  19
ATOM     19  C   UNL     1       2.136  -3.777   1.069  0.00  0.00    -0.042 C 
BRANCH  19  20
ATOM     20  C   UNL     1       3.152  -4.271   2.067  0.00  0.00    -0.062 A 
ATOM     21  C   UNL     1       3.019  -3.949   3.405  0.00  0.00    +0.004 A 
ATOM     22  C   UNL     1       3.950  -4.401   4.321  0.00  0.00    +0.040 A 
ATOM     23  C   UNL     1       5.016  -5.176   3.898  0.00  0.00    +0.142 A 
ATOM     24  C   UNL     1       5.149  -5.499   2.558  0.00  0.00    +0.076 A 
ATOM     25  C   UNL     1       4.213  -5.049   1.644  0.00  0.00    +0.024 A 
ATOM     26 CL   UNL     1       6.485  -6.471   2.026  0.00  0.00    -0.081 Cl
ATOM     27  F   UNL     1       5.927  -5.619   4.793  0.00  0.00    -0.204 F 
ENDBRANCH  19  20
ENDBRANCH  10  19
TORSDOF 3
