REMARK  Name = ZINC08136334
REMARK  9 active torsions:
REMARK  status: ('A' for Active; 'I' for Inactive)
REMARK    1  A    between atoms: C_1  and  C_2
REMARK    2  A    between atoms: C_4  and  C_30
REMARK    3  A    between atoms: C_6  and  N_8
REMARK    4  A    between atoms: C_12  and  S_13
REMARK    5  A    between atoms: S_13  and  C_14
REMARK    6  A    between atoms: C_14  and  C_15
REMARK    7  A    between atoms: C_15  and  C_17
REMARK    8  A    between atoms: C_18  and  N_29
REMARK    9  A    between atoms: N_19  and  C_26
REMARK                            x       y       z     vdW  Elec       q    Type
REMARK                         _______ _______ _______ _____ _____    ______ ____
ROOT
ATOM      1  C   UNL     1       4.548  -1.044   5.152  0.00  0.00    +0.182 C 
ATOM      2  O   UNL     1       4.704  -0.190   4.303  0.00  0.00    -0.291 OA
ENDROOT
BRANCH   1   3
ATOM      3  C   UNL     1       5.013  -0.825   6.467  0.00  0.00    +0.120 A 
ATOM      4  C   UNL     1       5.778   0.311   6.786  0.00  0.00    +0.116 A 
ATOM      5  N   UNL     1       6.205   0.479   8.072  0.00  0.00    -0.278 N 
ATOM      6  C   UNL     1       5.909  -0.415   9.028  0.00  0.00    +0.331 A 
ATOM      7  O   UNL     1       6.313  -0.219  10.158  0.00  0.00    -0.246 OA
ATOM      8  N   UNL     1       5.183  -1.518   8.783  0.00  0.00    -0.274 N 
ATOM      9  H   UNL     1       4.994  -2.137   9.505  0.00  0.00    +0.173 HD
ATOM     10  C   UNL     1       4.709  -1.773   7.546  0.00  0.00    +0.266 A 
ATOM     11  O   UNL     1       4.047  -2.771   7.328  0.00  0.00    -0.267 OA
BRANCH   5  12
ATOM     12  C   UNL     1       7.003   1.659   8.415  0.00  0.00    +0.094 C 
ATOM     13  C   UNL     1       6.597   2.448   9.662  0.00  0.00    +0.027 C 
ATOM     14  C   UNL     1       6.336   3.029   8.271  0.00  0.00    +0.027 C 
ENDBRANCH   5  12
BRANCH   4  15
ATOM     15  N   UNL     1       6.088   1.227   5.829  0.00  0.00    -0.344 N 
ATOM     16  H   UNL     1       5.503   1.347   5.064  0.00  0.00    +0.144 HD
ATOM     17  H   UNL     1       6.894   1.761   5.911  0.00  0.00    +0.144 HD
ENDBRANCH   4  15
ENDBRANCH   1   3
BRANCH   1  18
ATOM     18  C   UNL     1       3.857  -2.336   4.803  0.00  0.00    +0.157 C 
BRANCH  18  19
ATOM     19  S   UNL     1       3.381  -2.314   3.053  0.00  0.00    -0.079 S 
BRANCH  19  24
ATOM     20  N   UNL     1       2.065  -4.320   1.631  0.00  0.00    -0.295 N 
ATOM     21  C   UNL     1       1.560  -5.580   1.874  0.00  0.00    +0.113 A 
ATOM     22  C   UNL     1       1.792  -5.852   3.170  0.00  0.00    +0.131 A 
ATOM     23  N   UNL     1       2.421  -4.798   3.718  0.00  0.00    -0.230 NA
ATOM     24  C   UNL     1       2.597  -3.872   2.805  0.00  0.00    +0.174 A 
BRANCH  20  30
ATOM     25  C   UNL     1       1.066  -0.228  -0.907  0.00  0.00    +0.044 C 
ATOM     26  C   UNL     1       1.562  -1.649  -0.849  0.00  0.00    -0.048 A 
ATOM     27  C   UNL     1       1.996  -2.277  -2.002  0.00  0.00    +0.006 A 
ATOM     28  C   UNL     1       2.452  -3.582  -1.952  0.00  0.00    -0.048 A 
ATOM     29  C   UNL     1       2.476  -4.261  -0.750  0.00  0.00    +0.029 A 
ATOM     30  C   UNL     1       2.042  -3.633   0.409  0.00  0.00    +0.049 A 
ATOM     31  C   UNL     1       1.589  -2.322   0.357  0.00  0.00    +0.029 A 
ATOM     32  C   UNL     1       2.923  -4.263  -3.212  0.00  0.00    +0.044 C 
ENDBRANCH  20  30
ENDBRANCH  19  24
ENDBRANCH  18  19
ENDBRANCH   1  18
TORSDOF 7
