REMARK  Name = ZINC02855878
REMARK  10 active torsions:
REMARK  status: ('A' for Active; 'I' for Inactive)
REMARK    1  A    between atoms: C_1  and  C_2
REMARK    2  A    between atoms: C_2  and  C_3
REMARK    3  A    between atoms: C_5  and  C_27
REMARK    4  A    between atoms: C_6  and  N_8
REMARK    5  A    between atoms: N_8  and  C_9
REMARK    6  A    between atoms: C_9  and  N_11
REMARK    7  A    between atoms: N_15  and  C_17
REMARK    8  A    between atoms: C_17  and  C_18
REMARK    9  A    between atoms: C_27  and  O_29
REMARK   10  A    between atoms: O_29  and  C_30
REMARK                            x       y       z     vdW  Elec       q    Type
REMARK                         _______ _______ _______ _____ _____    ______ ____
ROOT
ATOM      1  N   UNL     1       2.275  -0.478   6.713  0.00  0.00    -0.279 N 
ATOM      2  C   UNL     1       2.639  -0.726   8.044  0.00  0.00    +0.165 A 
ATOM      3  C   UNL     1       3.739  -1.488   8.471  0.00  0.00    +0.100 A 
ATOM      4  C   UNL     1       3.747  -1.484   9.823  0.00  0.00    +0.130 A 
ATOM      5  N   UNL     1       2.688  -0.757  10.241  0.00  0.00    -0.264 N 
ATOM      6  N   UNL     1       2.007  -0.291   9.109  0.00  0.00    -0.154 NA
ATOM      7 CL   UNL     1       4.887  -2.289   7.444  0.00  0.00    -0.078 Cl
ATOM      8  H   UNL     1       2.807  -0.844   5.989  0.00  0.00    +0.155 HD
ENDROOT
BRANCH   1   9
ATOM      9  C   UNL     1       1.188   0.269   6.440  0.00  0.00    +0.140 C 
ATOM     10  S   UNL     1       0.249   0.915   7.718  0.00  0.00    -0.018 S 
BRANCH   9  11
ATOM     11  N   UNL     1       0.838   0.507   5.160  0.00  0.00    -0.291 N 
ATOM     12  H   UNL     1       1.370   0.141   4.436  0.00  0.00    +0.154 HD
BRANCH  11  16
ATOM     13  C   UNL     1      -2.491   2.795   4.833  0.00  0.00    -0.008 A 
ATOM     14  C   UNL     1      -1.983   2.451   3.636  0.00  0.00    +0.028 A 
ATOM     15  C   UNL     1      -0.796   1.628   3.636  0.00  0.00    +0.088 A 
ATOM     16  C   UNL     1      -0.280   1.275   4.879  0.00  0.00    +0.085 A 
ATOM     17  S   UNL     1      -1.374   2.029   5.989  0.00  0.00    -0.078 S 
BRANCH  13  19
ATOM     18  C   UNL     1      -4.938   2.728   5.226  0.00  0.00    +0.009 C 
ATOM     19  C   UNL     1      -3.709   3.633   5.125  0.00  0.00    +0.039 C 
ENDBRANCH  13  19
BRANCH  15  20
ATOM     20  C   UNL     1      -0.164   1.192   2.390  0.00  0.00    +0.341 C 
ATOM     21  O   UNL     1       0.839   0.504   2.424  0.00  0.00    -0.245 OA
BRANCH  20  22
ATOM     22  O   UNL     1      -0.692   1.554   1.203  0.00  0.00    -0.464 OA
ATOM     23  C   UNL     1      -0.013   1.086   0.008  0.00  0.00    +0.280 C 
ENDBRANCH  20  22
ENDBRANCH  15  20
ENDBRANCH  11  16
ENDBRANCH   9  11
ENDBRANCH   1   9
BRANCH   5  24
ATOM     24  C   UNL     1       2.316  -0.500  11.635  0.00  0.00    +0.178 C 
BRANCH  24  25
ATOM     25  C   UNL     1       2.208   0.986  11.860  0.00  0.00    -0.025 A 
ATOM     26  C   UNL     1       1.000   1.629  11.662  0.00  0.00    +0.007 A 
ATOM     27  C   UNL     1       0.900   2.992  11.868  0.00  0.00    +0.022 A 
ATOM     28  C   UNL     1       2.009   3.714  12.273  0.00  0.00    +0.059 A 
ATOM     29  C   UNL     1       3.218   3.070  12.472  0.00  0.00    +0.060 A 
ATOM     30  C   UNL     1       3.316   1.705  12.270  0.00  0.00    +0.027 A 
ATOM     31 CL   UNL     1       4.610   3.974  12.981  0.00  0.00    -0.082 Cl
ATOM     32 CL   UNL     1       1.883   5.426  12.533  0.00  0.00    -0.082 Cl
ENDBRANCH  24  25
ENDBRANCH   5  24
TORSDOF 8
