REMARK  Name = ZINC20794497
REMARK  10 active torsions:
REMARK  status: ('A' for Active; 'I' for Inactive)
REMARK    1  A    between atoms: C_1  and  C_2
REMARK    2  A    between atoms: C_7  and  N_12
REMARK    3  A    between atoms: C_9  and  C_11
REMARK    4  A    between atoms: C_13  and  C_15
REMARK    5  A    between atoms: C_15  and  S_16
REMARK    6  A    between atoms: S_16  and  C_17
REMARK    7  A    between atoms: C_20  and  C_23
REMARK    8  A    between atoms: N_21  and  N_22
REMARK    9  A    between atoms: C_28  and  O_29
REMARK   10  A    between atoms: O_29  and  C_30
REMARK                            x       y       z     vdW  Elec       q    Type
REMARK                         _______ _______ _______ _____ _____    ______ ____
ROOT
ATOM      1  C   UNL     1      -3.706   3.630   4.110  0.00  0.00    +0.209 A 
ATOM      2  N   UNL     1      -3.614   3.565   2.801  0.00  0.00    -0.121 NA
ATOM      3  N   UNL     1      -2.589   2.866   2.465  0.00  0.00    -0.127 NA
ATOM      4  C   UNL     1      -1.969   2.434   3.538  0.00  0.00    +0.185 A 
ATOM      5  N   UNL     1      -2.664   2.913   4.625  0.00  0.00    -0.224 N 
ENDROOT
BRANCH   4   6
ATOM      6  C   UNL     1      -0.752   1.598   3.573  0.00  0.00    +0.062 A 
ATOM      7  C   UNL     1      -0.196   1.218   4.795  0.00  0.00    +0.015 A 
ATOM      8  C   UNL     1       0.941   0.437   4.821  0.00  0.00    +0.001 A 
ATOM      9  C   UNL     1       1.533   0.028   3.639  0.00  0.00    +0.004 A 
ATOM     10  C   UNL     1       0.989   0.394   2.422  0.00  0.00    +0.046 A 
ATOM     11  C   UNL     1      -0.149   1.182   2.379  0.00  0.00    +0.131 A 
BRANCH  11  12
ATOM     12  O   UNL     1      -0.682   1.547   1.184  0.00  0.00    -0.494 OA
ATOM     13  C   UNL     1      -0.013   1.086   0.008  0.00  0.00    +0.277 C 
ENDBRANCH  11  12
ENDBRANCH   4   6
BRANCH   5  14
ATOM     14  N   UNL     1      -2.372   2.713   5.945  0.00  0.00    -0.295 N 
ATOM     15  H   UNL     1      -1.496   2.111   6.229  0.00  0.00    +0.163 HD
ATOM     16  H   UNL     1      -3.012   3.154   6.723  0.00  0.00    +0.163 HD
ENDBRANCH   5  14
BRANCH   1  17
ATOM     17  S   UNL     1      -4.945   4.481   5.029  0.00  0.00    -0.075 S 
BRANCH  17  18
ATOM     18  C   UNL     1      -5.932   5.160   3.673  0.00  0.00    +0.173 C 
BRANCH  18  20
ATOM     19  N   UNL     1      -7.959   6.553   3.407  0.00  0.00    -0.312 N 
ATOM     20  C   UNL     1      -7.084   5.952   4.237  0.00  0.00    +0.224 C 
ATOM     21  O   UNL     1      -7.223   6.047   5.438  0.00  0.00    -0.275 OA
ATOM     22  H   UNL     1      -7.833   6.466   2.317  0.00  0.00    +0.149 HD
BRANCH  19  28
ATOM     23  C   UNL     1     -12.524   8.212   2.485  0.00  0.00    +0.008 C 
ATOM     24  C   UNL     1     -11.386   8.169   3.506  0.00  0.00    -0.009 C 
ATOM     25  C   UNL     1     -10.923   9.595   3.814  0.00  0.00    +0.003 C 
ATOM     26  C   UNL     1      -9.784   9.552   4.835  0.00  0.00    +0.002 C 
ATOM     27  C   UNL     1      -8.615   8.748   4.263  0.00  0.00    +0.022 C 
ATOM     28  C   UNL     1      -9.079   7.323   3.955  0.00  0.00    +0.076 C 
ATOM     29  C   UNL     1     -10.217   7.365   2.934  0.00  0.00    +0.009 C 
ATOM     30  C   UNL     1     -10.680   5.940   2.626  0.00  0.00    +0.009 C 
ENDBRANCH  19  28
ENDBRANCH  18  20
ENDBRANCH  17  18
ENDBRANCH   1  17
TORSDOF 7
