REMARK  Name = ZINC11727868
REMARK  4 active torsions:
REMARK  status: ('A' for Active; 'I' for Inactive)
REMARK    1  A    between atoms: C_1  and  C_2
REMARK    2  A    between atoms: C_12  and  C_14
REMARK    3  A    between atoms: C_14  and  C_16
REMARK    4  A    between atoms: C_14  and  O_17
REMARK                            x       y       z     vdW  Elec       q    Type
REMARK                         _______ _______ _______ _____ _____    ______ ____
ROOT
ATOM      1  C   UNL     1       4.309  -1.725   4.818  0.00  0.00    +0.046 C 
ATOM      2  C   UNL     1       4.154  -0.246   4.570  0.00  0.00    -0.026 A 
ATOM      3  C   UNL     1       4.705   0.662   5.448  0.00  0.00    +0.007 A 
ATOM      4  C   UNL     1       4.571   2.026   5.233  0.00  0.00    +0.021 A 
ATOM      5  C   UNL     1       3.883   2.496   4.136  0.00  0.00    +0.050 A 
ATOM      6  C   UNL     1       3.316   1.586   3.235  0.00  0.00    +0.017 A 
ATOM      7  C   UNL     1       3.454   0.203   3.455  0.00  0.00    +0.054 A 
ATOM      8  N   UNL     1       2.894  -0.688   2.564  0.00  0.00    -0.322 N 
ATOM      9  H   UNL     1       2.990  -1.641   2.717  0.00  0.00    +0.169 HD
ATOM     10  C   UNL     1       2.218  -0.255   1.486  0.00  0.00    +0.255 A 
ATOM     11  O   UNL     1       1.736  -1.071   0.719  0.00  0.00    -0.268 OA
ATOM     12  C   UNL     1       2.052   1.121   1.219  0.00  0.00    +0.045 A 
ATOM     13  C   UNL     1       2.583   2.047   2.055  0.00  0.00    +0.023 A 
ATOM     14 CL   UNL     1       3.719   4.204   3.872  0.00  0.00    -0.083 Cl
ENDROOT
BRANCH  12  15
ATOM     15  C   UNL     1       1.286   1.562  -0.002  0.00  0.00    +0.147 C 
ATOM     16  C   UNL     1       2.040   1.127  -1.261  0.00  0.00    +0.043 C 
BRANCH  15  17
ATOM     17  O   UNL     1      -0.011   0.963   0.007  0.00  0.00    -0.387 OA
ATOM     18  H   UNL     1       0.002  -0.004   0.002  0.00  0.00    +0.210 HD
ENDBRANCH  15  17
ENDBRANCH  12  15
TORSDOF 2
