REMARK  Name = ZINC39224838
REMARK  1 active torsions:
REMARK  status: ('A' for Active; 'I' for Inactive)
REMARK    1  A    between atoms: C_10  and  C_19
REMARK                            x       y       z     vdW  Elec       q    Type
REMARK                         _______ _______ _______ _____ _____    ______ ____
ROOT
ATOM      1  C   UNL     1      -0.147   1.173  -0.415  0.00  0.00    +0.001 A 
ATOM      2  C   UNL     1       1.019   1.907  -0.610  0.00  0.00    +0.002 A 
ATOM      3  C   UNL     1       2.245   1.314  -0.636  0.00  0.00    +0.024 A 
ATOM      4  C   UNL     1       2.357  -0.076  -0.468  0.00  0.00    +0.044 A 
ATOM      5  N   UNL     1       3.564  -0.655  -0.470  0.00  0.00    -0.284 N 
ATOM      6  C   UNL     1       3.755  -1.955  -0.356  0.00  0.00    +0.228 C 
ATOM      7  O   UNL     1       4.884  -2.410  -0.359  0.00  0.00    -0.275 OA
ATOM      8  C   UNL     1       2.566  -2.878  -0.223  0.00  0.00    +0.146 C 
ATOM      9  C   UNL     1       2.745  -3.687   1.065  0.00  0.00    +0.022 C 
ATOM     10  C   UNL     1       1.567  -4.660   1.205  0.00  0.00    +0.126 C 
ATOM     11  C   UNL     1       0.274  -3.878   1.132  0.00  0.00    +0.312 C 
ATOM     12  O   UNL     1      -0.598  -4.035   1.953  0.00  0.00    -0.250 OA
ATOM     13  O   UNL     1       0.126  -2.992   0.113  0.00  0.00    -0.429 OA
ATOM     14  C   UNL     1       1.198  -2.229  -0.146  0.00  0.00    +0.130 C 
ATOM     15  C   UNL     1       1.125  -0.852  -0.276  0.00  0.00    +0.035 A 
ATOM     16  C   UNL     1      -0.114  -0.177  -0.248  0.00  0.00    +0.013 A 
ATOM     17  H   UNL     1       4.344  -0.085  -0.562  0.00  0.00    +0.155 HD
ENDROOT
BRANCH   9  18
ATOM     18  C   UNL     1       4.056  -4.472   1.000  0.00  0.00    -0.006 C 
ATOM     19  C   UNL     1       4.061  -5.356  -0.249  0.00  0.00    +0.004 C 
ATOM     20  C   UNL     1       5.372  -6.141  -0.314  0.00  0.00    +0.000 C 
ATOM     21  C   UNL     1       5.504  -7.018   0.932  0.00  0.00    +0.000 C 
ATOM     22  C   UNL     1       5.500  -6.134   2.181  0.00  0.00    +0.000 C 
ATOM     23  C   UNL     1       4.188  -5.349   2.246  0.00  0.00    +0.004 C 
ENDBRANCH   9  18
TORSDOF 1
