REMARK  Name = ZINC16756039
REMARK  7 active torsions:
REMARK  status: ('A' for Active; 'I' for Inactive)
REMARK    1  A    between atoms: C_1  and  C_2
REMARK    2  A    between atoms: C_7  and  N_8
REMARK    3  A    between atoms: C_9  and  C_11
REMARK    4  A    between atoms: C_11  and  S_12
REMARK    5  A    between atoms: S_12  and  C_13
REMARK    6  A    between atoms: C_16  and  C_19
REMARK    7  A    between atoms: N_17  and  N_18
REMARK                            x       y       z     vdW  Elec       q    Type
REMARK                         _______ _______ _______ _____ _____    ______ ____
ROOT
ATOM      1  S   UNL     1      -5.062   0.939  -0.304  0.00  0.00    -0.075 S 
ENDROOT
BRANCH   1   2
ATOM      2  C   UNL     1      -6.428   2.047  -0.410  0.00  0.00    +0.209 A 
ATOM      3  N   UNL     1      -6.370   3.361  -0.391  0.00  0.00    -0.120 NA
ATOM      4  N   UNL     1      -7.551   3.857  -0.490  0.00  0.00    -0.125 NA
ATOM      5  C   UNL     1      -8.437   2.890  -0.570  0.00  0.00    +0.200 A 
ATOM      6  N   UNL     1      -7.743   1.702  -0.521  0.00  0.00    -0.223 N 
BRANCH   5   7
ATOM      7  C   UNL     1      -9.901   3.048  -0.690  0.00  0.00    +0.109 A 
ATOM      8  C   UNL     1     -10.459   4.327  -0.722  0.00  0.00    +0.031 A 
ATOM      9  C   UNL     1     -11.831   4.458  -0.840  0.00  0.00    +0.004 A 
ATOM     10  C   UNL     1     -12.604   3.307  -0.912  0.00  0.00    +0.020 A 
ATOM     11  C   UNL     1     -11.986   2.071  -0.869  0.00  0.00    +0.111 A 
ATOM     12  N   UNL     1     -10.677   1.972  -0.761  0.00  0.00    -0.252 NA
ENDBRANCH   5   7
BRANCH   6  13
ATOM     13  N   UNL     1      -8.264   0.440  -0.572  0.00  0.00    -0.295 N 
ATOM     14  H   UNL     1      -8.479   0.100   0.354  0.00  0.00    +0.163 HD
ATOM     15  H   UNL     1      -9.078   0.409  -1.167  0.00  0.00    +0.163 HD
ENDBRANCH   6  13
ENDBRANCH   1   2
BRANCH   1  16
ATOM     16  C   UNL     1      -3.702   2.127  -0.184  0.00  0.00    +0.173 C 
BRANCH  16  18
ATOM     17  N   UNL     1      -1.238   2.069   0.019  0.00  0.00    -0.285 N 
ATOM     18  C   UNL     1      -2.394   1.385  -0.081  0.00  0.00    +0.227 C 
ATOM     19  O   UNL     1      -2.383   0.172  -0.088  0.00  0.00    -0.275 OA
ATOM     20  H   UNL     1      -1.250   3.037   0.090  0.00  0.00    +0.155 HD
BRANCH  17  27
ATOM     21  C   UNL     1       0.999   3.305  -1.231  0.00  0.00    +0.046 C 
ATOM     22  C   UNL     1       1.099   1.950  -0.581  0.00  0.00    -0.028 A 
ATOM     23  C   UNL     1       2.301   1.268  -0.583  0.00  0.00    +0.020 A 
ATOM     24  C   UNL     1       2.393   0.024   0.013  0.00  0.00    +0.018 A 
ATOM     25  C   UNL     1       1.282  -0.542   0.614  0.00  0.00    +0.017 A 
ATOM     26  C   UNL     1       0.078   0.134   0.619  0.00  0.00    +0.024 A 
ATOM     27  C   UNL     1      -0.017   1.384   0.021  0.00  0.00    +0.036 A 
ATOM     28 BR   UNL     1       4.040  -0.905   0.009  0.00  0.00    -0.050 Br
ENDBRANCH  17  27
ENDBRANCH  16  18
ENDBRANCH   1  16
TORSDOF 6
