REMARK  Name = ZINC09151551
REMARK  9 active torsions:
REMARK  status: ('A' for Active; 'I' for Inactive)
REMARK    1  A    between atoms: C_1  and  C_2
REMARK    2  A    between atoms: C_7  and  S_15
REMARK    3  A    between atoms: C_12  and  C_14
REMARK    4  A    between atoms: S_15  and  N_18
REMARK    5  A    between atoms: N_18  and  C_19
REMARK    6  A    between atoms: C_20  and  O_28
REMARK    7  A    between atoms: C_22  and  O_26
REMARK    8  A    between atoms: O_26  and  C_27
REMARK    9  A    between atoms: O_28  and  C_29
REMARK                            x       y       z     vdW  Elec       q    Type
REMARK                         _______ _______ _______ _____ _____    ______ ____
ROOT
ATOM      1  S   UNL     1       0.047  -4.425  -0.282  0.00  0.00    +0.073 S 
ATOM      2  O   UNL     1      -0.661  -4.900   0.855  0.00  0.00    -0.150 OA
ATOM      3  O   UNL     1      -0.361  -4.720  -1.611  0.00  0.00    -0.150 OA
ENDROOT
BRANCH   1   9
ATOM      4  C   UNL     1       6.530  -7.585  -1.891  0.00  0.00    +0.029 C 
ATOM      5  C   UNL     1       6.123  -6.216  -1.342  0.00  0.00    +0.083 C 
ATOM      6  C   UNL     1       4.929  -5.658  -2.132  0.00  0.00    +0.059 C 
ATOM      7  C   UNL     1       3.829  -5.506  -1.105  0.00  0.00    -0.022 A 
ATOM      8  C   UNL     1       2.529  -5.056  -1.230  0.00  0.00    +0.034 A 
ATOM      9  C   UNL     1       1.703  -5.006  -0.122  0.00  0.00    +0.109 A 
ATOM     10  C   UNL     1       2.178  -5.418   1.109  0.00  0.00    +0.030 A 
ATOM     11  C   UNL     1       3.473  -5.872   1.237  0.00  0.00    +0.026 A 
ATOM     12  C   UNL     1       4.315  -5.921   0.124  0.00  0.00    +0.040 A 
ATOM     13  N   UNL     1       5.645  -6.343   0.037  0.00  0.00    -0.268 N 
ATOM     14  C   UNL     1       6.380  -6.800   1.071  0.00  0.00    +0.217 C 
ATOM     15  O   UNL     1       5.865  -6.958   2.158  0.00  0.00    -0.276 OA
ATOM     16  C   UNL     1       7.841  -7.114   0.876  0.00  0.00    +0.109 C 
ENDBRANCH   1   9
BRANCH   1  17
ATOM     17  N   UNL     1       0.093  -2.775  -0.155  0.00  0.00    -0.211 N 
ATOM     18  H   UNL     1      -0.320  -2.335   0.604  0.00  0.00    +0.174 HD
BRANCH  17  19
ATOM     19  C   UNL     1       0.728  -2.013  -1.147  0.00  0.00    +0.108 A 
ATOM     20  C   UNL     1       0.260  -2.044  -2.458  0.00  0.00    +0.147 A 
ATOM     21  C   UNL     1       0.892  -1.295  -3.436  0.00  0.00    +0.093 A 
ATOM     22  C   UNL     1       1.985  -0.507  -3.107  0.00  0.00    +0.125 A 
ATOM     23  C   UNL     1       2.451  -0.475  -1.802  0.00  0.00    +0.067 A 
ATOM     24  C   UNL     1       1.825  -1.227  -0.823  0.00  0.00    +0.070 A 
ATOM     25 CL   UNL     1       2.411  -1.186   0.810  0.00  0.00    -0.081 Cl
BRANCH  22  26
ATOM     26  O   UNL     1       2.603   0.233  -4.067  0.00  0.00    -0.495 OA
ATOM     27  C   UNL     1       3.725   1.018  -3.659  0.00  0.00    +0.277 C 
ENDBRANCH  22  26
BRANCH  20  28
ATOM     28  O   UNL     1      -0.815  -2.814  -2.779  0.00  0.00    -0.493 OA
ATOM     29  C   UNL     1      -1.241  -2.798  -4.143  0.00  0.00    +0.277 C 
ENDBRANCH  20  28
ENDBRANCH  17  19
ENDBRANCH   1  17
TORSDOF 5
