REMARK  Name = ZINC43399762
REMARK  5 active torsions:
REMARK  status: ('A' for Active; 'I' for Inactive)
REMARK    1  A    between atoms: C_1  and  C_2
REMARK    2  A    between atoms: C_5  and  C_15
REMARK    3  A    between atoms: C_6  and  N_8
REMARK    4  A    between atoms: C_12  and  C_14
REMARK    5  A    between atoms: N_16  and  O_17
REMARK                            x       y       z     vdW  Elec       q    Type
REMARK                         _______ _______ _______ _____ _____    ______ ____
ROOT
ATOM      1  C   UNL     1      -0.059   1.516  -0.295  0.00  0.00    +0.065 C 
ATOM      2  C   UNL     1      -0.015   0.018  -0.135  0.00  0.00    +0.040 A 
ATOM      3  C   UNL     1       0.011  -0.785  -1.261  0.00  0.00    +0.024 A 
ATOM      4  C   UNL     1       0.051  -2.161  -1.115  0.00  0.00    +0.016 A 
ATOM      5  C   UNL     1       0.065  -2.692   0.177  0.00  0.00    +0.058 A 
ATOM      6  C   UNL     1       0.037  -1.813   1.270  0.00  0.00    +0.132 A 
ATOM      7  N   UNL     1       0.004  -0.504   1.076  0.00  0.00    -0.236 NA
ENDROOT
BRANCH   6   8
ATOM      8  N   UNL     1       0.050  -2.318   2.561  0.00  0.00    -0.312 N 
ATOM      9  C   UNL     1       1.248  -2.498   3.401  0.00  0.00    +0.107 C 
ATOM     10  C   UNL     1       0.719  -2.472   4.857  0.00  0.00    +0.021 C 
ATOM     11  C   UNL     1      -0.635  -3.215   4.709  0.00  0.00    +0.024 C 
ATOM     12  C   UNL     1      -1.129  -2.756   3.321  0.00  0.00    +0.072 C 
ATOM     13  C   UNL     1      -2.112  -1.593   3.474  0.00  0.00    +0.028 C 
ENDBRANCH   6   8
BRANCH   5  14
ATOM     14  C   UNL     1       0.107  -4.155   0.389  0.00  0.00    +0.166 C 
ATOM     15  N   UNL     1       0.227  -4.635   1.593  0.00  0.00    -0.071 NA
ATOM     16  N   UNL     1       0.020  -5.014  -0.694  0.00  0.00    -0.340 N 
ATOM     17  H   UNL     1      -0.069  -4.656  -1.591  0.00  0.00    +0.144 HD
ATOM     18  H   UNL     1       0.048  -5.974  -0.555  0.00  0.00    +0.144 HD
BRANCH  15  19
ATOM     19  O   UNL     1       0.375  -6.030   1.788  0.00  0.00    -0.408 OA
ATOM     20  H   UNL     1       0.457  -6.291   2.715  0.00  0.00    +0.328 HD
ENDBRANCH  15  19
ENDBRANCH   5  14
TORSDOF 3
