REMARK  Name = ZINC34806139
REMARK  12 active torsions:
REMARK  status: ('A' for Active; 'I' for Inactive)
REMARK    1  A    between atoms: C_1  and  C_2
REMARK    2  A    between atoms: C_2  and  C_3
REMARK    3  A    between atoms: C_2  and  C_4
REMARK    4  A    between atoms: C_7  and  C_10
REMARK    5  A    between atoms: C_20  and  C_22
REMARK    6  A    between atoms: C_22  and  N_23
REMARK    7  A    between atoms: N_23  and  C_24
REMARK    8  A    between atoms: C_24  and  C_25
REMARK    9  A    between atoms: C_25  and  O_26
REMARK   10  A    between atoms: O_26  and  C_27
REMARK   11  A    between atoms: C_28  and  C_30
REMARK   12  A    between atoms: C_33  and  C_36
REMARK                            x       y       z     vdW  Elec       q    Type
REMARK                         _______ _______ _______ _____ _____    ______ ____
ROOT
ATOM      1  C   UNL     1       2.441  -2.833   5.547  0.00  0.00    +0.153 C 
ATOM      2  C   UNL     1       2.650  -4.293   5.877  0.00  0.00    +0.044 A 
ATOM      3  C   UNL     1       3.123  -5.256   5.070  0.00  0.00    +0.025 A 
ATOM      4  C   UNL     1       3.148  -6.453   5.815  0.00  0.00    +0.019 A 
ATOM      5  C   UNL     1       2.685  -6.171   7.051  0.00  0.00    +0.086 A 
ATOM      6  N   UNL     1       2.373  -4.847   7.097  0.00  0.00    -0.347 N 
ATOM      7  C   UNL     1       1.824  -4.110   8.242  0.00  0.00    +0.140 C 
ATOM      8  C   UNL     1       2.053  -2.610   8.032  0.00  0.00    +0.130 C 
ATOM      9  N   UNL     1       1.671  -2.245   6.659  0.00  0.00    -0.286 N 
ATOM     10  C   UNL     1       0.648  -1.399   6.424  0.00  0.00    +0.234 C 
ATOM     11  O   UNL     1       0.302  -1.169   5.285  0.00  0.00    -0.274 OA
ENDROOT
BRANCH   1  15
ATOM     12  C   UNL     1       0.248  -2.465   1.900  0.00  0.00    -0.045 A 
ATOM     13  C   UNL     1       1.460  -1.817   2.046  0.00  0.00    +0.004 A 
ATOM     14  C   UNL     1       2.170  -1.936   3.226  0.00  0.00    +0.006 A 
ATOM     15  C   UNL     1       1.667  -2.703   4.261  0.00  0.00    -0.021 A 
ATOM     16  C   UNL     1       0.454  -3.351   4.114  0.00  0.00    +0.006 A 
ATOM     17  C   UNL     1      -0.257  -3.228   2.936  0.00  0.00    +0.004 A 
BRANCH  12  19
ATOM     18  C   UNL     1      -0.856  -0.863   0.363  0.00  0.00    +0.012 C 
ATOM     19  C   UNL     1      -0.525  -2.335   0.613  0.00  0.00    +0.013 C 
ATOM     20  C   UNL     1       0.318  -2.873  -0.545  0.00  0.00    +0.012 C 
ENDBRANCH  12  19
ENDBRANCH   1  15
BRANCH  10  21
ATOM     21  C   UNL     1      -0.064  -0.740   7.577  0.00  0.00    +0.204 C 
BRANCH  21  22
ATOM     22  N   UNL     1      -1.128   0.125   7.062  0.00  0.00    -0.287 N 
ATOM     23  C   UNL     1      -0.906   1.445   6.902  0.00  0.00    +0.247 C 
ATOM     24  O   UNL     1      -1.815   2.179   6.567  0.00  0.00    -0.270 OA
BRANCH  23  25
ATOM     25  C   UNL     1       0.445   2.000   7.134  0.00  0.00    +0.037 A 
ATOM     26  C   UNL     1       1.566   1.364   6.599  0.00  0.00    +0.013 A 
ATOM     27  C   UNL     1       2.823   1.888   6.819  0.00  0.00    +0.013 A 
ATOM     28  C   UNL     1       2.974   3.041   7.569  0.00  0.00    +0.055 A 
ATOM     29  C   UNL     1       1.867   3.676   8.103  0.00  0.00    +0.013 A 
ATOM     30  C   UNL     1       0.604   3.166   7.885  0.00  0.00    +0.013 A 
BRANCH  28  31
ATOM     31  C   UNL     1       4.351   3.607   7.805  0.00  0.00    +0.417 C 
ATOM     32  F   UNL     1       4.666   4.509   6.783  0.00  0.00    -0.166 F 
ATOM     33  F   UNL     1       4.377   4.270   9.037  0.00  0.00    -0.166 F 
ATOM     34  F   UNL     1       5.287   2.567   7.815  0.00  0.00    -0.166 F 
ENDBRANCH  28  31
ENDBRANCH  23  25
BRANCH  22  35
ATOM     35  C   UNL     1      -2.435  -0.444   6.721  0.00  0.00    +0.136 C 
BRANCH  35  36
ATOM     36  C   UNL     1      -3.300  -0.524   7.980  0.00  0.00    +0.178 C 
BRANCH  36  37
ATOM     37  O   UNL     1      -3.575   0.796   8.454  0.00  0.00    -0.381 OA
ATOM     38  C   UNL     1      -4.381   0.834   9.633  0.00  0.00    +0.194 C 
ENDBRANCH  36  37
ENDBRANCH  35  36
ENDBRANCH  22  35
ENDBRANCH  21  22
ENDBRANCH  10  21
TORSDOF 9
