REMARK  Name = ZINC12758197
REMARK  4 active torsions:
REMARK  status: ('A' for Active; 'I' for Inactive)
REMARK    1  A    between atoms: C_8  and  C_13
REMARK    2  A    between atoms: C_13  and  C_14
REMARK    3  A    between atoms: C_14  and  C_15
REMARK    4  A    between atoms: C_21  and  C_23
REMARK                            x       y       z     vdW  Elec       q    Type
REMARK                         _______ _______ _______ _____ _____    ______ ____
ROOT
ATOM      1  C   UNL     1       5.953   6.398  -1.236  0.00  0.00    +0.219 C 
ATOM      2  O   UNL     1       6.792   6.053  -0.430  0.00  0.00    -0.275 OA
ATOM      3  N   UNL     1       6.143   7.512  -1.971  0.00  0.00    -0.263 N 
ATOM      4  C   UNL     1       7.300   8.265  -1.806  0.00  0.00    +0.188 A 
ATOM      5  N   UNL     1       8.322   8.072  -0.990  0.00  0.00    -0.126 NA
ATOM      6  N   UNL     1       9.312   8.855  -0.964  0.00  0.00    -0.144 NA
ATOM      7  C   UNL     1       9.353   9.912  -1.750  0.00  0.00    +0.110 A 
ATOM      8  S   UNL     1       7.796   9.726  -2.610  0.00  0.00    -0.035 S 
ATOM      9  H   UNL     1       5.472   7.787  -2.615  0.00  0.00    +0.157 HD
ENDROOT
BRANCH   7  10
ATOM     10  C   UNL     1      10.412  10.975  -1.887  0.00  0.00    +0.022 C 
ATOM     11  C   UNL     1      10.598  11.686  -0.544  0.00  0.00    +0.017 C 
ATOM     12  C   UNL     1      11.673  12.765  -0.683  0.00  0.00    -0.010 C 
ATOM     13  C   UNL     1      12.994  12.118  -1.104  0.00  0.00    +0.007 C 
ATOM     14  C   UNL     1      12.809  11.408  -2.446  0.00  0.00    -0.010 C 
ATOM     15  C   UNL     1      11.733  10.328  -2.308  0.00  0.00    +0.017 C 
ATOM     16  C   UNL     1      12.378  12.424  -3.506  0.00  0.00    +0.007 C 
ATOM     17  C   UNL     1      11.057  13.071  -3.085  0.00  0.00    -0.010 C 
ATOM     18  C   UNL     1      11.242  13.781  -1.743  0.00  0.00    +0.007 C 
ATOM     19  C   UNL     1       9.982  11.991  -2.946  0.00  0.00    +0.017 C 
ENDBRANCH   7  10
BRANCH   1  20
ATOM     20  C   UNL     1       4.699   5.581  -1.415  0.00  0.00    +0.097 C 
BRANCH  20  21
ATOM     21  C   UNL     1       4.734   4.380  -0.468  0.00  0.00    +0.022 C 
BRANCH  21  29
ATOM     22  C   UNL     1       0.314   0.973  -3.132  0.00  0.00    +0.000 A 
ATOM     23  C   UNL     1       0.026   0.221  -2.007  0.00  0.00    +0.002 A 
ATOM     24  C   UNL     1       0.774   0.382  -0.858  0.00  0.00    +0.023 A 
ATOM     25  C   UNL     1       1.816   1.300  -0.830  0.00  0.00    +0.037 A 
ATOM     26  C   UNL     1       2.111   2.043  -1.965  0.00  0.00    -0.025 A 
ATOM     27  C   UNL     1       1.357   1.881  -3.111  0.00  0.00    +0.005 A 
ATOM     28  C   UNL     1       3.259   3.019  -1.953  0.00  0.00    +0.049 C 
ATOM     29  C   UNL     1       3.407   3.623  -0.556  0.00  0.00    +0.080 C 
ATOM     30  C   UNL     1       3.386   2.527   0.477  0.00  0.00    +0.221 C 
ATOM     31  O   UNL     1       4.110   2.602   1.447  0.00  0.00    -0.275 OA
ATOM     32  N   UNL     1       2.573   1.467   0.333  0.00  0.00    -0.285 N 
ATOM     33  H   UNL     1       2.510   0.810   1.044  0.00  0.00    +0.155 HD
ENDBRANCH  21  29
ENDBRANCH  20  21
ENDBRANCH   1  20
TORSDOF 4
