REMARK  Name = ZINC14157629
REMARK  8 active torsions:
REMARK  status: ('A' for Active; 'I' for Inactive)
REMARK    1  A    between atoms: C_1  and  C_2
REMARK    2  A    between atoms: C_4  and  C_29
REMARK    3  A    between atoms: N_10  and  C_11
REMARK    4  A    between atoms: C_11  and  N_13
REMARK    5  A    between atoms: N_13  and  C_14
REMARK    6  A    between atoms: C_14  and  C_15
REMARK    7  A    between atoms: N_21  and  C_22
REMARK    8  A    between atoms: C_22  and  C_23
REMARK                            x       y       z     vdW  Elec       q    Type
REMARK                         _______ _______ _______ _____ _____    ______ ____
ROOT
ATOM      1  C   UNL     1       4.691   4.835   0.233  0.00  0.00    +0.066 C 
ATOM      2  C   UNL     1       3.449   5.674   0.076  0.00  0.00    +0.044 A 
ATOM      3  C   UNL     1       3.546   7.048  -0.080  0.00  0.00    +0.046 A 
ATOM      4  C   UNL     1       2.378   7.782  -0.214  0.00  0.00    +0.044 A 
ATOM      5  N   UNL     1       1.215   7.154  -0.200  0.00  0.00    -0.217 NA
ATOM      6  C   UNL     1       1.158   5.839  -0.049  0.00  0.00    +0.231 A 
ATOM      7  N   UNL     1       2.254   5.108   0.087  0.00  0.00    -0.217 NA
ATOM      8  N   UNL     1      -0.081   5.212  -0.033  0.00  0.00    -0.297 N 
ATOM      9  C   UNL     1      -1.227   5.960  -0.065  0.00  0.00    +0.195 C 
ATOM     10  N   UNL     1      -1.156   7.272  -0.216  0.00  0.00    -0.160 NA
ATOM     11  N   UNL     1      -2.443   5.352   0.059  0.00  0.00    -0.355 N 
ATOM     12  C   UNL     1       2.434   9.279  -0.380  0.00  0.00    +0.066 C 
ATOM     13  H   UNL     1      -0.134   4.244   0.001  0.00  0.00    +0.171 HD
ATOM     14  H   UNL     1      -3.250   5.887   0.108  0.00  0.00    +0.162 HD
ENDROOT
BRANCH  10  15
ATOM     15  C   UNL     1      -2.267   8.017  -0.129  0.00  0.00    +0.157 C 
ATOM     16  S   UNL     1      -3.118   8.116   1.354  0.00  0.00    -0.017 S 
BRANCH  15  17
ATOM     17  N   UNL     1      -2.714   8.689  -1.208  0.00  0.00    -0.322 N 
ATOM     18  H   UNL     1      -2.232   8.633  -2.048  0.00  0.00    +0.148 HD
BRANCH  17  19
ATOM     19  C   UNL     1      -3.928   9.504  -1.113  0.00  0.00    +0.134 C 
BRANCH  19  20
ATOM     20  C   UNL     1      -4.213  10.155  -2.468  0.00  0.00    +0.135 C 
ATOM     21  C   UNL     1      -5.416  11.117  -2.360  0.00  0.00    +0.035 C 
ATOM     22  C   UNL     1      -6.162  10.938  -3.701  0.00  0.00    +0.031 C 
ATOM     23  C   UNL     1      -5.322   9.888  -4.460  0.00  0.00    +0.160 C 
ATOM     24  O   UNL     1      -4.623   9.157  -3.429  0.00  0.00    -0.375 OA
ENDBRANCH  19  20
ENDBRANCH  17  19
ENDBRANCH  15  17
ENDBRANCH  10  15
BRANCH  11  25
ATOM     25  C   UNL     1      -2.528   3.891   0.118  0.00  0.00    +0.147 C 
BRANCH  25  26
ATOM     26  C   UNL     1      -3.998   3.466   0.133  0.00  0.00    +0.137 C 
ATOM     27  C   UNL     1      -4.098   1.928   0.144  0.00  0.00    +0.035 C 
ATOM     28  C   UNL     1      -4.895   1.610   1.433  0.00  0.00    +0.031 C 
ATOM     29  C   UNL     1      -5.612   2.955   1.712  0.00  0.00    +0.160 C 
ATOM     30  O   UNL     1      -4.633   3.945   1.330  0.00  0.00    -0.375 OA
ENDBRANCH  25  26
ENDBRANCH  11  25
TORSDOF 6
