REMARK  Name = ZINC40701689
REMARK  7 active torsions:
REMARK  status: ('A' for Active; 'I' for Inactive)
REMARK    1  A    between atoms: C_1  and  C_2
REMARK    2  A    between atoms: C_2  and  N_3
REMARK    3  A    between atoms: N_3  and  C_4
REMARK    4  A    between atoms: C_15  and  N_31
REMARK    5  A    between atoms: C_16  and  N_20
REMARK    6  A    between atoms: N_20  and  C_21
REMARK    7  A    between atoms: C_26  and  C_27
REMARK                            x       y       z     vdW  Elec       q    Type
REMARK                         _______ _______ _______ _____ _____    ______ ____
ROOT
ATOM      1  N   UNL     1       0.591  -0.587  -1.162  0.00  0.00    -0.283 N 
ATOM      2  C   UNL     1      -0.165  -0.611  -2.329  0.00  0.00    +0.151 A 
ATOM      3  C   UNL     1      -1.550  -0.441  -2.280  0.00  0.00    +0.104 A 
ATOM      4  C   UNL     1      -2.261  -0.473  -3.481  0.00  0.00    +0.126 A 
ATOM      5  N   UNL     1      -1.596  -0.663  -4.619  0.00  0.00    -0.333 N 
ATOM      6  C   UNL     1      -0.288  -0.820  -4.620  0.00  0.00    +0.200 A 
ATOM      7  N   UNL     1       0.421  -0.790  -3.510  0.00  0.00    -0.220 NA
ATOM      8  H   UNL     1      -2.081  -0.687  -5.458  0.00  0.00    +0.168 HD
ENDROOT
BRANCH   1   9
ATOM      9  C   UNL     1       0.946  -1.782  -0.537  0.00  0.00    +0.043 A 
ATOM     10  C   UNL     1       0.121  -2.339   0.417  0.00  0.00    +0.024 A 
ATOM     11  C   UNL     1       0.466  -3.531   1.047  0.00  0.00    +0.002 A 
ATOM     12  C   UNL     1       1.623  -4.179   0.741  0.00  0.00    +0.008 A 
ATOM     13  C   UNL     1       2.492  -3.645  -0.227  0.00  0.00    -0.016 A 
ATOM     14  C   UNL     1       2.149  -2.435  -0.879  0.00  0.00    +0.003 A 
ATOM     15  C   UNL     1       3.015  -1.905  -1.849  0.00  0.00    +0.010 A 
ATOM     16  C   UNL     1       4.168  -2.563  -2.154  0.00  0.00    +0.001 A 
ATOM     17  C   UNL     1       4.503  -3.756  -1.517  0.00  0.00    +0.001 A 
ATOM     18  C   UNL     1       3.693  -4.292  -0.563  0.00  0.00    +0.008 A 
ENDBRANCH   1   9
BRANCH   3  19
ATOM     19  N   UNL     1      -2.209  -0.243  -1.057  0.00  0.00    -0.353 N 
ATOM     20  H   UNL     1      -1.696  -0.135  -0.241  0.00  0.00    +0.143 HD
ATOM     21  H   UNL     1      -3.179  -0.215  -1.027  0.00  0.00    +0.143 HD
ENDBRANCH   3  19
BRANCH   1  23
ATOM     22  C   UNL     1       2.406   1.052  -1.116  0.00  0.00    +0.025 C 
ATOM     23  C   UNL     1       1.015   0.693  -0.589  0.00  0.00    +0.109 C 
ENDBRANCH   1  23
BRANCH   4  24
ATOM     24  N   UNL     1      -3.641  -0.310  -3.489  0.00  0.00    -0.299 N 
ATOM     25  H   UNL     1      -4.112  -0.117  -2.663  0.00  0.00    +0.154 HD
BRANCH  24  26
ATOM     26  C   UNL     1      -4.351  -0.423  -4.687  0.00  0.00    +0.044 A 
ATOM     27  C   UNL     1      -4.721   0.719  -5.388  0.00  0.00    +0.024 A 
ATOM     28  C   UNL     1      -5.423   0.604  -6.572  0.00  0.00    +0.002 A 
ATOM     29  C   UNL     1      -5.758  -0.646  -7.060  0.00  0.00    +0.001 A 
ATOM     30  C   UNL     1      -5.392  -1.784  -6.365  0.00  0.00    +0.014 A 
ATOM     31  C   UNL     1      -4.684  -1.677  -5.184  0.00  0.00    +0.076 A 
BRANCH  31  32
ATOM     32  C   UNL     1      -4.280  -2.918  -4.431  0.00  0.00    +0.419 C 
ATOM     33  F   UNL     1      -4.724  -4.049  -5.123  0.00  0.00    -0.166 F 
ATOM     34  F   UNL     1      -2.886  -2.959  -4.315  0.00  0.00    -0.166 F 
ATOM     35  F   UNL     1      -4.853  -2.897  -3.155  0.00  0.00    -0.166 F 
ENDBRANCH  31  32
ENDBRANCH  24  26
ENDBRANCH   4  24
TORSDOF 6
