REMARK  Name = ZINC25377794
REMARK  9 active torsions:
REMARK  status: ('A' for Active; 'I' for Inactive)
REMARK    1  A    between atoms: C_1  and  C_2
REMARK    2  A    between atoms: C_2  and  C_3
REMARK    3  A    between atoms: C_3  and  C_4
REMARK    4  A    between atoms: C_4  and  C_5
REMARK    5  A    between atoms: C_5  and  C_7
REMARK    6  A    between atoms: C_5  and  N_16
REMARK    7  A    between atoms: C_12  and  C_15
REMARK    8  A    between atoms: N_19  and  C_22
REMARK    9  A    between atoms: C_27  and  O_28
REMARK                            x       y       z     vdW  Elec       q    Type
REMARK                         _______ _______ _______ _____ _____    ______ ____
ROOT
ATOM      1  C   UNL     1      -0.430   1.544   3.719  0.00  0.00    +0.020 C 
ENDROOT
BRANCH   1   2
ATOM      2  C   UNL     1      -0.033   0.965   5.052  0.00  0.00    +0.205 C 
ATOM      3  O   UNL     1       0.280   1.701   5.964  0.00  0.00    -0.277 OA
ATOM      4  N   UNL     1      -0.027  -0.371   5.232  0.00  0.00    -0.269 N 
ATOM      5  C   UNL     1       0.340  -0.907   6.466  0.00  0.00    +0.168 A 
ATOM      6  C   UNL     1       0.731  -0.186   7.626  0.00  0.00    +0.091 A 
ATOM      7  C   UNL     1       0.982  -1.151   8.540  0.00  0.00    +0.136 A 
ATOM      8  O   UNL     1       0.747  -2.324   7.934  0.00  0.00    -0.358 OA
ATOM      9  N   UNL     1       0.388  -2.172   6.789  0.00  0.00    -0.063 NA
ATOM     10  C   UNL     1       1.435  -0.948   9.963  0.00  0.00    +0.089 C 
ATOM     11  H   UNL     1      -0.311  -1.038   4.405  0.00  0.00    +0.156 HD
ENDBRANCH   1   2
BRANCH   1  12
ATOM     12  N   UNL     1      -0.356   3.010   3.780  0.00  0.00    +0.389 N 
ATOM     13  C   UNL     1       1.000   3.455   4.128  0.00  0.00    -0.059 C 
ATOM     14  C   UNL     1       1.055   4.984   4.103  0.00  0.00    +0.086 C 
ATOM     15  N   UNL     1       0.068   5.522   5.050  0.00  0.00    -0.331 N 
ATOM     16  C   UNL     1      -1.288   5.077   4.702  0.00  0.00    +0.086 C 
ATOM     17  C   UNL     1      -1.343   3.548   4.726  0.00  0.00    -0.059 C 
ATOM     18  H   UNL     1      -0.596   3.401   2.780  0.00  0.00    -0.081 HD
BRANCH  15  19
ATOM     19  C   UNL     1       0.139   6.919   5.108  0.00  0.00    +0.072 A 
ATOM     20  C   UNL     1       0.906   7.616   4.186  0.00  0.00    +0.027 A 
ATOM     21  C   UNL     1       0.970   8.995   4.242  0.00  0.00    +0.002 A 
ATOM     22  C   UNL     1       0.279   9.683   5.223  0.00  0.00    +0.004 A 
ATOM     23  C   UNL     1      -0.484   8.995   6.148  0.00  0.00    +0.047 A 
ATOM     24  C   UNL     1      -0.557   7.613   6.096  0.00  0.00    +0.138 A 
BRANCH  24  25
ATOM     25  O   UNL     1      -1.306   6.935   7.006  0.00  0.00    -0.505 OA
ATOM     26  H   UNL     1      -1.855   7.484   7.785  0.00  0.00    +0.292 HD
ENDBRANCH  24  25
ENDBRANCH  15  19
ENDBRANCH   1  12
BRANCH   1  27
ATOM     27  C   UNL     1       0.521   1.030   2.636  0.00  0.00    -0.006 C 
BRANCH  27  28
ATOM     28  C   UNL     1       0.045   1.517   1.266  0.00  0.00    -0.001 C 
BRANCH  28  30
ATOM     29  C   UNL     1       0.520   1.489  -1.187  0.00  0.00    +0.004 C 
ATOM     30  C   UNL     1       0.996   1.003   0.183  0.00  0.00    -0.003 C 
ENDBRANCH  28  30
ENDBRANCH  27  28
ENDBRANCH   1  27
TORSDOF 7
