REMARK  Name = ZINC25957218
REMARK  11 active torsions:
REMARK  status: ('A' for Active; 'I' for Inactive)
REMARK    1  A    between atoms: C_1  and  C_2
REMARK    2  A    between atoms: C_7  and  N_8
REMARK    3  A    between atoms: C_9  and  C_11
REMARK    4  A    between atoms: C_11  and  N_12
REMARK    5  A    between atoms: C_13  and  C_15
REMARK    6  A    between atoms: C_16  and  C_27
REMARK    7  A    between atoms: C_18  and  N_20
REMARK    8  A    between atoms: C_21  and  C_23
REMARK    9  A    between atoms: C_23  and  C_24
REMARK   10  A    between atoms: C_23  and  C_25
REMARK   11  A    between atoms: C_23  and  C_26
REMARK                            x       y       z     vdW  Elec       q    Type
REMARK                         _______ _______ _______ _____ _____    ______ ____
ROOT
ATOM      1  N   UNL     1      -4.791  -2.997  -0.011  0.00  0.00    -0.302 N 
ATOM      2  C   UNL     1      -5.298  -1.748  -0.011  0.00  0.00    +0.251 C 
ATOM      3  O   UNL     1      -6.504  -1.581  -0.012  0.00  0.00    -0.270 OA
ATOM      4  H   UNL     1      -3.701  -3.148  -0.010  0.00  0.00    +0.150 HD
ENDROOT
BRANCH   2   5
ATOM      5  C   UNL     1      -4.401  -0.595  -0.010  0.00  0.00    +0.078 A 
ATOM      6  C   UNL     1      -4.717   0.757  -0.010  0.00  0.00    -0.029 A 
ATOM      7  C   UNL     1      -3.675   1.645  -0.008  0.00  0.00    +0.035 A 
ATOM      8  C   UNL     1      -2.386   1.156  -0.007  0.00  0.00    +0.073 A 
ATOM      9  S   UNL     1      -2.617  -0.562  -0.014  0.00  0.00    -0.069 S 
ATOM     10  C   UNL     1      -6.148   1.227  -0.011  0.00  0.00    +0.045 C 
BRANCH   8  11
ATOM     11  N   UNL     1      -1.192   1.868  -0.006  0.00  0.00    -0.280 N 
ATOM     12  C   UNL     1      -0.016   1.210  -0.004  0.00  0.00    +0.223 C 
ATOM     13  O   UNL     1       0.001  -0.003  -0.004  0.00  0.00    -0.275 OA
ATOM     14  H   UNL     1      -1.208   2.967  -0.006  0.00  0.00    +0.155 HD
BRANCH  12  15
ATOM     15  C   UNL     1       1.278   1.981  -0.009  0.00  0.00    +0.039 C 
ATOM     16  C   UNL     1       2.455   1.003  -0.014  0.00  0.00    +0.020 C 
ATOM     17  C   UNL     1       1.343   2.862  -1.259  0.00  0.00    +0.020 C 
ATOM     18  C   UNL     1       1.352   2.862   1.239  0.00  0.00    +0.020 C 
ENDBRANCH  12  15
ENDBRANCH   8  11
ENDBRANCH   2   5
BRANCH   1  19
ATOM     19  C   UNL     1      -5.691  -4.153  -0.012  0.00  0.00    +0.200 C 
BRANCH  19  21
ATOM     20  N   UNL     1      -5.497  -6.619  -0.012  0.00  0.00    -0.284 N 
ATOM     21  C   UNL     1      -4.878  -5.422  -0.011  0.00  0.00    +0.234 C 
ATOM     22  O   UNL     1      -3.666  -5.366  -0.010  0.00  0.00    -0.274 OA
ATOM     23  H   UNL     1      -6.592  -6.671   0.078  0.00  0.00    +0.155 HD
BRANCH  20  30
ATOM     24  C   UNL     1      -6.595  -9.022   1.043  0.00  0.00    +0.046 C 
ATOM     25  C   UNL     1      -5.245  -8.990   0.373  0.00  0.00    -0.028 A 
ATOM     26  C   UNL     1      -4.505 -10.150   0.252  0.00  0.00    +0.020 A 
ATOM     27  C   UNL     1      -3.264 -10.120  -0.358  0.00  0.00    +0.018 A 
ATOM     28  C   UNL     1      -2.763  -8.929  -0.854  0.00  0.00    +0.017 A 
ATOM     29  C   UNL     1      -3.501  -7.767  -0.741  0.00  0.00    +0.024 A 
ATOM     30  C   UNL     1      -4.747  -7.795  -0.129  0.00  0.00    +0.036 A 
ATOM     31 BR   UNL     1      -2.250 -11.708  -0.514  0.00  0.00    -0.050 Br
ENDBRANCH  20  30
ENDBRANCH  19  21
ENDBRANCH   1  19
TORSDOF 6
