REMARK  Name = ZINC21910666
REMARK  7 active torsions:
REMARK  status: ('A' for Active; 'I' for Inactive)
REMARK    1  A    between atoms: C_1  and  C_2
REMARK    2  A    between atoms: C_4  and  N_7
REMARK    3  A    between atoms: C_8  and  C_10
REMARK    4  A    between atoms: C_10  and  C_12
REMARK    5  A    between atoms: C_10  and  S_13
REMARK    6  A    between atoms: S_13  and  C_14
REMARK    7  A    between atoms: N_18  and  C_19
REMARK                            x       y       z     vdW  Elec       q    Type
REMARK                         _______ _______ _______ _____ _____    ______ ____
ROOT
ATOM      1  S   UNL     1      -0.894   2.102  -1.456  0.00  0.00    -0.075 S 
ENDROOT
BRANCH   1   2
ATOM      2  C   UNL     1      -0.901   3.832  -1.122  0.00  0.00    +0.174 A 
ATOM      3  N   UNL     1      -0.382   4.413  -0.065  0.00  0.00    -0.230 NA
ATOM      4  C   UNL     1      -0.574   5.740  -0.147  0.00  0.00    +0.131 A 
ATOM      5  C   UNL     1      -1.233   6.005  -1.288  0.00  0.00    +0.113 A 
ATOM      6  N   UNL     1      -1.442   4.797  -1.920  0.00  0.00    -0.295 N 
BRANCH   6   7
ATOM      7  C   UNL     1      -2.090   4.599  -3.147  0.00  0.00    +0.050 A 
ATOM      8  C   UNL     1      -3.333   5.173  -3.379  0.00  0.00    +0.026 A 
ATOM      9  C   UNL     1      -3.969   4.977  -4.589  0.00  0.00    +0.003 A 
ATOM     10  C   UNL     1      -3.369   4.208  -5.570  0.00  0.00    +0.020 A 
ATOM     11  C   UNL     1      -2.131   3.634  -5.343  0.00  0.00    +0.043 A 
ATOM     12  C   UNL     1      -1.488   3.832  -4.135  0.00  0.00    +0.046 A 
ATOM     13 CL   UNL     1      -1.382   2.671  -6.577  0.00  0.00    -0.083 Cl
ENDBRANCH   6   7
ENDBRANCH   1   2
BRANCH   1  14
ATOM     14  C   UNL     1      -0.018   1.503   0.010  0.00  0.00    +0.137 C 
ATOM     15  C   UNL     1       1.417   2.032  -0.001  0.00  0.00    +0.029 C 
BRANCH  14  17
ATOM     16  N   UNL     1       0.124  -0.683   1.160  0.00  0.00    -0.253 N 
ATOM     17  C   UNL     1       0.002  -0.004   0.002  0.00  0.00    +0.233 C 
ATOM     18  O   UNL     1      -0.091  -0.606  -1.047  0.00  0.00    -0.274 OA
ATOM     19  H   UNL     1       0.209  -0.137   2.111  0.00  0.00    +0.158 HD
BRANCH  16  23
ATOM     20  C   UNL     1       0.314  -5.493   2.430  0.00  0.00    +0.069 C 
ATOM     21  C   UNL     1       0.223  -4.189   1.681  0.00  0.00    +0.082 A 
ATOM     22  C   UNL     1       0.260  -2.894   2.235  0.00  0.00    +0.092 A 
ATOM     23  C   UNL     1       0.143  -2.070   1.152  0.00  0.00    +0.224 A 
ATOM     24  O   UNL     1       0.044  -2.871   0.080  0.00  0.00    -0.339 OA
ATOM     25  N   UNL     1       0.096  -4.038   0.392  0.00  0.00    -0.081 NA
ENDBRANCH  16  23
ENDBRANCH  14  17
ENDBRANCH   1  14
TORSDOF 5
