REMARK  Name = ZINC13942504
REMARK  7 active torsions:
REMARK  status: ('A' for Active; 'I' for Inactive)
REMARK    1  A    between atoms: C_1  and  C_2
REMARK    2  A    between atoms: C_5  and  N_9
REMARK    3  A    between atoms: C_7  and  C_8
REMARK    4  A    between atoms: C_13  and  C_14
REMARK    5  A    between atoms: C_18  and  O_21
REMARK    6  A    between atoms: C_19  and  O_20
REMARK    7  A    between atoms: O_21  and  C_22
REMARK                            x       y       z     vdW  Elec       q    Type
REMARK                         _______ _______ _______ _____ _____    ______ ____
ROOT
ATOM      1  N   UNL     1      -1.270   2.132  -0.494  0.00  0.00    -0.184 N 
ATOM      2  C   UNL     1      -2.482   1.546  -0.505  0.00  0.00    +0.272 C 
ATOM      3  O   UNL     1      -2.726   0.390  -0.795  0.00  0.00    -0.268 OA
ATOM      4  C   UNL     1      -3.458   2.575  -0.096  0.00  0.00    +0.102 C 
ATOM      5  C   UNL     1      -4.823   2.430   0.037  0.00  0.00    +0.030 C 
ATOM      6  C   UNL     1      -2.658   3.793   0.134  0.00  0.00    +0.266 C 
ATOM      7  O   UNL     1      -3.077   4.880   0.483  0.00  0.00    -0.268 OA
ATOM      8  N   UNL     1      -1.375   3.471  -0.117  0.00  0.00    -0.223 N 
ATOM      9  H   UNL     1      -0.627   4.084  -0.045  0.00  0.00    +0.174 HD
ENDROOT
BRANCH   1  14
ATOM     10  C   UNL     1       3.587  -0.472  -1.838  0.00  0.00    +0.044 C 
ATOM     11  C   UNL     1       2.296   0.219  -1.480  0.00  0.00    -0.047 A 
ATOM     12  C   UNL     1       1.105  -0.482  -1.514  0.00  0.00    +0.005 A 
ATOM     13  C   UNL     1      -0.079   0.148  -1.186  0.00  0.00    +0.025 A 
ATOM     14  C   UNL     1      -0.072   1.489  -0.821  0.00  0.00    +0.057 A 
ATOM     15  C   UNL     1       1.126   2.190  -0.788  0.00  0.00    +0.028 A 
ATOM     16  C   UNL     1       2.307   1.554  -1.118  0.00  0.00    -0.046 A 
ATOM     17  C   UNL     1       3.607   2.314  -1.082  0.00  0.00    +0.044 C 
ENDBRANCH   1  14
BRANCH   5  18
ATOM     18  C   UNL     1      -5.433   1.105  -0.078  0.00  0.00    +0.022 A 
ATOM     19  C   UNL     1      -4.816  -0.010   0.510  0.00  0.00    +0.031 A 
ATOM     20  C   UNL     1      -5.395  -1.254   0.399  0.00  0.00    +0.045 A 
ATOM     21  C   UNL     1      -6.588  -1.414  -0.292  0.00  0.00    +0.069 A 
ATOM     22  C   UNL     1      -7.210  -0.325  -0.878  0.00  0.00    +0.163 A 
ATOM     23  C   UNL     1      -6.644   0.941  -0.773  0.00  0.00    +0.166 A 
ATOM     24 CL   UNL     1      -4.628  -2.631   1.127  0.00  0.00    -0.083 Cl
BRANCH  23  25
ATOM     25  O   UNL     1      -7.254   2.012  -1.341  0.00  0.00    -0.503 OA
ATOM     26  H   UNL     1      -6.983   2.180  -2.254  0.00  0.00    +0.292 HD
ENDBRANCH  23  25
BRANCH  22  27
ATOM     27  O   UNL     1      -8.380  -0.492  -1.552  0.00  0.00    -0.491 OA
ATOM     28  C   UNL     1      -8.908  -1.818  -1.616  0.00  0.00    +0.277 C 
ENDBRANCH  22  27
ENDBRANCH   5  18
TORSDOF 4
