REMARK  Name = ZINC12660045
REMARK  8 active torsions:
REMARK  status: ('A' for Active; 'I' for Inactive)
REMARK    1  A    between atoms: C_1  and  C_2
REMARK    2  A    between atoms: C_2  and  C_8
REMARK    3  A    between atoms: N_3  and  N_4
REMARK    4  A    between atoms: N_4  and  C_5
REMARK    5  A    between atoms: C_5  and  N_7
REMARK    6  A    between atoms: C_14  and  C_33
REMARK    7  A    between atoms: C_25  and  C_32
REMARK    8  A    between atoms: C_28  and  O_31
REMARK                            x       y       z     vdW  Elec       q    Type
REMARK                         _______ _______ _______ _____ _____    ______ ____
ROOT
ATOM      1  C   UNL     1      -0.039  -0.016   0.088  0.00  0.00    +0.041 C 
ATOM      2  C   UNL     1       0.590  -0.503   1.409  0.00  0.00    +0.010 C 
ATOM      3  C   UNL     1      -0.489  -1.346   2.123  0.00  0.00    +0.005 C 
ATOM      4  C   UNL     1      -1.413  -1.828   0.965  0.00  0.00    -0.001 C 
ATOM      5  C   UNL     1      -1.466  -0.578   0.067  0.00  0.00    -0.021 C 
ATOM      6  C   UNL     1      -1.955  -0.872  -1.333  0.00  0.00    +0.008 C 
ATOM      7  C   UNL     1      -1.146  -1.997  -1.978  0.00  0.00    +0.005 C 
ATOM      8  C   UNL     1      -1.286  -3.252  -1.108  0.00  0.00    -0.001 C 
ATOM      9  C   UNL     1      -0.679  -2.977   0.271  0.00  0.00    -0.004 C 
ATOM     10  C   UNL     1       0.798  -2.617   0.106  0.00  0.00    +0.004 C 
ATOM     11  C   UNL     1       1.537  -3.789  -0.546  0.00  0.00    +0.004 C 
ATOM     12  C   UNL     1       0.924  -4.079  -1.917  0.00  0.00    -0.002 C 
ATOM     13  C   UNL     1      -0.553  -4.416  -1.778  0.00  0.00    -0.026 C 
ATOM     14  C   UNL     1      -1.167  -4.724  -3.123  0.00  0.00    +0.010 C 
ATOM     15  C   UNL     1      -0.430  -5.897  -3.773  0.00  0.00    +0.032 C 
ATOM     16  C   UNL     1       1.049  -5.543  -3.938  0.00  0.00    +0.115 C 
ATOM     17  C   UNL     1       1.661  -5.253  -2.566  0.00  0.00    +0.035 C 
ATOM     18  C   UNL     1      -0.670  -5.664  -0.901  0.00  0.00    +0.012 C 
ATOM     19  C   UNL     1      -2.411   0.446   0.698  0.00  0.00    +0.012 C 
ENDROOT
BRANCH   1  21
ATOM     20  C   UNL     1      -0.528   2.205  -1.193  0.00  0.00    +0.062 C 
ATOM     21  C   UNL     1      -0.073   1.490   0.053  0.00  0.00    +0.037 C 
ATOM     22  N   UNL     1       0.280   2.162   1.084  0.00  0.00    -0.190 NA
BRANCH  22  23
ATOM     23  N   UNL     1       0.133   3.556   1.095  0.00  0.00    -0.219 N 
ATOM     24  H   UNL     1      -0.169   4.018   0.298  0.00  0.00    +0.176 HD
BRANCH  23  25
ATOM     25  C   UNL     1       0.413   4.253   2.214  0.00  0.00    +0.147 C 
ATOM     26  S   UNL     1       0.112   5.938   2.270  0.00  0.00    -0.017 S 
BRANCH  25  27
ATOM     27  N   UNL     1       0.929   3.625   3.289  0.00  0.00    -0.339 N 
ATOM     28  H   UNL     1       1.168   2.687   3.234  0.00  0.00    +0.144 HD
ATOM     29  H   UNL     1       1.063   4.112   4.117  0.00  0.00    +0.144 HD
ENDBRANCH  25  27
ENDBRANCH  23  25
ENDBRANCH  22  23
ENDBRANCH   1  21
BRANCH  16  30
ATOM     30  O   UNL     1       1.736  -6.639  -4.544  0.00  0.00    -0.392 OA
ATOM     31  H   UNL     1       1.401  -6.879  -5.419  0.00  0.00    +0.210 HD
ENDBRANCH  16  30
TORSDOF 5
