REMARK  Name = ZINC19640044
REMARK  9 active torsions:
REMARK  status: ('A' for Active; 'I' for Inactive)
REMARK    1  A    between atoms: C_1  and  C_2
REMARK    2  A    between atoms: C_2  and  C_3
REMARK    3  A    between atoms: C_3  and  C_5
REMARK    4  A    between atoms: C_3  and  N_12
REMARK    5  A    between atoms: C_8  and  C_11
REMARK    6  A    between atoms: N_12  and  C_13
REMARK    7  A    between atoms: C_13  and  C_14
REMARK    8  A    between atoms: C_14  and  N_16
REMARK    9  A    between atoms: C_19  and  C_22
REMARK                            x       y       z     vdW  Elec       q    Type
REMARK                         _______ _______ _______ _____ _____    ______ ____
ROOT
ATOM      1  C   UNL     1      -3.155   1.419   2.807  0.00  0.00    +0.221 C 
ATOM      2  O   UNL     1      -3.374   0.504   3.579  0.00  0.00    -0.276 OA
ENDROOT
BRANCH   1   3
ATOM      3  N   UNL     1      -3.546   2.650   3.110  0.00  0.00    -0.158 NA
ATOM      4  C   UNL     1      -4.179   2.885   4.261  0.00  0.00    +0.163 A 
ATOM      5  N   UNL     1      -4.654   4.068   4.734  0.00  0.00    -0.335 N 
ATOM      6  C   UNL     1      -5.277   4.089   5.950  0.00  0.00    +0.055 A 
ATOM      7  C   UNL     1      -5.378   2.910   6.604  0.00  0.00    +0.074 A 
ATOM      8  S   UNL     1      -4.585   1.788   5.468  0.00  0.00    -0.060 S 
ATOM      9  H   UNL     1      -4.552   4.883   4.218  0.00  0.00    +0.168 HD
BRANCH   6  10
ATOM     10  C   UNL     1      -5.816   5.342   6.523  0.00  0.00    -0.001 A 
ATOM     11  C   UNL     1      -5.701   6.541   5.819  0.00  0.00    +0.011 A 
ATOM     12  C   UNL     1      -6.206   7.706   6.359  0.00  0.00    +0.016 A 
ATOM     13  C   UNL     1      -6.826   7.687   7.596  0.00  0.00    +0.018 A 
ATOM     14  C   UNL     1      -6.944   6.500   8.299  0.00  0.00    +0.016 A 
ATOM     15  C   UNL     1      -6.447   5.328   7.768  0.00  0.00    +0.011 A 
ATOM     16 BR   UNL     1      -7.515   9.288   8.329  0.00  0.00    -0.050 Br
ENDBRANCH   6  10
ENDBRANCH   1   3
BRANCH   1  17
ATOM     17  C   UNL     1      -2.441   1.154   1.507  0.00  0.00    +0.018 C 
BRANCH  17  18
ATOM     18  N   UNL     1      -2.117  -0.276   1.409  0.00  0.00    +0.389 N 
ATOM     19  H   UNL     1      -2.970  -0.811   1.357  0.00  0.00    -0.084 HD
ATOM     20  H   UNL     1      -1.591  -0.558   2.223  0.00  0.00    -0.084 HD
BRANCH  18  21
ATOM     21  C   UNL     1      -1.315  -0.514   0.202  0.00  0.00    -0.041 C 
BRANCH  21  22
ATOM     22  C   UNL     1      -2.146  -0.217  -1.020  0.00  0.00    -0.061 A 
ATOM     23  C   UNL     1      -3.478  -0.585  -1.056  0.00  0.00    +0.002 A 
ATOM     24  C   UNL     1      -4.240  -0.312  -2.177  0.00  0.00    +0.003 A 
ATOM     25  C   UNL     1      -3.670   0.328  -3.261  0.00  0.00    -0.050 A 
ATOM     26  C   UNL     1      -2.338   0.697  -3.225  0.00  0.00    +0.003 A 
ATOM     27  C   UNL     1      -1.577   0.428  -2.102  0.00  0.00    +0.002 A 
ATOM     28  C   UNL     1      -4.500   0.624  -4.483  0.00  0.00    +0.044 C 
ENDBRANCH  21  22
BRANCH  21  30
ATOM     29  C   UNL     1       0.085  -2.244   1.339  0.00  0.00    +0.002 C 
ATOM     30  C   UNL     1      -0.865  -1.976   0.169  0.00  0.00    -0.015 C 
ENDBRANCH  21  30
ENDBRANCH  18  21
ENDBRANCH  17  18
ENDBRANCH   1  17
TORSDOF 7
