REMARK  Name = ZINC43192958
REMARK  10 active torsions:
REMARK  status: ('A' for Active; 'I' for Inactive)
REMARK    1  A    between atoms: C_1  and  C_2
REMARK    2  A    between atoms: C_3  and  C_8
REMARK    3  A    between atoms: N_6  and  C_7
REMARK    4  A    between atoms: C_8  and  C_10
REMARK    5  A    between atoms: C_8  and  N_11
REMARK    6  A    between atoms: N_14  and  C_15
REMARK    7  A    between atoms: C_19  and  S_21
REMARK    8  A    between atoms: S_21  and  N_24
REMARK    9  A    between atoms: N_24  and  C_25
REMARK   10  A    between atoms: N_24  and  C_26
REMARK                            x       y       z     vdW  Elec       q    Type
REMARK                         _______ _______ _______ _____ _____    ______ ____
ROOT
ATOM      1  N   UNL     1       0.483  -1.401  -3.395  0.00  0.00    -0.292 N 
ATOM      2  C   UNL     1       1.027  -1.105  -4.593  0.00  0.00    +0.304 C 
ATOM      3  O   UNL     1       1.115   0.054  -4.950  0.00  0.00    -0.252 OA
ATOM      4  N   UNL     1       1.473  -2.093  -5.393  0.00  0.00    -0.269 N 
ATOM      5  H   UNL     1       0.413  -2.325  -3.110  0.00  0.00    +0.151 HD
ATOM      6  H   UNL     1       1.464  -3.011  -5.080  0.00  0.00    +0.156 HD
ENDROOT
BRANCH   4   7
ATOM      7  C   UNL     1       1.947  -1.795  -6.675  0.00  0.00    +0.037 A 
ATOM      8  C   UNL     1       2.642  -0.614  -6.902  0.00  0.00    +0.023 A 
ATOM      9  C   UNL     1       3.110  -0.322  -8.169  0.00  0.00    +0.004 A 
ATOM     10  C   UNL     1       2.887  -1.205  -9.210  0.00  0.00    +0.028 A 
ATOM     11  C   UNL     1       2.195  -2.381  -8.987  0.00  0.00    +0.107 A 
ATOM     12  C   UNL     1       1.730  -2.681  -7.721  0.00  0.00    +0.052 A 
BRANCH  11  13
ATOM     13  S   UNL     1       1.912  -3.502 -10.317  0.00  0.00    +0.060 S 
ATOM     14  O   UNL     1       0.770  -4.270  -9.965  0.00  0.00    -0.153 OA
ATOM     15  O   UNL     1       1.978  -2.737 -11.513  0.00  0.00    -0.153 OA
BRANCH  13  16
ATOM     16  N   UNL     1       3.194  -4.550 -10.355  0.00  0.00    -0.183 NA
ATOM     17  C   UNL     1       3.146  -5.794  -9.584  0.00  0.00    +0.131 C 
ATOM     18  C   UNL     1       4.376  -4.232 -11.160  0.00  0.00    +0.131 C 
ENDBRANCH  13  16
ENDBRANCH  11  13
ENDBRANCH   4   7
BRANCH   1  19
ATOM     19  C   UNL     1      -0.002  -0.327  -2.525  0.00  0.00    +0.105 C 
ATOM     20  C   UNL     1      -1.433   0.042  -2.919  0.00  0.00    +0.033 C 
BRANCH  19  23
ATOM     21  C   UNL     1      -0.012   1.509   0.008  0.00  0.00    +0.065 C 
ATOM     22  C   UNL     1       0.016   0.002   0.003  0.00  0.00    +0.041 A 
ATOM     23  C   UNL     1       0.021  -0.792  -1.092  0.00  0.00    +0.013 A 
ATOM     24  C   UNL     1       0.050  -2.122  -0.659  0.00  0.00    +0.140 A 
ATOM     25  N   UNL     1       0.062  -2.126   0.649  0.00  0.00    -0.179 NA
ATOM     26  N   UNL     1       0.046  -0.796   1.091  0.00  0.00    -0.271 N 
ATOM     27  C   UNL     1       0.058  -0.351   2.486  0.00  0.00    +0.172 C 
ENDBRANCH  19  23
ENDBRANCH   1  19
TORSDOF 5
