REMARK  Name = ZINC32126433
REMARK  5 active torsions:
REMARK  status: ('A' for Active; 'I' for Inactive)
REMARK    1  A    between atoms: C_6  and  C_7
REMARK    2  A    between atoms: N_9  and  C_10
REMARK    3  A    between atoms: C_10  and  N_12
REMARK    4  A    between atoms: N_15  and  C_18
REMARK    5  A    between atoms: C_23  and  N_24
REMARK                            x       y       z     vdW  Elec       q    Type
REMARK                         _______ _______ _______ _____ _____    ______ ____
ROOT
ATOM      1  N   UNL     1       4.217  -1.002  -0.079  0.00  0.00    -0.309 N 
ATOM      2  C   UNL     1       3.948  -0.342   1.207  0.00  0.00    +0.125 C 
ATOM      3  C   UNL     1       2.530   0.236   1.170  0.00  0.00    +0.124 C 
ATOM      4  N   UNL     1       2.386   1.097  -0.012  0.00  0.00    -0.325 N 
ATOM      5  C   UNL     1       2.546   0.328  -1.253  0.00  0.00    +0.124 C 
ATOM      6  C   UNL     1       3.965  -0.247  -1.315  0.00  0.00    +0.125 C 
ENDROOT
BRANCH   4   7
ATOM      7  C   UNL     1       1.162   1.771   0.006  0.00  0.00    +0.060 A 
ATOM      8  C   UNL     1      -0.028   1.054   0.016  0.00  0.00    +0.027 A 
ATOM      9  C   UNL     1      -1.235   1.724   0.027  0.00  0.00    +0.022 A 
ATOM     10  C   UNL     1      -1.261   3.107   0.039  0.00  0.00    +0.043 A 
ATOM     11  C   UNL     1      -0.078   3.824   0.029  0.00  0.00    +0.054 A 
ATOM     12  C   UNL     1       1.133   3.160   0.012  0.00  0.00    +0.148 A 
ATOM     13 CL   UNL     1      -2.781   3.945   0.060  0.00  0.00    -0.083 Cl
BRANCH  12  14
ATOM     14  N   UNL     1       2.399   3.927   0.002  0.00  0.00    +0.058 N 
ATOM     15  O   UNL     1       2.373   5.145   0.008  0.00  0.00    -0.126 OA
ATOM     16  O   UNL     1       3.466   3.341  -0.012  0.00  0.00    -0.126 OA
ENDBRANCH  12  14
ENDBRANCH   4   7
BRANCH   1  17
ATOM     17  C   UNL     1       4.683  -2.267  -0.124  0.00  0.00    +0.139 C 
ATOM     18  S   UNL     1       5.090  -3.080   1.326  0.00  0.00    -0.018 S 
BRANCH  17  21
ATOM     19  C   UNL     1       5.190  -4.187  -1.350  0.00  0.00    +0.250 C 
ATOM     20  O   UNL     1       5.387  -4.795  -0.316  0.00  0.00    -0.270 OA
ATOM     21  N   UNL     1       4.827  -2.890  -1.310  0.00  0.00    -0.264 N 
ATOM     22  H   UNL     1       4.649  -2.340  -2.246  0.00  0.00    +0.157 HD
BRANCH  19  28
ATOM     23  C   UNL     1       5.117  -4.174  -3.837  0.00  0.00    +0.017 A 
ATOM     24  C   UNL     1       5.271  -4.811  -5.049  0.00  0.00    +0.050 A 
ATOM     25  C   UNL     1       5.645  -6.148  -5.093  0.00  0.00    +0.166 A 
ATOM     26  C   UNL     1       5.872  -6.850  -3.909  0.00  0.00    +0.167 A 
ATOM     27  C   UNL     1       5.725  -6.215  -2.691  0.00  0.00    +0.062 A 
ATOM     28  C   UNL     1       5.348  -4.870  -2.648  0.00  0.00    +0.041 A 
ATOM     29  O   UNL     1       6.223  -8.132  -4.223  0.00  0.00    -0.453 OA
ATOM     30  C   UNL     1       5.811  -8.318  -5.590  0.00  0.00    +0.466 C 
ATOM     31  O   UNL     1       5.855  -6.990  -6.145  0.00  0.00    -0.453 OA
ENDBRANCH  19  28
ENDBRANCH  17  21
ENDBRANCH   1  17
TORSDOF 5
