REMARK  Name = ZINC13298891
REMARK  8 active torsions:
REMARK  status: ('A' for Active; 'I' for Inactive)
REMARK    1  A    between atoms: C_1  and  C_2
REMARK    2  A    between atoms: C_5  and  C_31
REMARK    3  A    between atoms: C_10  and  C_12
REMARK    4  A    between atoms: C_12  and  N_59
REMARK    5  A    between atoms: N_15  and  C_18
REMARK    6  A    between atoms: C_21  and  C_27
REMARK    7  A    between atoms: C_23  and  N_24
REMARK    8  A    between atoms: C_28  and  C_29
REMARK                            x       y       z     vdW  Elec       q    Type
REMARK                         _______ _______ _______ _____ _____    ______ ____
ROOT
ATOM      1  C   UNL     1       0.659  -4.145   1.165  0.00  0.00    -0.059 C 
ATOM      2  C   UNL     1       0.555  -2.618   1.171  0.00  0.00    +0.086 C 
ATOM      3  N   UNL     1       1.226  -2.079  -0.021  0.00  0.00    -0.332 N 
ATOM      4  C   UNL     1       0.613  -2.604  -1.249  0.00  0.00    +0.086 C 
ATOM      5  C   UNL     1       0.716  -4.131  -1.255  0.00  0.00    -0.059 C 
ATOM      6  N   UNL     1       0.019  -4.661  -0.064  0.00  0.00    +0.387 N 
ATOM      7  H   UNL     1      -0.960  -4.352  -0.086  0.00  0.00    -0.081 HD
ENDROOT
BRANCH   3   8
ATOM      8  C   UNL     1       1.215  -0.689  -0.013  0.00  0.00    +0.060 A 
ATOM      9  C   UNL     1       0.002  -0.004   0.002  0.00  0.00    +0.026 A 
ATOM     10  C   UNL     1      -0.016   1.361   0.009  0.00  0.00    +0.010 A 
ATOM     11  C   UNL     1       1.187   2.079   0.002  0.00  0.00    -0.023 A 
ATOM     12  C   UNL     1       2.407   1.391  -0.014  0.00  0.00    +0.042 A 
ATOM     13  C   UNL     1       2.416   0.015  -0.021  0.00  0.00    +0.148 A 
BRANCH  13  14
ATOM     14  N   UNL     1       3.703  -0.716  -0.038  0.00  0.00    +0.058 N 
ATOM     15  O   UNL     1       4.754  -0.100  -0.046  0.00  0.00    -0.126 OA
ATOM     16  O   UNL     1       3.711  -1.934  -0.045  0.00  0.00    -0.126 OA
ENDBRANCH  13  14
BRANCH  11  17
ATOM     17  C   UNL     1       1.168   3.547   0.010  0.00  0.00    +0.015 C 
ATOM     18  C   UNL     1      -0.010   4.208   0.025  0.00  0.00    +0.096 C 
BRANCH  18  19
ATOM     19  C   UNL     1      -0.028   5.625   0.033  0.00  0.00    +0.380 C 
ATOM     20  O   UNL     1       1.018   6.247   0.026  0.00  0.00    -0.241 OA
ATOM     21  O   UNL     1      -1.205   6.285   0.047  0.00  0.00    -0.241 OA
ENDBRANCH  18  19
ENDBRANCH  11  17
ENDBRANCH   3   8
BRANCH   6  22
ATOM     22  C   UNL     1       0.057  -6.139  -0.071  0.00  0.00    +0.019 C 
BRANCH  22  30
ATOM     23  C   UNL     1      -0.602 -11.011   0.811  0.00  0.00    +0.009 C 
ATOM     24  C   UNL     1      -1.300  -9.917   0.001  0.00  0.00    +0.004 C 
ATOM     25  C   UNL     1      -2.049 -10.551  -1.174  0.00  0.00    +0.009 C 
ATOM     26  C   UNL     1      -2.775  -9.462  -1.966  0.00  0.00    +0.004 C 
ATOM     27  C   UNL     1      -1.747  -8.472  -2.525  0.00  0.00    +0.111 C 
ATOM     28  N   UNL     1      -0.926  -7.967  -1.417  0.00  0.00    -0.303 N 
ATOM     29  C   UNL     1      -0.251  -8.933  -0.540  0.00  0.00    +0.111 C 
ATOM     30  C   UNL     1      -0.789  -6.642  -1.212  0.00  0.00    +0.199 C 
ATOM     31  O   UNL     1      -1.347  -5.854  -1.947  0.00  0.00    -0.278 OA
ATOM     32  C   UNL     1      -3.747  -8.722  -1.045  0.00  0.00    +0.009 C 
ENDBRANCH  22  30
ENDBRANCH   6  22
TORSDOF 6
