REMARK  Name = ZINC20413820
REMARK  7 active torsions:
REMARK  status: ('A' for Active; 'I' for Inactive)
REMARK    1  A    between atoms: C_1  and  C_2
REMARK    2  A    between atoms: C_3  and  C_27
REMARK    3  A    between atoms: C_4  and  C_14
REMARK    4  A    between atoms: C_9  and  S_11
REMARK    5  A    between atoms: S_11  and  C_12
REMARK    6  A    between atoms: C_18  and  O_20
REMARK    7  A    between atoms: O_20  and  C_21
REMARK                            x       y       z     vdW  Elec       q    Type
REMARK                         _______ _______ _______ _____ _____    ______ ____
ROOT
ATOM      1  C   UNL     1      -4.959  11.107   2.271  0.00  0.00    +0.061 C 
ATOM      2  C   UNL     1      -4.289  10.632   1.007  0.00  0.00    +0.018 C 
ATOM      3  C   UNL     1      -3.049  10.128   1.081  0.00  0.00    +0.060 C 
ATOM      4  C   UNL     1      -2.297   9.616  -0.118  0.00  0.00    +0.177 C 
ATOM      5  N   UNL     1      -2.991  10.022  -1.337  0.00  0.00    -0.220 N 
ATOM      6  C   UNL     1      -4.245  10.538  -1.350  0.00  0.00    +0.219 A 
ATOM      7  N   UNL     1      -4.569  10.784  -2.590  0.00  0.00    -0.187 NA
ATOM      8  C   UNL     1      -3.551  10.447  -3.395  0.00  0.00    +0.210 A 
ATOM      9  N   UNL     1      -2.564   9.976  -2.664  0.00  0.00    -0.141 NA
ATOM     10  N   UNL     1      -4.969  10.730  -0.182  0.00  0.00    -0.287 N 
ATOM     11  H   UNL     1      -6.046  10.953  -0.182  0.00  0.00    +0.155 HD
ENDROOT
BRANCH   4  12
ATOM     12  C   UNL     1      -2.222   8.112  -0.060  0.00  0.00    -0.015 A 
ATOM     13  C   UNL     1      -3.385   7.362  -0.049  0.00  0.00    +0.006 A 
ATOM     14  C   UNL     1      -3.320   5.982   0.003  0.00  0.00    +0.004 A 
ATOM     15  C   UNL     1      -2.093   5.348   0.040  0.00  0.00    +0.046 A 
ATOM     16  C   UNL     1      -0.925   6.098   0.036  0.00  0.00    +0.129 A 
ATOM     17  C   UNL     1      -0.993   7.483  -0.018  0.00  0.00    +0.052 A 
BRANCH  16  18
ATOM     18  O   UNL     1       0.282   5.477   0.077  0.00  0.00    -0.456 OA
BRANCH  18  19
ATOM     19  C   UNL     1       0.748   4.910  -1.067  0.00  0.00    +0.128 A 
ATOM     20  C   UNL     1       2.013   4.339  -1.094  0.00  0.00    +0.046 A 
ATOM     21  C   UNL     1       2.484   3.764  -2.259  0.00  0.00    +0.004 A 
ATOM     22  C   UNL     1       1.697   3.757  -3.396  0.00  0.00    +0.000 A 
ATOM     23  C   UNL     1       0.439   4.331  -3.372  0.00  0.00    +0.004 A 
ATOM     24  C   UNL     1      -0.039   4.903  -2.209  0.00  0.00    +0.046 A 
ENDBRANCH  18  19
ENDBRANCH  16  18
ENDBRANCH   4  12
BRANCH   3  25
ATOM     25  C   UNL     1      -2.417  10.075   2.346  0.00  0.00    +0.241 C 
ATOM     26  O   UNL     1      -1.620  10.939   2.665  0.00  0.00    -0.271 OA
ATOM     27  N   UNL     1      -2.697   9.069   3.198  0.00  0.00    -0.325 N 
ATOM     28  H   UNL     1      -2.206   9.027   4.181  0.00  0.00    +0.145 HD
ATOM     29  H   UNL     1      -3.417   8.288   2.909  0.00  0.00    +0.145 HD
ENDBRANCH   3  25
BRANCH   8  30
ATOM     30  S   UNL     1      -3.538  10.606  -5.150  0.00  0.00    -0.088 S 
ATOM     31  C   UNL     1      -5.166  11.306  -5.539  0.00  0.00    +0.093 C 
ENDBRANCH   8  30
TORSDOF 5
