REMARK  Name = ZINC47873085
REMARK  5 active torsions:
REMARK  status: ('A' for Active; 'I' for Inactive)
REMARK    1  A    between atoms: C_6  and  O_7
REMARK    2  A    between atoms: O_7  and  C_8
REMARK    3  A    between atoms: C_8  and  C_9
REMARK    4  A    between atoms: N_11  and  N_12
REMARK    5  A    between atoms: C_13  and  C_15
REMARK                            x       y       z     vdW  Elec       q    Type
REMARK                         _______ _______ _______ _____ _____    ______ ____
ROOT
ATOM      1  O   UNL     1      -1.167  -0.698   0.010  0.00  0.00    -0.483 OA
ENDROOT
BRANCH   1   7
ATOM      2  C   UNL     1      -0.017   1.387   0.010  0.00  0.00    +0.049 A 
ATOM      3  C   UNL     1       1.160   2.105   0.002  0.00  0.00    +0.050 A 
ATOM      4  C   UNL     1       2.380   1.442  -0.014  0.00  0.00    +0.136 A 
ATOM      5  C   UNL     1       2.401   0.035  -0.022  0.00  0.00    +0.027 A 
ATOM      6  C   UNL     1       1.206  -0.682  -0.013  0.00  0.00    +0.057 A 
ATOM      7  C   UNL     1       0.002  -0.004   0.002  0.00  0.00    +0.122 A 
ATOM      8  C   UNL     1       3.817  -0.327  -0.040  0.00  0.00    +0.001 A 
ATOM      9  C   UNL     1       4.511   0.824  -0.040  0.00  0.00    +0.109 A 
ATOM     10  O   UNL     1       3.662   1.864  -0.025  0.00  0.00    -0.459 OA
ATOM     11  C   UNL     1       6.021   0.888  -0.055  0.00  0.00    +0.075 C 
ATOM     12  C   UNL     1       6.572  -0.482   0.355  0.00  0.00    +0.008 C 
ATOM     13  C   UNL     1       5.898  -1.575  -0.479  0.00  0.00    +0.005 C 
ATOM     14  C   UNL     1       4.429  -1.702  -0.056  0.00  0.00    +0.039 C 
ENDBRANCH   1   7
BRANCH   1  15
ATOM     15  C   UNL     1      -2.375   0.066   0.026  0.00  0.00    +0.326 C 
BRANCH  15  16
ATOM     16  C   UNL     1      -3.559  -0.867   0.032  0.00  0.00    +0.267 C 
ATOM     17  O   UNL     1      -3.385  -2.067   0.024  0.00  0.00    -0.271 OA
ATOM     18  N   UNL     1      -4.810  -0.367   0.047  0.00  0.00    -0.232 N 
ATOM     19  H   UNL     1      -4.949   0.593   0.053  0.00  0.00    +0.173 HD
BRANCH  18  20
ATOM     20  N   UNL     1      -5.911  -1.234   0.053  0.00  0.00    -0.232 N 
ATOM     21  C   UNL     1      -7.162  -0.734   0.068  0.00  0.00    +0.258 C 
ATOM     22  O   UNL     1      -7.336   0.467   0.076  0.00  0.00    -0.271 OA
ATOM     23  H   UNL     1      -5.772  -2.194   0.047  0.00  0.00    +0.173 HD
BRANCH  21  24
ATOM     24  C   UNL     1      -8.346  -1.666   0.074  0.00  0.00    +0.205 C 
ATOM     25  C   UNL     1      -8.393  -2.462  -1.248  0.00  0.00    +0.043 C 
ATOM     26  C   UNL     1      -9.915  -2.502  -1.554  0.00  0.00    +0.031 C 
ATOM     27  C   UNL     1     -10.363  -1.125  -1.003  0.00  0.00    +0.161 C 
ATOM     28  O   UNL     1      -9.559  -0.911   0.171  0.00  0.00    -0.367 OA
ENDBRANCH  21  24
ENDBRANCH  18  20
ENDBRANCH  15  16
ENDBRANCH   1  15
TORSDOF 5
