REMARK  Name = ZINC08801008
REMARK  7 active torsions:
REMARK  status: ('A' for Active; 'I' for Inactive)
REMARK    1  A    between atoms: C_1  and  N_2
REMARK    2  A    between atoms: C_9  and  C_11
REMARK    3  A    between atoms: C_11  and  C_13
REMARK    4  A    between atoms: C_11  and  N_60
REMARK    5  A    between atoms: C_13  and  N_14
REMARK    6  A    between atoms: N_14  and  S_15
REMARK    7  A    between atoms: S_15  and  C_18
REMARK                            x       y       z     vdW  Elec       q    Type
REMARK                         _______ _______ _______ _____ _____    ______ ____
ROOT
ATOM      1  C   UNL     1       5.438  -0.381  -3.713  0.00  0.00    -0.022 C 
ENDROOT
BRANCH   1  10
ATOM      2  C   UNL     1       4.682   5.196  -6.892  0.00  0.00    +0.129 C 
ATOM      3  N   UNL     1       5.863   4.324  -6.849  0.00  0.00    -0.332 N 
ATOM      4  C   UNL     1       7.000   5.003  -6.191  0.00  0.00    +0.109 C 
ATOM      5  C   UNL     1       7.762   3.829  -5.535  0.00  0.00    +0.056 C 
ATOM      6  C   UNL     1       6.677   2.789  -5.343  0.00  0.00    -0.025 A 
ATOM      7  C   UNL     1       5.594   3.149  -6.136  0.00  0.00    +0.033 A 
ATOM      8  C   UNL     1       4.453   2.349  -6.128  0.00  0.00    +0.023 A 
ATOM      9  C   UNL     1       4.409   1.211  -5.349  0.00  0.00    +0.004 A 
ATOM     10  C   UNL     1       5.492   0.862  -4.564  0.00  0.00    -0.059 A 
ATOM     11  C   UNL     1       6.627   1.652  -4.564  0.00  0.00    +0.007 A 
ENDBRANCH   1  10
BRANCH   1  16
ATOM     12  C   UNL     1       5.564  -1.577  -5.830  0.00  0.00    -0.078 C 
ATOM     13  C   UNL     1       5.282  -3.034  -6.278  0.00  0.00    -0.020 C 
ATOM     14  C   UNL     1       5.389  -3.828  -4.956  0.00  0.00    -0.020 C 
ATOM     15  C   UNL     1       5.154  -2.791  -3.843  0.00  0.00    -0.078 C 
ATOM     16  N   UNL     1       4.899  -1.518  -4.519  0.00  0.00    +0.385 N 
ATOM     17  H   UNL     1       3.888  -1.390  -4.648  0.00  0.00    -0.081 HD
ENDBRANCH   1  16
BRANCH   1  18
ATOM     18  C   UNL     1       4.537  -0.132  -2.502  0.00  0.00    +0.095 C 
BRANCH  18  19
ATOM     19  N   UNL     1       4.592  -1.290  -1.606  0.00  0.00    -0.191 NA
ATOM     20  H   UNL     1       4.969  -2.127  -1.918  0.00  0.00    +0.148 HD
BRANCH  19  21
ATOM     21  S   UNL     1       4.009  -1.169  -0.061  0.00  0.00    +0.058 S 
ATOM     22  O   UNL     1       4.572   0.012   0.494  0.00  0.00    -0.153 OA
ATOM     23  O   UNL     1       4.177  -2.447   0.538  0.00  0.00    -0.153 OA
BRANCH  21  24
ATOM     24  C   UNL     1       2.273  -0.893  -0.179  0.00  0.00    +0.109 A 
ATOM     25  C   UNL     1       1.403  -1.967  -0.204  0.00  0.00    +0.032 A 
ATOM     26  C   UNL     1       0.041  -1.754  -0.298  0.00  0.00    +0.051 A 
ATOM     27  C   UNL     1      -0.457  -0.462  -0.368  0.00  0.00    +0.162 A 
ATOM     28  C   UNL     1       0.417   0.618  -0.340  0.00  0.00    +0.164 A 
ATOM     29  C   UNL     1       1.783   0.398  -0.246  0.00  0.00    +0.078 A 
ATOM     30  O   UNL     1      -0.051   1.895  -0.398  0.00  0.00    -0.485 OA
ATOM     31  C   UNL     1      -1.393   2.067  -0.868  0.00  0.00    +0.270 C 
ATOM     32  C   UNL     1      -2.287   1.042  -0.156  0.00  0.00    +0.270 C 
ATOM     33  O   UNL     1      -1.801  -0.268  -0.470  0.00  0.00    -0.485 OA
ENDBRANCH  21  24
ENDBRANCH  19  21
ENDBRANCH  18  19
ENDBRANCH   1  18
TORSDOF 6
