REMARK  Name = ZINC05041697
REMARK  6 active torsions:
REMARK  status: ('A' for Active; 'I' for Inactive)
REMARK    1  A    between atoms: C_3  and  C_6
REMARK    2  A    between atoms: C_6  and  N_7
REMARK    3  A    between atoms: N_7  and  C_8
REMARK    4  A    between atoms: C_8  and  N_10
REMARK    5  A    between atoms: N_10  and  C_11
REMARK    6  A    between atoms: C_14  and  N_20
REMARK                            x       y       z     vdW  Elec       q    Type
REMARK                         _______ _______ _______ _____ _____    ______ ____
ROOT
ATOM      1  C   UNL     1       1.298  -0.674  -0.023  0.00  0.00    +0.064 A 
ATOM      2  C   UNL     1       2.368   0.067  -0.429  0.00  0.00    +0.027 A 
ATOM      3  C   UNL     1       2.350   1.462  -0.449  0.00  0.00    +0.027 A 
ATOM      4  C   UNL     1       1.262   2.187  -0.062  0.00  0.00    +0.061 A 
ATOM      5  C   UNL     1       0.066   1.489   0.390  0.00  0.00    +0.157 A 
ATOM      6  C   UNL     1       0.085   0.004   0.410  0.00  0.00    +0.157 A 
ATOM      7  N   UNL     1      -1.108  -0.294   0.854  0.00  0.00    -0.047 NA
ATOM      8  O   UNL     1      -1.723   0.733   1.062  0.00  0.00    -0.241 OA
ATOM      9  N   UNL     1      -1.132   1.770   0.830  0.00  0.00    -0.047 NA
ENDROOT
BRANCH   4  10
ATOM     10  N   UNL     1       1.294   3.582  -0.100  0.00  0.00    -0.324 N 
ATOM     11  C   UNL     1       1.454   4.068  -1.478  0.00  0.00    +0.133 C 
ATOM     12  C   UNL     1       1.423   5.598  -1.480  0.00  0.00    +0.178 C 
ATOM     13  O   UNL     1       2.445   6.092  -0.610  0.00  0.00    -0.377 OA
ATOM     14  C   UNL     1       2.320   5.638   0.741  0.00  0.00    +0.178 C 
ATOM     15  C   UNL     1       2.359   4.108   0.765  0.00  0.00    +0.133 C 
ENDBRANCH   4  10
BRANCH   1  16
ATOM     16  N   UNL     1       1.366  -2.071  -0.022  0.00  0.00    -0.295 N 
ATOM     17  H   UNL     1       0.624  -2.593  -0.366  0.00  0.00    +0.154 HD
BRANCH  16  18
ATOM     18  C   UNL     1       2.461  -2.692   0.458  0.00  0.00    +0.135 C 
ATOM     19  S   UNL     1       3.709  -1.780   1.194  0.00  0.00    -0.019 S 
BRANCH  18  20
ATOM     20  N   UNL     1       2.574  -4.032   0.359  0.00  0.00    -0.319 N 
ATOM     21  H   UNL     1       1.867  -4.549  -0.058  0.00  0.00    +0.148 HD
BRANCH  20  22
ATOM     22  C   UNL     1       3.765  -4.707   0.881  0.00  0.00    +0.177 C 
BRANCH  22  25
ATOM     23  C   UNL     1       3.756  -8.217  -0.244  0.00  0.00    +0.041 A 
ATOM     24  C   UNL     1       4.069  -6.853  -0.444  0.00  0.00    +0.046 A 
ATOM     25  C   UNL     1       3.643  -6.191   0.647  0.00  0.00    +0.122 A 
ATOM     26  O   UNL     1       3.098  -7.078   1.495  0.00  0.00    -0.466 OA
ATOM     27  C   UNL     1       3.158  -8.307   0.958  0.00  0.00    +0.195 A 
ENDBRANCH  22  25
ENDBRANCH  20  22
ENDBRANCH  18  20
ENDBRANCH  16  18
ENDBRANCH   1  16
TORSDOF 6
