REMARK  Name = ZINC35020376
REMARK  4 active torsions:
REMARK  status: ('A' for Active; 'I' for Inactive)
REMARK    1  A    between atoms: C_1  and  C_2
REMARK    2  A    between atoms: C_2  and  C_4
REMARK    3  A    between atoms: C_2  and  N_13
REMARK    4  A    between atoms: C_4  and  C_6
REMARK                            x       y       z     vdW  Elec       q    Type
REMARK                         _______ _______ _______ _____ _____    ______ ____
ROOT
ATOM      1  C   UNL     1      -0.107   1.520   0.072  0.00  0.00    -0.005 C 
ATOM      2  C   UNL     1       0.002  -0.004   0.002  0.00  0.00    +0.001 C 
ENDROOT
BRANCH   2   3
ATOM      3  N   UNL     1       0.814  -0.489   1.126  0.00  0.00    +0.386 N 
ATOM      4  C   UNL     1       2.120   0.198   1.098  0.00  0.00    -0.078 C 
ATOM      5  C   UNL     1       2.690   0.190   2.494  0.00  0.00    -0.019 C 
ATOM      6  C   UNL     1       3.669  -0.981   2.697  0.00  0.00    -0.002 C 
ATOM      7  C   UNL     1       3.157  -2.276   2.035  0.00  0.00    -0.002 C 
ATOM      8  C   UNL     1       1.677  -2.479   2.238  0.00  0.00    -0.019 C 
ATOM      9  C   UNL     1       0.917  -1.878   1.038  0.00  0.00    -0.078 C 
ATOM     10  H   UNL     1       0.345  -0.253   1.988  0.00  0.00    -0.081 HD
ENDBRANCH   2   3
BRANCH   2  11
ATOM     11  C   UNL     1      -1.376  -0.610   0.079  0.00  0.00    +0.150 C 
ATOM     12  O   UNL     1      -1.781  -1.062   1.128  0.00  0.00    -0.294 OA
BRANCH  11  13
ATOM     13  C   UNL     1      -2.228  -0.653  -1.119  0.00  0.00    +0.016 A 
ATOM     14  C   UNL     1      -1.762  -0.137  -2.333  0.00  0.00    +0.012 A 
ATOM     15  C   UNL     1      -2.566  -0.181  -3.451  0.00  0.00    +0.016 A 
ATOM     16  C   UNL     1      -3.834  -0.734  -3.375  0.00  0.00    +0.018 A 
ATOM     17  C   UNL     1      -4.303  -1.246  -2.177  0.00  0.00    +0.016 A 
ATOM     18  C   UNL     1      -3.508  -1.215  -1.051  0.00  0.00    +0.012 A 
ATOM     19 BR   UNL     1      -4.930  -0.788  -4.915  0.00  0.00    -0.050 Br
ENDBRANCH  11  13
ENDBRANCH   2  11
TORSDOF 3
