REMARK  Name = ZINC01452524
REMARK  7 active torsions:
REMARK  status: ('A' for Active; 'I' for Inactive)
REMARK    1  A    between atoms: C_1  and  C_2
REMARK    2  A    between atoms: C_6  and  N_8
REMARK    3  A    between atoms: N_8  and  C_9
REMARK    4  A    between atoms: C_9  and  C_11
REMARK    5  A    between atoms: C_9  and  N_15
REMARK    6  A    between atoms: C_16  and  C_18
REMARK    7  A    between atoms: C_21  and  N_24
REMARK                            x       y       z     vdW  Elec       q    Type
REMARK                         _______ _______ _______ _____ _____    ______ ____
ROOT
ATOM      1  C   UNL     1      -0.008   0.014   0.016  0.00  0.00    +0.210 C 
ENDROOT
BRANCH   1   2
ATOM      2  C   UNL     1       0.087   1.540  -0.025  0.00  0.00    +0.225 C 
ATOM      3 CL   UNL     1       1.818   2.032  -0.125  0.00  0.00    -0.080 Cl
ATOM      4 CL   UNL     1      -0.798   2.159  -1.469  0.00  0.00    -0.080 Cl
ATOM      5 CL   UNL     1      -0.648   2.228   1.471  0.00  0.00    -0.080 Cl
ENDBRANCH   1   2
BRANCH   1   6
ATOM      6  N   UNL     1       0.589  -0.545  -1.200  0.00  0.00    -0.290 N 
ATOM      7  C   UNL     1      -0.044  -1.529  -1.870  0.00  0.00    +0.246 C 
ATOM      8  O   UNL     1      -1.109  -1.952  -1.466  0.00  0.00    -0.270 OA
ATOM      9  H   UNL     1       1.439  -0.208  -1.522  0.00  0.00    +0.151 HD
BRANCH   7  10
ATOM     10  C   UNL     1       0.559  -2.093  -3.097  0.00  0.00    +0.037 A 
ATOM     11  C   UNL     1       1.779  -1.606  -3.566  0.00  0.00    +0.015 A 
ATOM     12  C   UNL     1       2.339  -2.141  -4.708  0.00  0.00    +0.033 A 
ATOM     13  C   UNL     1       1.687  -3.150  -5.394  0.00  0.00    +0.126 A 
ATOM     14  C   UNL     1       0.474  -3.634  -4.937  0.00  0.00    +0.033 A 
ATOM     15  C   UNL     1      -0.093  -3.112  -3.793  0.00  0.00    +0.015 A 
BRANCH  13  16
ATOM     16  N   UNL     1       2.291  -3.716  -6.622  0.00  0.00    +0.056 N 
ATOM     17  O   UNL     1       1.719  -4.605  -7.227  0.00  0.00    -0.126 OA
ATOM     18  O   UNL     1       3.358  -3.292  -7.026  0.00  0.00    -0.126 OA
ENDBRANCH  13  16
ENDBRANCH   7  10
ENDBRANCH   1   6
BRANCH   1  19
ATOM     19  N   UNL     1       0.711  -0.489   1.189  0.00  0.00    -0.323 N 
ATOM     20  H   UNL     1       1.591  -0.143   1.403  0.00  0.00    +0.148 HD
BRANCH  19  26
ATOM     21  C   UNL     1       0.845  -3.242   5.258  0.00  0.00    +0.044 C 
ATOM     22  C   UNL     1       0.172  -2.821   3.977  0.00  0.00    -0.049 A 
ATOM     23  C   UNL     1      -1.025  -3.405   3.603  0.00  0.00    +0.003 A 
ATOM     24  C   UNL     1      -1.646  -3.022   2.428  0.00  0.00    +0.002 A 
ATOM     25  C   UNL     1      -1.075  -2.052   1.627  0.00  0.00    +0.023 A 
ATOM     26  C   UNL     1       0.129  -1.468   1.998  0.00  0.00    +0.029 A 
ATOM     27  C   UNL     1       0.750  -1.854   3.179  0.00  0.00    +0.026 A 
ENDBRANCH  19  26
ENDBRANCH   1  19
TORSDOF 6
