REMARK  Name = ZINC01365154
REMARK  10 active torsions:
REMARK  status: ('A' for Active; 'I' for Inactive)
REMARK    1  A    between atoms: C_1  and  C_2
REMARK    2  A    between atoms: C_3  and  C_8
REMARK    3  A    between atoms: C_5  and  C_7
REMARK    4  A    between atoms: N_10  and  C_11
REMARK    5  A    between atoms: N_10  and  C_21
REMARK    6  A    between atoms: C_21  and  C_23
REMARK    7  A    between atoms: C_21  and  C_31
REMARK    8  A    between atoms: C_26  and  O_29
REMARK    9  A    between atoms: O_29  and  C_30
REMARK   10  A    between atoms: N_33  and  C_34
REMARK                            x       y       z     vdW  Elec       q    Type
REMARK                         _______ _______ _______ _____ _____    ______ ____
ROOT
ATOM      1  C   UNL     1      -0.579  -0.220  -3.731  0.00  0.00    +0.260 C 
ATOM      2  O   UNL     1      -0.944   0.879  -3.354  0.00  0.00    -0.269 OA
ATOM      3  N   UNL     1      -0.664  -1.279  -2.901  0.00  0.00    -0.251 N 
ENDROOT
BRANCH   3   4
ATOM      4  C   UNL     1      -1.301  -1.147  -1.661  0.00  0.00    +0.041 A 
ATOM      5  C   UNL     1      -1.297  -2.206  -0.762  0.00  0.00    +0.027 A 
ATOM      6  C   UNL     1      -1.926  -2.077   0.460  0.00  0.00    +0.051 A 
ATOM      7  C   UNL     1      -2.564  -0.892   0.795  0.00  0.00    +0.162 A 
ATOM      8  C   UNL     1      -2.569   0.170  -0.102  0.00  0.00    +0.164 A 
ATOM      9  C   UNL     1      -1.933   0.042  -1.328  0.00  0.00    +0.073 A 
ATOM     10  O   UNL     1      -3.182   1.344   0.211  0.00  0.00    -0.485 OA
ATOM     11  C   UNL     1      -4.121   1.312   1.292  0.00  0.00    +0.270 C 
ATOM     12  C   UNL     1      -3.486   0.539   2.456  0.00  0.00    +0.270 C 
ATOM     13  O   UNL     1      -3.183  -0.785   2.003  0.00  0.00    -0.485 OA
ENDBRANCH   3   4
BRANCH   1  16
ATOM     14  C   UNL     1      -1.626   1.128  -6.332  0.00  0.00    +0.067 C 
ATOM     15  C   UNL     1      -0.462   0.173  -6.273  0.00  0.00    +0.058 A 
ATOM     16  C   UNL     1      -0.047  -0.391  -5.086  0.00  0.00    +0.097 A 
ATOM     17  S   UNL     1       1.319  -1.388  -5.659  0.00  0.00    -0.067 S 
ATOM     18  C   UNL     1       1.223  -0.996  -7.293  0.00  0.00    +0.076 A 
ATOM     19  N   UNL     1       0.205  -0.168  -7.348  0.00  0.00    -0.249 NA
ATOM     20  C   UNL     1       2.093  -1.483  -8.423  0.00  0.00    +0.073 C 
ENDBRANCH   1  16
BRANCH   3  21
ATOM     21  C   UNL     1      -0.090  -2.567  -3.297  0.00  0.00    +0.197 C 
BRANCH  21  22
ATOM     22  C   UNL     1       1.097  -2.878  -2.422  0.00  0.00    -0.018 A 
ATOM     23  C   UNL     1       1.386  -2.069  -1.339  0.00  0.00    +0.009 A 
ATOM     24  C   UNL     1       2.474  -2.352  -0.535  0.00  0.00    +0.046 A 
ATOM     25  C   UNL     1       3.276  -3.449  -0.816  0.00  0.00    +0.120 A 
ATOM     26  C   UNL     1       2.983  -4.259  -1.903  0.00  0.00    +0.046 A 
ATOM     27  C   UNL     1       1.891  -3.975  -2.701  0.00  0.00    +0.009 A 
BRANCH  25  28
ATOM     28  O   UNL     1       4.347  -3.729  -0.027  0.00  0.00    -0.495 OA
ATOM     29  C   UNL     1       5.128  -4.873  -0.376  0.00  0.00    +0.277 C 
ENDBRANCH  25  28
ENDBRANCH  21  22
BRANCH  21  30
ATOM     30  C   UNL     1      -1.127  -3.649  -3.140  0.00  0.00    +0.239 C 
ATOM     31  O   UNL     1      -2.237  -3.371  -2.737  0.00  0.00    -0.273 OA
ATOM     32  N   UNL     1      -0.822  -4.925  -3.447  0.00  0.00    -0.311 N 
ATOM     33  H   UNL     1       0.066  -5.147  -3.769  0.00  0.00    +0.149 HD
BRANCH  32  34
ATOM     34  C   UNL     1      -1.830  -5.977  -3.294  0.00  0.00    +0.073 C 
ATOM     35  C   UNL     1      -1.829  -6.479  -1.849  0.00  0.00    +0.022 C 
ATOM     36  C   UNL     1      -2.881  -7.577  -1.689  0.00  0.00    +0.002 C 
ATOM     37  C   UNL     1      -2.556  -8.737  -2.632  0.00  0.00    +0.000 C 
ATOM     38  C   UNL     1      -2.557  -8.235  -4.077  0.00  0.00    +0.002 C 
ATOM     39  C   UNL     1      -1.504  -7.137  -4.237  0.00  0.00    +0.022 C 
ENDBRANCH  32  34
ENDBRANCH  21  30
ENDBRANCH   3  21
TORSDOF 7
