REMARK  Name = ZINC50957745
REMARK  1 active torsions:
REMARK  status: ('A' for Active; 'I' for Inactive)
REMARK    1  A    between atoms: C_5  and  C_7
REMARK                            x       y       z     vdW  Elec       q    Type
REMARK                         _______ _______ _______ _____ _____    ______ ____
ROOT
ATOM      1  C   UNL     1      -0.043   1.359   0.156  0.00  0.00    +0.001 A 
ATOM      2  C   UNL     1       1.121   2.088  -0.020  0.00  0.00    +0.005 A 
ATOM      3  C   UNL     1       2.334   1.449  -0.197  0.00  0.00    -0.026 A 
ATOM      4  C   UNL     1       2.386   0.063  -0.196  0.00  0.00    +0.043 A 
ATOM      5  C   UNL     1       1.208  -0.681  -0.019  0.00  0.00    +0.058 A 
ATOM      6  C   UNL     1      -0.009  -0.018   0.157  0.00  0.00    +0.015 A 
ATOM      7  N   UNL     1       3.592  -0.609  -0.363  0.00  0.00    -0.343 N 
ATOM      8  C   UNL     1       4.763   0.139  -0.841  0.00  0.00    +0.102 C 
ATOM      9  C   UNL     1       4.824   1.462  -0.067  0.00  0.00    +0.023 C 
ATOM     10  C   UNL     1       3.575   2.281  -0.391  0.00  0.00    +0.038 C 
ATOM     11  H   UNL     1       3.660  -1.556  -0.166  0.00  0.00    +0.146 HD
ENDROOT
BRANCH   5  12
ATOM     12  C   UNL     1       1.255  -2.155  -0.020  0.00  0.00    +0.248 C 
ATOM     13  O   UNL     1       1.718  -2.748  -0.976  0.00  0.00    -0.270 OA
ATOM     14  N   UNL     1       0.784  -2.845   1.038  0.00  0.00    -0.294 N 
ATOM     15  C   UNL     1       0.139  -2.129   2.140  0.00  0.00    +0.130 C 
ATOM     16  C   UNL     1      -1.336  -2.535   2.219  0.00  0.00    +0.185 C 
ATOM     17  S   UNL     1      -1.438  -4.336   2.440  0.00  0.00    -0.028 S 
ATOM     18  O   UNL     1      -2.789  -4.737   2.264  0.00  0.00    -0.174 OA
ATOM     19  O   UNL     1      -0.764  -4.682   3.643  0.00  0.00    -0.174 OA
ATOM     20  C   UNL     1      -0.465  -4.949   1.033  0.00  0.00    +0.185 C 
ATOM     21  C   UNL     1       0.918  -4.302   1.069  0.00  0.00    +0.130 C 
ENDBRANCH   5  12
TORSDOF 1
