REMARK  Name = ZINC11857445
REMARK  3 active torsions:
REMARK  status: ('A' for Active; 'I' for Inactive)
REMARK    1  A    between atoms: C_4  and  S_7
REMARK    2  A    between atoms: S_7  and  N_10
REMARK    3  A    between atoms: C_13  and  C_16
REMARK                            x       y       z     vdW  Elec       q    Type
REMARK                         _______ _______ _______ _____ _____    ______ ____
ROOT
ATOM      1  N   UNL     1      -2.705   5.468  -0.150  0.00  0.00    -0.194 N 
ATOM      2  C   UNL     1      -2.482   4.103  -0.065  0.00  0.00    +0.178 A 
ATOM      3  N   UNL     1      -1.339   3.443  -0.067  0.00  0.00    -0.224 NA
ATOM      4  C   UNL     1      -1.311   2.115   0.020  0.00  0.00    +0.080 A 
ATOM      5  C   UNL     1      -2.486   1.427   0.124  0.00  0.00    +0.077 A 
ATOM      6  S   UNL     1      -3.664   2.772   0.086  0.00  0.00    -0.059 S 
ATOM      7  H   UNL     1      -1.956   6.078  -0.229  0.00  0.00    +0.176 HD
ENDROOT
BRANCH   4   8
ATOM      8  C   UNL     1      -0.017   1.390   0.010  0.00  0.00    +0.003 A 
ATOM      9  C   UNL     1       0.002  -0.004   0.002  0.00  0.00    +0.014 A 
ATOM     10  C   UNL     1       1.206  -0.681  -0.014  0.00  0.00    +0.048 A 
ATOM     11  C   UNL     1       2.398   0.024  -0.022  0.00  0.00    +0.142 A 
ATOM     12  C   UNL     1       2.385   1.419  -0.013  0.00  0.00    +0.076 A 
ATOM     13  C   UNL     1       1.182   2.102   0.002  0.00  0.00    +0.037 A 
ATOM     14  N   UNL     1       3.602   2.116  -0.019  0.00  0.00    -0.280 N 
ATOM     15  C   UNL     1       4.733   1.456  -0.351  0.00  0.00    +0.255 C 
ATOM     16  O   UNL     1       5.800   2.031  -0.335  0.00  0.00    -0.272 OA
ATOM     17  C   UNL     1       4.662   0.002  -0.741  0.00  0.00    +0.325 C 
ATOM     18  O   UNL     1       3.589  -0.632  -0.040  0.00  0.00    -0.481 OA
ATOM     19  H   UNL     1       3.631   3.058   0.211  0.00  0.00    +0.155 HD
ENDBRANCH   4   8
BRANCH   1  20
ATOM     20  S   UNL     1      -4.253   6.057  -0.117  0.00  0.00    +0.074 S 
ATOM     21  O   UNL     1      -4.150   7.472  -0.195  0.00  0.00    -0.150 OA
ATOM     22  O   UNL     1      -4.998   5.294  -1.057  0.00  0.00    -0.150 OA
BRANCH  20  26
ATOM     23  C   UNL     1      -5.961   5.106   3.965  0.00  0.00    +0.000 A 
ATOM     24  C   UNL     1      -5.293   6.298   3.756  0.00  0.00    +0.002 A 
ATOM     25  C   UNL     1      -4.771   6.588   2.510  0.00  0.00    +0.029 A 
ATOM     26  C   UNL     1      -4.918   5.687   1.472  0.00  0.00    +0.109 A 
ATOM     27  C   UNL     1      -5.591   4.497   1.679  0.00  0.00    +0.029 A 
ATOM     28  C   UNL     1      -6.108   4.204   2.928  0.00  0.00    +0.002 A 
ENDBRANCH  20  26
ENDBRANCH   1  20
TORSDOF 3
