REMARK  Name = ZINC48105098
REMARK  5 active torsions:
REMARK  status: ('A' for Active; 'I' for Inactive)
REMARK    1  A    between atoms: C_1  and  C_2
REMARK    2  A    between atoms: C_5  and  N_12
REMARK    3  A    between atoms: N_9  and  C_11
REMARK    4  A    between atoms: N_15  and  C_16
REMARK    5  A    between atoms: C_21  and  C_24
REMARK                            x       y       z     vdW  Elec       q    Type
REMARK                         _______ _______ _______ _____ _____    ______ ____
ROOT
ATOM      1  N   UNL     1      -0.001  -1.520  -4.802  0.00  0.00    -0.268 N 
ATOM      2  C   UNL     1       0.111  -2.581  -5.625  0.00  0.00    +0.304 C 
ATOM      3  O   UNL     1       0.129  -3.707  -5.167  0.00  0.00    -0.253 OA
ATOM      4  N   UNL     1       0.204  -2.393  -6.957  0.00  0.00    -0.296 N 
ATOM      5  H   UNL     1      -0.083  -0.626  -5.170  0.00  0.00    +0.156 HD
ATOM      6  H   UNL     1       0.189  -1.495  -7.322  0.00  0.00    +0.151 HD
ENDROOT
BRANCH   1  11
ATOM      7  C   UNL     1      -1.778  -5.247  -0.897  0.00  0.00    +0.068 C 
ATOM      8  C   UNL     1      -1.044  -3.982  -0.533  0.00  0.00    +0.069 A 
ATOM      9  C   UNL     1      -0.553  -2.973  -1.465  0.00  0.00    +0.043 A 
ATOM     10  C   UNL     1      -0.584  -2.834  -2.857  0.00  0.00    +0.038 A 
ATOM     11  C   UNL     1       0.002  -1.708  -3.412  0.00  0.00    +0.054 A 
ATOM     12  C   UNL     1       0.595  -0.763  -2.575  0.00  0.00    +0.136 A 
ATOM     13  N   UNL     1       0.611  -0.917  -1.270  0.00  0.00    -0.234 NA
ATOM     14  C   UNL     1       0.065  -1.976  -0.685  0.00  0.00    +0.158 A 
ATOM     15  N   UNL     1      -0.054  -2.372   0.621  0.00  0.00    -0.249 N 
ATOM     16  N   UNL     1      -0.738  -3.591   0.671  0.00  0.00    -0.174 NA
ATOM     17  C   UNL     1       0.450  -1.634   1.782  0.00  0.00    +0.174 C 
ENDBRANCH   1  11
BRANCH   4  18
ATOM     18  C   UNL     1       0.325  -3.546  -7.852  0.00  0.00    +0.075 C 
ATOM     19  C   UNL     1       1.795  -3.958  -7.956  0.00  0.00    +0.022 C 
ATOM     20  C   UNL     1       1.922  -5.163  -8.891  0.00  0.00    +0.002 C 
ATOM     21  C   UNL     1       1.398  -4.788 -10.279  0.00  0.00    +0.012 C 
ATOM     22  C   UNL     1      -0.072  -4.377 -10.175  0.00  0.00    +0.095 C 
ATOM     23  C   UNL     1      -0.199  -3.172  -9.240  0.00  0.00    +0.034 C 
BRANCH  22  24
ATOM     24  C   UNL     1      -0.596  -4.002 -11.563  0.00  0.00    +0.393 C 
ATOM     25  F   UNL     1      -0.480  -5.104 -12.418  0.00  0.00    -0.170 F 
ATOM     26  F   UNL     1      -1.940  -3.626 -11.467  0.00  0.00    -0.170 F 
ATOM     27  F   UNL     1       0.152  -2.936 -12.072  0.00  0.00    -0.170 F 
ENDBRANCH  22  24
ENDBRANCH   4  18
TORSDOF 3
