REMARK  Name = ZINC29064895
REMARK  10 active torsions:
REMARK  status: ('A' for Active; 'I' for Inactive)
REMARK    1  A    between atoms: C_1  and  C_2
REMARK    2  A    between atoms: C_7  and  N_8
REMARK    3  A    between atoms: C_9  and  C_11
REMARK    4  A    between atoms: C_11  and  N_12
REMARK    5  A    between atoms: N_12  and  C_13
REMARK    6  A    between atoms: N_12  and  C_14
REMARK    7  A    between atoms: C_14  and  C_16
REMARK    8  A    between atoms: C_14  and  C_17
REMARK    9  A    between atoms: N_19  and  C_20
REMARK   10  A    between atoms: C_22  and  C_25
REMARK                            x       y       z     vdW  Elec       q    Type
REMARK                         _______ _______ _______ _____ _____    ______ ____
ROOT
ATOM      1  N   UNL     1       1.363   1.608  -0.011  0.00  0.00    +0.391 N 
ATOM      2  C   UNL     1       1.391   3.077  -0.024  0.00  0.00    -0.094 C 
ATOM      3  H   UNL     1       1.847   1.268   0.916  0.00  0.00    -0.080 HD
ENDROOT
BRANCH   1   4
ATOM      4  C   UNL     1      -0.019   1.108  -0.007  0.00  0.00    +0.017 C 
ATOM      5  C   UNL     1      -0.751   1.624  -1.248  0.00  0.00    -0.004 C 
BRANCH   4   6
ATOM      6  C   UNL     1      -0.725   1.595   1.232  0.00  0.00    +0.206 C 
ATOM      7  O   UNL     1      -0.136   2.289   2.032  0.00  0.00    -0.277 OA
ATOM      8  N   UNL     1      -2.012   1.258   1.450  0.00  0.00    -0.256 N 
ATOM      9  H   UNL     1      -2.546   0.628   0.723  0.00  0.00    +0.158 HD
BRANCH   8  10
ATOM     10  C   UNL     1      -2.663   1.706   2.590  0.00  0.00    +0.224 A 
ATOM     11  C   UNL     1      -3.955   1.452   2.949  0.00  0.00    +0.092 A 
ATOM     12  C   UNL     1      -4.106   2.131   4.175  0.00  0.00    +0.082 A 
ATOM     13  N   UNL     1      -2.961   2.699   4.428  0.00  0.00    -0.081 NA
ATOM     14  O   UNL     1      -2.146   2.471   3.564  0.00  0.00    -0.339 OA
ATOM     15  C   UNL     1      -5.348   2.189   5.026  0.00  0.00    +0.069 C 
ENDBRANCH   8  10
ENDBRANCH   4   6
ENDBRANCH   1   4
BRANCH   1  16
ATOM     16  C   UNL     1       2.119   1.057  -1.144  0.00  0.00    +0.020 C 
BRANCH  16  18
ATOM     17  N   UNL     1       4.470   0.982  -1.908  0.00  0.00    -0.287 N 
ATOM     18  C   UNL     1       3.580   1.389  -0.982  0.00  0.00    +0.201 C 
ATOM     19  O   UNL     1       3.954   2.021  -0.017  0.00  0.00    -0.278 OA
ATOM     20  H   UNL     1       4.146   0.332  -2.735  0.00  0.00    +0.155 HD
BRANCH  17  27
ATOM     21  C   UNL     1       6.454  -0.659  -3.120  0.00  0.00    +0.046 C 
ATOM     22  C   UNL     1       6.807   0.616  -2.397  0.00  0.00    -0.028 A 
ATOM     23  C   UNL     1       8.125   1.020  -2.312  0.00  0.00    +0.020 A 
ATOM     24  C   UNL     1       8.450   2.187  -1.643  0.00  0.00    +0.018 A 
ATOM     25  C   UNL     1       7.456   2.954  -1.062  0.00  0.00    +0.017 A 
ATOM     26  C   UNL     1       6.136   2.558  -1.149  0.00  0.00    +0.024 A 
ATOM     27  C   UNL     1       5.807   1.387  -1.819  0.00  0.00    +0.036 A 
ATOM     28 BR   UNL     1      10.256   2.733  -1.522  0.00  0.00    -0.050 Br
ENDBRANCH  17  27
ENDBRANCH  16  18
ENDBRANCH   1  16
TORSDOF 6
