REMARK  Name = ZINC09128979
REMARK  2 active torsions:
REMARK  status: ('A' for Active; 'I' for Inactive)
REMARK    1  A    between atoms: C_1  and  C_2
REMARK    2  A    between atoms: N_25  and  C_28
REMARK                            x       y       z     vdW  Elec       q    Type
REMARK                         _______ _______ _______ _____ _____    ______ ____
ROOT
ATOM      1  C   UNL     1       2.473   3.907  -0.001  0.00  0.00    +0.044 C 
ATOM      2  C   UNL     1       1.160   3.167   0.008  0.00  0.00    -0.050 A 
ATOM      3  C   UNL     1       1.156   1.774   0.001  0.00  0.00    +0.005 A 
ATOM      4  C   UNL     1      -0.013   1.076   0.008  0.00  0.00    +0.026 A 
ATOM      5  C   UNL     1      -1.238   1.764   0.018  0.00  0.00    +0.048 A 
ATOM      6  C   UNL     1      -1.230   3.181   0.030  0.00  0.00    -0.001 A 
ATOM      7  C   UNL     1      -0.007   3.869   0.022  0.00  0.00    +0.013 A 
ATOM      8  C   UNL     1      -2.459   3.865   0.045  0.00  0.00    +0.017 A 
ATOM      9  C   UNL     1      -3.616   3.138   0.053  0.00  0.00    -0.007 A 
ATOM     10  C   UNL     1      -3.567   1.740   0.041  0.00  0.00    +0.103 A 
ATOM     11  N   UNL     1      -4.706   0.953   0.033  0.00  0.00    -0.312 N 
ATOM     12  C   UNL     1      -4.499  -0.286   0.794  0.00  0.00    +0.107 C 
ATOM     13  C   UNL     1      -5.684  -1.228   0.570  0.00  0.00    +0.019 C 
ATOM     14  C   UNL     1      -6.974  -0.536   1.020  0.00  0.00    +0.003 C 
ATOM     15  C   UNL     1      -7.140   0.773   0.243  0.00  0.00    +0.024 C 
ATOM     16  C   UNL     1      -5.910   1.655   0.474  0.00  0.00    +0.099 C 
ATOM     17  C   UNL     1      -6.059   2.951  -0.331  0.00  0.00    +0.146 C 
ATOM     18  C   UNL     1      -4.922   3.891   0.078  0.00  0.00    +0.066 C 
ATOM     19  C   UNL     1      -5.955   2.643  -1.798  0.00  0.00    +0.238 C 
ATOM     20  O   UNL     1      -4.944   2.122  -2.220  0.00  0.00    -0.274 OA
ATOM     21  N   UNL     1      -6.946   2.928  -2.654  0.00  0.00    -0.239 N 
ATOM     22  C   UNL     1      -8.088   3.504  -2.249  0.00  0.00    +0.315 C 
ATOM     23  O   UNL     1      -8.954   3.740  -3.068  0.00  0.00    -0.252 OA
ATOM     24  N   UNL     1      -8.298   3.826  -0.964  0.00  0.00    -0.222 N 
ATOM     25  C   UNL     1      -7.381   3.590  -0.015  0.00  0.00    +0.240 C 
ATOM     26  O   UNL     1      -7.625   3.901   1.131  0.00  0.00    -0.274 OA
ATOM     27  H   UNL     1      -6.835   2.710  -3.592  0.00  0.00    +0.159 HD
ATOM     28  N   UNL     1      -2.399   1.026   0.031  0.00  0.00    -0.343 N 
ATOM     29  H   UNL     1      -2.390  -0.001   0.033  0.00  0.00    +0.167 HD
ENDROOT
BRANCH  24  30
ATOM     30  C   UNL     1      -9.566   4.455  -0.587  0.00  0.00    +0.086 C 
ATOM     31  C   UNL     1     -10.724   3.519  -0.941  0.00  0.00    +0.023 C 
ATOM     32  C   UNL     1     -12.049   4.176  -0.546  0.00  0.00    +0.002 C 
ATOM     33  C   UNL     1     -12.210   5.495  -1.303  0.00  0.00    +0.000 C 
ATOM     34  C   UNL     1     -11.052   6.431  -0.949  0.00  0.00    +0.002 C 
ATOM     35  C   UNL     1      -9.727   5.774  -1.344  0.00  0.00    +0.023 C 
ENDBRANCH  24  30
TORSDOF 1
