REMARK  Name = ZINC36700796
REMARK  6 active torsions:
REMARK  status: ('A' for Active; 'I' for Inactive)
REMARK    1  A    between atoms: C_1  and  C_2
REMARK    2  A    between atoms: C_3  and  C_8
REMARK    3  A    between atoms: C_4  and  C_7
REMARK    4  A    between atoms: C_8  and  C_9
REMARK    5  A    between atoms: N_11  and  C_12
REMARK    6  A    between atoms: C_12  and  C_13
REMARK                            x       y       z     vdW  Elec       q    Type
REMARK                         _______ _______ _______ _____ _____    ______ ____
ROOT
ATOM      1  C   UNL     1       3.009   0.909  -6.234  0.00  0.00    +0.019 C 
ATOM      2  C   UNL     1       2.359   2.289  -6.295  0.00  0.00    +0.018 C 
ATOM      3  C   UNL     1       3.329   3.341  -6.875  0.00  0.00    +0.050 C 
ATOM      4  C   UNL     1       3.762   2.789  -8.225  0.00  0.00    -0.036 A 
ATOM      5  C   UNL     1       3.604   3.435  -9.418  0.00  0.00    +0.004 A 
ATOM      6  C   UNL     1       4.047   2.813 -10.578  0.00  0.00    +0.000 A 
ATOM      7  C   UNL     1       4.636   1.563 -10.522  0.00  0.00    +0.000 A 
ATOM      8  C   UNL     1       4.793   0.913  -9.305  0.00  0.00    +0.004 A 
ATOM      9  C   UNL     1       4.356   1.530  -8.168  0.00  0.00    -0.036 A 
ATOM     10  C   UNL     1       4.457   0.946  -6.768  0.00  0.00    +0.054 C 
ATOM     11  C   UNL     1       5.163   2.012  -5.944  0.00  0.00    -0.036 A 
ATOM     12  C   UNL     1       4.571   3.270  -6.001  0.00  0.00    -0.036 A 
ATOM     13  C   UNL     1       5.100   4.322  -5.309  0.00  0.00    +0.004 A 
ATOM     14  C   UNL     1       6.241   4.115  -4.545  0.00  0.00    +0.000 A 
ATOM     15  C   UNL     1       6.829   2.865  -4.489  0.00  0.00    +0.000 A 
ATOM     16  C   UNL     1       6.285   1.802  -5.194  0.00  0.00    +0.004 A 
ENDROOT
BRANCH   1  17
ATOM     17  C   UNL     1       3.022   0.426  -4.782  0.00  0.00    +0.108 C 
BRANCH  17  20
ATOM     18  C   UNL     1       1.411  -0.170  -3.054  0.00  0.00    +0.218 C 
ATOM     19  O   UNL     1       2.340  -0.406  -2.311  0.00  0.00    -0.275 OA
ATOM     20  N   UNL     1       1.645   0.252  -4.312  0.00  0.00    -0.315 N 
ATOM     21  H   UNL     1       0.903   0.441  -4.907  0.00  0.00    +0.149 HD
BRANCH  18  22
ATOM     22  C   UNL     1      -0.005  -0.348  -2.571  0.00  0.00    +0.136 C 
BRANCH  22  25
ATOM     23  C   UNL     1      -0.018   1.503   0.010  0.00  0.00    +0.069 C 
ATOM     24  C   UNL     1       0.002  -0.004   0.002  0.00  0.00    +0.084 A 
ATOM     25  C   UNL     1       0.008  -0.824  -1.141  0.00  0.00    +0.026 A 
ATOM     26  C   UNL     1       0.027  -2.108  -0.735  0.00  0.00    +0.138 A 
ATOM     27  O   UNL     1       0.034  -2.119   0.606  0.00  0.00    -0.359 OA
ATOM     28  N   UNL     1       0.023  -0.775   1.052  0.00  0.00    -0.083 NA
ATOM     29  C   UNL     1       0.039  -3.320  -1.631  0.00  0.00    +0.089 C 
ENDBRANCH  22  25
ENDBRANCH  18  22
ENDBRANCH  17  20
ENDBRANCH   1  17
TORSDOF 4
