REMARK  Name = ZINC21775228
REMARK  12 active torsions:
REMARK  status: ('A' for Active; 'I' for Inactive)
REMARK    1  A    between atoms: C_1  and  C_2
REMARK    2  A    between atoms: C_4  and  C_35
REMARK    3  A    between atoms: C_5  and  C_34
REMARK    4  A    between atoms: C_6  and  S_9
REMARK    5  A    between atoms: C_7  and  C_8
REMARK    6  A    between atoms: S_9  and  N_12
REMARK    7  A    between atoms: N_12  and  C_13
REMARK    8  A    between atoms: C_13  and  C_14
REMARK    9  A    between atoms: C_14  and  C_16
REMARK   10  A    between atoms: C_14  and  N_27
REMARK   11  A    between atoms: N_25  and  C_26
REMARK   12  A    between atoms: N_30  and  C_33
REMARK                            x       y       z     vdW  Elec       q    Type
REMARK                         _______ _______ _______ _____ _____    ______ ____
ROOT
ATOM      1  C   UNL     1       1.275   1.343   0.221  0.00  0.00    +0.102 C 
ENDROOT
BRANCH   1   2
ATOM      2  C   UNL     1       0.679   2.716   0.043  0.00  0.00    -0.029 A 
ATOM      3  C   UNL     1      -0.689   2.896   0.144  0.00  0.00    +0.007 A 
ATOM      4  C   UNL     1      -1.231   4.152  -0.017  0.00  0.00    +0.024 A 
ATOM      5  C   UNL     1      -0.410   5.247  -0.292  0.00  0.00    +0.033 A 
ATOM      6  C   UNL     1       0.958   5.061  -0.394  0.00  0.00    -0.026 A 
ATOM      7  C   UNL     1       1.497   3.795  -0.226  0.00  0.00    +0.010 A 
ATOM      8  C   UNL     1       1.900   6.203  -0.679  0.00  0.00    +0.038 C 
ATOM      9  C   UNL     1       1.110   7.405  -1.201  0.00  0.00    +0.024 C 
ATOM     10  C   UNL     1      -0.099   7.612  -0.280  0.00  0.00    +0.105 C 
ATOM     11  N   UNL     1      -1.021   6.489  -0.459  0.00  0.00    -0.333 N 
ATOM     12  C   UNL     1      -2.190   6.622   0.421  0.00  0.00    +0.129 C 
ENDBRANCH   1   2
BRANCH   1  13
ATOM     13  N   UNL     1       0.644   0.681   1.371  0.00  0.00    -0.298 NA
ATOM     14  C   UNL     1       1.620  -0.132   2.111  0.00  0.00    +0.066 C 
ATOM     15  C   UNL     1       0.944  -0.740   3.342  0.00  0.00    -0.064 C 
ATOM     16  N   UNL     1      -0.202  -1.555   2.916  0.00  0.00    +0.379 N 
ATOM     17  C   UNL     1      -1.177  -0.743   2.176  0.00  0.00    -0.064 C 
ATOM     18  C   UNL     1      -0.501  -0.135   0.945  0.00  0.00    +0.066 C 
ATOM     19  C   UNL     1      -0.833  -2.218   4.065  0.00  0.00    -0.096 C 
ATOM     20  H   UNL     1       0.171  -2.338   2.239  0.00  0.00    -0.082 HD
ENDBRANCH   1  13
BRANCH   1  21
ATOM     21  C   UNL     1       1.033   0.514  -1.042  0.00  0.00    +0.129 C 
BRANCH  21  22
ATOM     22  N   UNL     1       1.683  -0.791  -0.901  0.00  0.00    -0.188 NA
ATOM     23  H   UNL     1       2.562  -0.900  -0.248  0.00  0.00    +0.148 HD
BRANCH  22  24
ATOM     24  S   UNL     1       1.260  -2.039  -1.903  0.00  0.00    +0.059 S 
ATOM     25  O   UNL     1       2.074  -3.146  -1.540  0.00  0.00    -0.153 OA
ATOM     26  O   UNL     1      -0.160  -2.103  -1.895  0.00  0.00    -0.153 OA
BRANCH  24  32
ATOM     27  C   UNL     1       4.586  -2.199  -5.932  0.00  0.00    +0.044 C 
ATOM     28  C   UNL     1       3.293  -1.688  -5.351  0.00  0.00    -0.045 A 
ATOM     29  C   UNL     1       2.479  -0.858  -6.100  0.00  0.00    +0.007 A 
ATOM     30  C   UNL     1       1.292  -0.389  -5.567  0.00  0.00    -0.045 A 
ATOM     31  C   UNL     1       0.920  -0.750  -4.285  0.00  0.00    -0.021 A 
ATOM     32  C   UNL     1       1.734  -1.580  -3.537  0.00  0.00    +0.112 A 
ATOM     33  C   UNL     1       2.923  -2.044  -4.068  0.00  0.00    -0.021 A 
ATOM     34  C   UNL     1       3.813  -2.944  -3.250  0.00  0.00    +0.046 C 
ATOM     35  C   UNL     1      -0.373  -0.238  -3.704  0.00  0.00    +0.046 C 
ATOM     36  C   UNL     1       0.405   0.515  -6.383  0.00  0.00    +0.044 C 
ENDBRANCH  24  32
ENDBRANCH  22  24
ENDBRANCH  21  22
ENDBRANCH   1  21
TORSDOF 6
