REMARK  Name = ZINC05559672
REMARK  6 active torsions:
REMARK  status: ('A' for Active; 'I' for Inactive)
REMARK    1  A    between atoms: C_1  and  C_2
REMARK    2  A    between atoms: N_8  and  N_9
REMARK    3  A    between atoms: C_13  and  C_16
REMARK    4  A    between atoms: C_16  and  C_17
REMARK    5  A    between atoms: C_16  and  C_18
REMARK    6  A    between atoms: C_16  and  C_19
REMARK                            x       y       z     vdW  Elec       q    Type
REMARK                         _______ _______ _______ _____ _____    ______ ____
ROOT
ATOM      1  N   UNL     1       0.276  -2.387   4.118  0.00  0.00    -0.156 NA
ATOM      2  C   UNL     1       0.158  -3.083   5.202  0.00  0.00    +0.041 C 
ATOM      3  C   UNL     1      -1.147  -3.769   5.545  0.00  0.00    +0.053 C 
ATOM      4  C   UNL     1      -1.536  -3.386   6.977  0.00  0.00    +0.010 C 
ATOM      5  C   UNL     1      -0.381  -3.718   7.923  0.00  0.00    -0.005 C 
ATOM      6  C   UNL     1       0.841  -2.870   7.568  0.00  0.00    +0.010 C 
ATOM      7  C   UNL     1       1.322  -3.238   6.155  0.00  0.00    +0.053 C 
ENDROOT
BRANCH   1  14
ATOM      8  C   UNL     1      -0.019   1.526   0.010  0.00  0.00    +0.029 C 
ATOM      9  C   UNL     1       0.002  -0.004   0.002  0.00  0.00    +0.137 C 
ATOM     10  C   UNL     1      -1.403  -0.575   0.107  0.00  0.00    +0.232 C 
ATOM     11  O   UNL     1      -2.247  -0.369  -0.740  0.00  0.00    -0.274 OA
ATOM     12  N   UNL     1      -1.647  -1.309   1.179  0.00  0.00    -0.263 N 
ATOM     13  C   UNL     1      -0.694  -1.548   2.146  0.00  0.00    +0.183 C 
ATOM     14  N   UNL     1      -0.814  -2.256   3.247  0.00  0.00    -0.127 NA
ATOM     15  S   UNL     1       0.745  -0.670   1.549  0.00  0.00    -0.076 S 
ATOM     16  H   UNL     1      -2.531  -1.694   1.289  0.00  0.00    +0.157 HD
ENDBRANCH   1  14
BRANCH   5  17
ATOM     17  C   UNL     1      -0.804  -3.422   9.364  0.00  0.00    -0.035 C 
ATOM     18  C   UNL     1      -2.021  -4.277   9.724  0.00  0.00    +0.011 C 
ATOM     19  C   UNL     1       0.350  -3.754  10.312  0.00  0.00    +0.011 C 
ATOM     20  C   UNL     1      -1.163  -1.941   9.496  0.00  0.00    +0.011 C 
ENDBRANCH   5  17
TORSDOF 2
