REMARK  Name = ZINC23995940
REMARK  5 active torsions:
REMARK  status: ('A' for Active; 'I' for Inactive)
REMARK    1  A    between atoms: C_1  and  C_2
REMARK    2  A    between atoms: C_14  and  C_16
REMARK    3  A    between atoms: C_16  and  C_18
REMARK    4  A    between atoms: C_16  and  N_19
REMARK    5  A    between atoms: C_22  and  C_25
REMARK                            x       y       z     vdW  Elec       q    Type
REMARK                         _______ _______ _______ _____ _____    ______ ____
ROOT
ATOM      1  C   UNL     1      -4.502   5.096  -0.328  0.00  0.00    +0.008 C 
ATOM      2  C   UNL     1      -3.395   4.100   0.023  0.00  0.00    -0.009 C 
ATOM      3  C   UNL     1      -3.618   2.790  -0.737  0.00  0.00    +0.008 C 
ATOM      4  C   UNL     1      -2.670   1.714  -0.208  0.00  0.00    +0.037 C 
ATOM      5  C   UNL     1      -1.244   2.257  -0.231  0.00  0.00    -0.023 A 
ATOM      6  C   UNL     1      -1.014   3.584  -0.316  0.00  0.00    -0.004 A 
ATOM      7  S   UNL     1       0.752   3.742  -0.321  0.00  0.00    -0.073 S 
ATOM      8  C   UNL     1       1.171   2.023  -0.215  0.00  0.00    +0.116 A 
ATOM      9  C   UNL     1      -0.071   1.384  -0.180  0.00  0.00    +0.075 A 
ATOM     10  C   UNL     1      -0.016  -0.093  -0.089  0.00  0.00    +0.260 A 
ATOM     11  O   UNL     1      -1.043  -0.751  -0.053  0.00  0.00    -0.267 OA
ATOM     12  N   UNL     1       1.182  -0.696  -0.048  0.00  0.00    -0.312 N 
ATOM     13  C   UNL     1       2.303  -0.030  -0.086  0.00  0.00    +0.097 A 
ATOM     14  N   UNL     1       2.329   1.315  -0.169  0.00  0.00    -0.228 NA
ATOM     15  C   UNL     1      -2.033   4.680  -0.384  0.00  0.00    +0.046 C 
ATOM     16  H   UNL     1       1.244  -1.792   0.019  0.00  0.00    +0.170 HD
ENDROOT
BRANCH  13  17
ATOM     17  C   UNL     1       3.605  -0.786  -0.035  0.00  0.00    -0.004 C 
ATOM     18  C   UNL     1       4.100  -1.046  -1.459  0.00  0.00    -0.005 C 
BRANCH  17  19
ATOM     19  N   UNL     1       3.401  -2.068   0.653  0.00  0.00    +0.386 N 
ATOM     20  C   UNL     1       4.604  -2.907   0.571  0.00  0.00    -0.077 C 
ATOM     21  C   UNL     1       4.308  -4.284   1.169  0.00  0.00    -0.004 C 
ATOM     22  C   UNL     1       3.876  -4.120   2.628  0.00  0.00    +0.099 C 
ATOM     23  C   UNL     1       2.651  -3.203   2.690  0.00  0.00    -0.004 C 
ATOM     24  C   UNL     1       2.995  -1.857   2.049  0.00  0.00    -0.077 C 
ATOM     25  H   UNL     1       2.585  -2.601   0.143  0.00  0.00    -0.081 HD
BRANCH  22  26
ATOM     26  C   UNL     1       3.526  -5.468   3.205  0.00  0.00    +0.359 C 
ATOM     27  O   UNL     1       2.411  -5.675   3.623  0.00  0.00    -0.246 OA
ATOM     28  O   UNL     1       4.452  -6.438   3.254  0.00  0.00    -0.246 OA
ENDBRANCH  22  26
ENDBRANCH  17  19
ENDBRANCH  13  17
TORSDOF 3
