REMARK  Name = ZINC11279592
REMARK  7 active torsions:
REMARK  status: ('A' for Active; 'I' for Inactive)
REMARK    1  A    between atoms: C_1  and  C_2
REMARK    2  A    between atoms: C_2  and  C_23
REMARK    3  A    between atoms: N_5  and  C_9
REMARK    4  A    between atoms: C_9  and  C_10
REMARK    5  A    between atoms: N_12  and  C_13
REMARK    6  A    between atoms: N_12  and  C_14
REMARK    7  A    between atoms: C_17  and  N_20
REMARK                            x       y       z     vdW  Elec       q    Type
REMARK                         _______ _______ _______ _____ _____    ______ ____
ROOT
ATOM      1  C   UNL     1       3.039   4.766   1.371  0.00  0.00    +0.047 C 
ATOM      2  C   UNL     1       2.573   4.488  -0.059  0.00  0.00    +0.135 C 
ATOM      3  C   UNL     1       2.381   5.783  -0.823  0.00  0.00    +0.251 C 
ATOM      4  O   UNL     1       1.609   6.680  -0.561  0.00  0.00    -0.272 OA
ATOM      5  N   UNL     1       3.248   5.730  -1.854  0.00  0.00    -0.215 N 
ATOM      6  C   UNL     1       3.953   4.593  -1.847  0.00  0.00    +0.310 C 
ATOM      7  O   UNL     1       4.797   4.317  -2.678  0.00  0.00    -0.252 OA
ATOM      8  N   UNL     1       3.624   3.790  -0.820  0.00  0.00    -0.281 N 
ATOM      9  H   UNL     1       4.004   2.920  -0.619  0.00  0.00    +0.152 HD
ENDROOT
BRANCH   2  10
ATOM     10  C   UNL     1       1.299   3.683  -0.053  0.00  0.00    -0.014 A 
ATOM     11  C   UNL     1       0.076   4.325  -0.011  0.00  0.00    +0.008 A 
ATOM     12  C   UNL     1      -1.093   3.588  -0.005  0.00  0.00    +0.022 A 
ATOM     13  C   UNL     1      -1.040   2.206  -0.048  0.00  0.00    +0.059 A 
ATOM     14  C   UNL     1       0.185   1.562  -0.085  0.00  0.00    +0.060 A 
ATOM     15  C   UNL     1       1.355   2.302  -0.090  0.00  0.00    +0.027 A 
ATOM     16 CL   UNL     1       0.255  -0.172  -0.133  0.00  0.00    -0.082 Cl
ATOM     17 CL   UNL     1      -2.508   1.280  -0.050  0.00  0.00    -0.082 Cl
ENDBRANCH   2  10
BRANCH   5  18
ATOM     18  C   UNL     1       3.399   6.786  -2.857  0.00  0.00    +0.214 C 
BRANCH  18  19
ATOM     19  C   UNL     1       2.457   6.527  -4.005  0.00  0.00    +0.237 C 
ATOM     20  O   UNL     1       1.731   5.556  -3.986  0.00  0.00    -0.274 OA
ATOM     21  N   UNL     1       2.421   7.375  -5.052  0.00  0.00    -0.273 N 
ATOM     22  C   UNL     1       3.211   8.608  -5.023  0.00  0.00    +0.138 C 
BRANCH  21  23
ATOM     23  C   UNL     1       1.628   7.077  -6.166  0.00  0.00    +0.036 A 
ATOM     24  C   UNL     1       2.224   6.795  -7.388  0.00  0.00    +0.026 A 
ATOM     25  C   UNL     1       1.439   6.497  -8.485  0.00  0.00    +0.034 A 
ATOM     26  C   UNL     1       0.061   6.490  -8.370  0.00  0.00    +0.126 A 
ATOM     27  C   UNL     1      -0.535   6.776  -7.155  0.00  0.00    +0.034 A 
ATOM     28  C   UNL     1       0.244   7.069  -6.053  0.00  0.00    +0.026 A 
BRANCH  26  29
ATOM     29  N   UNL     1      -0.777   6.176  -9.549  0.00  0.00    +0.056 N 
ATOM     30  O   UNL     1      -1.991   6.170  -9.448  0.00  0.00    -0.126 OA
ATOM     31  O   UNL     1      -0.253   5.924 -10.619  0.00  0.00    -0.126 OA
ENDBRANCH  26  29
ENDBRANCH  21  23
ENDBRANCH  18  19
ENDBRANCH   5  18
TORSDOF 5
