REMARK  Name = ZINC12041603
REMARK  12 active torsions:
REMARK  status: ('A' for Active; 'I' for Inactive)
REMARK    1  A    between atoms: C_1  and  C_2
REMARK    2  A    between atoms: C_2  and  C_3
REMARK    3  A    between atoms: C_2  and  C_4
REMARK    4  A    between atoms: C_4  and  C_5
REMARK    5  A    between atoms: C_5  and  C_19
REMARK    6  A    between atoms: N_8  and  C_12
REMARK    7  A    between atoms: C_12  and  C_13
REMARK    8  A    between atoms: C_13  and  C_14
REMARK    9  A    between atoms: C_24  and  C_25
REMARK   10  A    between atoms: C_24  and  N_68
REMARK   11  A    between atoms: C_28  and  O_31
REMARK   12  A    between atoms: O_31  and  C_32
REMARK                            x       y       z     vdW  Elec       q    Type
REMARK                         _______ _______ _______ _____ _____    ______ ____
ROOT
ATOM      1  C   UNL     1       1.547  -6.161  -5.121  0.00  0.00    +0.115 C 
ATOM      2  C   UNL     1       0.069  -5.864  -5.275  0.00  0.00    +0.247 C 
ATOM      3  O   UNL     1      -0.456  -4.773  -5.340  0.00  0.00    -0.273 OA
ATOM      4  N   UNL     1      -0.541  -7.065  -5.326  0.00  0.00    -0.224 N 
ATOM      5  C   UNL     1       0.338  -8.069  -5.226  0.00  0.00    +0.309 C 
ATOM      6  O   UNL     1       0.027  -9.244  -5.247  0.00  0.00    -0.252 OA
ATOM      7  N   UNL     1       1.605  -7.633  -5.101  0.00  0.00    -0.285 N 
ATOM      8  H   UNL     1       2.400  -8.181  -5.015  0.00  0.00    +0.151 HD
ENDROOT
BRANCH   1   9
ATOM      9  C   UNL     1       2.079  -5.584  -3.808  0.00  0.00    +0.018 C 
ATOM     10  C   UNL     1       1.230  -6.100  -2.642  0.00  0.00    -0.013 C 
ATOM     11  C   UNL     1       1.728  -5.472  -1.338  0.00  0.00    -0.078 C 
ATOM     12  C   UNL     1       2.473  -3.487  -2.512  0.00  0.00    -0.078 C 
ATOM     13  C   UNL     1       1.998  -4.056  -3.850  0.00  0.00    -0.013 C 
ATOM     14  N   UNL     1       1.601  -4.002  -1.435  0.00  0.00    +0.382 N 
ATOM     15  H   UNL     1       0.626  -3.766  -1.654  0.00  0.00    -0.081 HD
BRANCH  14  16
ATOM     16  C   UNL     1       1.968  -3.378  -0.146  0.00  0.00    -0.043 C 
BRANCH  16  17
ATOM     17  C   UNL     1       2.097  -1.889  -0.338  0.00  0.00    -0.064 A 
ATOM     18  C   UNL     1       0.990  -1.075  -0.183  0.00  0.00    +0.005 A 
ATOM     19  C   UNL     1       1.105   0.290  -0.358  0.00  0.00    +0.046 A 
ATOM     20  C   UNL     1       2.333   0.845  -0.689  0.00  0.00    +0.120 A 
ATOM     21  C   UNL     1       3.441   0.025  -0.850  0.00  0.00    +0.046 A 
ATOM     22  C   UNL     1       3.322  -1.339  -0.668  0.00  0.00    +0.005 A 
BRANCH  20  23
ATOM     23  O   UNL     1       2.449   2.188  -0.862  0.00  0.00    -0.495 OA
ATOM     24  C   UNL     1       3.743   2.688  -1.202  0.00  0.00    +0.277 C 
ENDBRANCH  20  23
ENDBRANCH  16  17
ENDBRANCH  14  16
ENDBRANCH   1   9
BRANCH   1  25
ATOM     25  C   UNL     1       2.335  -5.605  -6.309  0.00  0.00    +0.038 C 
BRANCH  25  27
ATOM     26  C   UNL     1       2.382  -5.429  -8.801  0.00  0.00    +0.007 C 
ATOM     27  C   UNL     1       1.747  -6.152  -7.612  0.00  0.00    -0.015 C 
ATOM     28  C   UNL     1       2.037  -7.651  -7.712  0.00  0.00    +0.007 C 
ENDBRANCH  25  27
ENDBRANCH   1  25
BRANCH   4  29
ATOM     29  C   UNL     1      -1.987  -7.249  -5.472  0.00  0.00    +0.123 C 
BRANCH  29  30
ATOM     30  C   UNL     1      -2.343  -7.327  -6.958  0.00  0.00    +0.062 C 
BRANCH  30  31
ATOM     31  C   UNL     1      -3.830  -7.515  -7.109  0.00  0.00    -0.009 A 
ATOM     32  C   UNL     1      -4.803  -6.577  -7.218  0.00  0.00    +0.011 A 
ATOM     33  C   UNL     1      -6.117  -6.986  -7.350  0.00  0.00    +0.008 A 
ATOM     34  C   UNL     1      -6.394  -8.313  -7.366  0.00  0.00    +0.045 A 
ATOM     35  S   UNL     1      -4.768  -9.032  -7.199  0.00  0.00    -0.102 S 
ENDBRANCH  30  31
ENDBRANCH  29  30
ENDBRANCH   4  29
TORSDOF 9
