REMARK  Name = ZINC05204100
REMARK  5 active torsions:
REMARK  status: ('A' for Active; 'I' for Inactive)
REMARK    1  A    between atoms: C_1  and  C_2
REMARK    2  A    between atoms: C_5  and  S_8
REMARK    3  A    between atoms: S_8  and  N_11
REMARK    4  A    between atoms: N_11  and  C_12
REMARK    5  A    between atoms: C_15  and  C_18
REMARK                            x       y       z     vdW  Elec       q    Type
REMARK                         _______ _______ _______ _____ _____    ______ ____
ROOT
ATOM      1  C   UNL     1       1.125   2.395  -0.183  0.00  0.00    +0.048 A 
ATOM      2  C   UNL     1       2.310   2.002   0.431  0.00  0.00    +0.025 A 
ATOM      3  C   UNL     1       3.461   2.733   0.243  0.00  0.00    +0.015 A 
ATOM      4  C   UNL     1       3.435   3.879  -0.558  0.00  0.00    +0.037 A 
ATOM      5  C   UNL     1       2.242   4.274  -1.170  0.00  0.00    +0.015 A 
ATOM      6  C   UNL     1       1.096   3.535  -0.982  0.00  0.00    +0.025 A 
ENDROOT
BRANCH   4   7
ATOM      7  C   UNL     1       4.665   4.668  -0.757  0.00  0.00    +0.250 C 
ATOM      8  O   UNL     1       4.641   5.665  -1.454  0.00  0.00    -0.270 OA
ATOM      9  N   UNL     1       5.815   4.285  -0.167  0.00  0.00    -0.261 N 
ATOM     10  C   UNL     1       6.973   5.029  -0.355  0.00  0.00    +0.165 A 
ATOM     11  N   UNL     1       7.148   6.119  -1.067  0.00  0.00    -0.229 NA
ATOM     12  C   UNL     1       8.336   6.735  -1.151  0.00  0.00    +0.054 A 
ATOM     13  C   UNL     1       9.351   6.160  -0.465  0.00  0.00    +0.014 A 
ATOM     14  S   UNL     1       8.563   4.754   0.286  0.00  0.00    -0.057 S 
ATOM     15  C   UNL     1      10.638   6.912  -0.617  0.00  0.00    +0.045 C 
ATOM     16  C   UNL     1      10.217   8.299  -1.154  0.00  0.00    +0.011 C 
ATOM     17  C   UNL     1       8.885   7.975  -1.858  0.00  0.00    +0.056 C 
ATOM     18  H   UNL     1       5.833   3.491   0.389  0.00  0.00    +0.157 HD
ENDBRANCH   4   7
BRANCH   1  19
ATOM     19  N   UNL     1      -0.035   1.651   0.005  0.00  0.00    -0.216 N 
ATOM     20  H   UNL     1      -0.873   2.100   0.198  0.00  0.00    +0.174 HD
BRANCH  19  21
ATOM     21  S   UNL     1       0.014  -0.000  -0.105  0.00  0.00    +0.072 S 
ATOM     22  O   UNL     1       1.068  -0.433   0.745  0.00  0.00    -0.150 OA
ATOM     23  O   UNL     1      -1.323  -0.457   0.046  0.00  0.00    -0.150 OA
BRANCH  21  28
ATOM     24  C   UNL     1       1.676  -1.363  -5.743  0.00  0.00    +0.044 C 
ATOM     25  C   UNL     1       1.261  -1.023  -4.335  0.00  0.00    -0.050 A 
ATOM     26  C   UNL     1       2.208  -0.968  -3.329  0.00  0.00    +0.005 A 
ATOM     27  C   UNL     1       1.827  -0.656  -2.038  0.00  0.00    +0.029 A 
ATOM     28  C   UNL     1       0.499  -0.398  -1.752  0.00  0.00    +0.109 A 
ATOM     29  C   UNL     1      -0.448  -0.458  -2.756  0.00  0.00    +0.029 A 
ATOM     30  C   UNL     1      -0.067  -0.766  -4.049  0.00  0.00    +0.005 A 
ENDBRANCH  21  28
ENDBRANCH  19  21
ENDBRANCH   1  19
TORSDOF 4
