REMARK  Name = ZINC13500749
REMARK  15 active torsions:
REMARK  status: ('A' for Active; 'I' for Inactive)
REMARK    1  A    between atoms: C_1  and  C_2
REMARK    2  A    between atoms: C_2  and  C_3
REMARK    3  A    between atoms: C_3  and  C_4
REMARK    4  A    between atoms: C_4  and  C_6
REMARK    5  A    between atoms: C_4  and  N_15
REMARK    6  A    between atoms: N_10  and  C_11
REMARK    7  A    between atoms: C_11  and  C_12
REMARK    8  A    between atoms: C_11  and  C_13
REMARK    9  A    between atoms: C_11  and  C_14
REMARK   10  A    between atoms: N_15  and  C_16
REMARK   11  A    between atoms: N_15  and  C_22
REMARK   12  A    between atoms: C_16  and  C_17
REMARK   13  A    between atoms: C_22  and  C_23
REMARK   14  A    between atoms: C_27  and  C_36
REMARK   15  A    between atoms: C_29  and  C_35
REMARK                            x       y       z     vdW  Elec       q    Type
REMARK                         _______ _______ _______ _____ _____    ______ ____
ROOT
ATOM      1  N   UNL     1      -0.846  -1.782  -1.461  0.00  0.00    -0.284 NA
ENDROOT
BRANCH   1   2
ATOM      2  C   UNL     1      -1.660  -1.767  -0.239  0.00  0.00    +0.127 C 
BRANCH   2   3
ATOM      3  C   UNL     1      -2.680  -2.875  -0.301  0.00  0.00    +0.169 A 
ATOM      4  N   UNL     1      -3.361  -3.254  -1.355  0.00  0.00    -0.112 NA
ATOM      5  N   UNL     1      -4.128  -4.228  -1.004  0.00  0.00    -0.023 NA
ATOM      6  N   UNL     1      -3.953  -4.481   0.246  0.00  0.00    -0.043 NA
ATOM      7  N   UNL     1      -3.064  -3.672   0.714  0.00  0.00    -0.222 N 
BRANCH   7   8
ATOM      8  C   UNL     1      -2.569  -3.626   2.092  0.00  0.00    +0.059 C 
ATOM      9  C   UNL     1      -2.735  -2.209   2.646  0.00  0.00    +0.036 C 
ATOM     10  C   UNL     1      -3.365  -4.607   2.953  0.00  0.00    +0.036 C 
ATOM     11  C   UNL     1      -1.088  -4.012   2.115  0.00  0.00    +0.036 C 
ENDBRANCH   7   8
ENDBRANCH   2   3
BRANCH   2  12
ATOM     12  C   UNL     1      -2.377  -0.420  -0.120  0.00  0.00    +0.026 C 
BRANCH  12  14
ATOM     13  C   UNL     1      -2.063   2.015   0.342  0.00  0.00    +0.004 C 
ATOM     14  C   UNL     1      -1.344   0.692   0.071  0.00  0.00    -0.001 C 
ENDBRANCH  12  14
ENDBRANCH   2  12
ENDBRANCH   1   2
BRANCH   1  15
ATOM     15  C   UNL     1      -1.543  -1.112  -2.567  0.00  0.00    +0.127 C 
BRANCH  15  16
ATOM     16  C   UNL     1      -0.889  -1.485  -3.873  0.00  0.00    +0.004 A 
ATOM     17  C   UNL     1      -1.218  -2.474  -4.740  0.00  0.00    +0.012 A 
ATOM     18  C   UNL     1      -0.469  -2.633  -5.890  0.00  0.00    +0.008 A 
ATOM     19  C   UNL     1       0.573  -1.796  -6.117  0.00  0.00    +0.045 A 
ATOM     20  S   UNL     1       0.514  -0.736  -4.682  0.00  0.00    -0.100 S 
ENDBRANCH  15  16
ENDBRANCH   1  15
BRANCH   1  21
ATOM     21  C   UNL     1       0.471  -1.176  -1.224  0.00  0.00    +0.126 C 
BRANCH  21  22
ATOM     22  C   UNL     1       1.380  -2.187  -0.574  0.00  0.00    +0.031 A 
ATOM     23  C   UNL     1       2.197  -2.951  -1.340  0.00  0.00    +0.020 A 
ATOM     24  C   UNL     1       3.068  -3.924  -0.677  0.00  0.00    -0.001 A 
ATOM     25  C   UNL     1       3.933  -4.740  -1.414  0.00  0.00    +0.013 A 
ATOM     26  C   UNL     1       4.734  -5.637  -0.766  0.00  0.00    -0.050 A 
ATOM     27  C   UNL     1       4.697  -5.747   0.618  0.00  0.00    +0.008 A 
ATOM     28  C   UNL     1       3.852  -4.953   1.364  0.00  0.00    -0.026 A 
ATOM     29  C   UNL     1       3.028  -4.032   0.726  0.00  0.00    +0.052 A 
ATOM     30  N   UNL     1       2.175  -3.224   1.447  0.00  0.00    -0.322 N 
ATOM     31  H   UNL     1       2.148  -3.300   2.414  0.00  0.00    +0.169 HD
ATOM     32  C   UNL     1       1.382  -2.330   0.830  0.00  0.00    +0.254 A 
ATOM     33  O   UNL     1       0.643  -1.630   1.500  0.00  0.00    -0.268 OA
ATOM     34  C   UNL     1       3.821  -5.083   2.865  0.00  0.00    +0.046 C 
ATOM     35  C   UNL     1       5.665  -6.517  -1.560  0.00  0.00    +0.044 C 
ENDBRANCH  21  22
ENDBRANCH   1  21
TORSDOF 9
