REMARK  Name = ZINC36618183
REMARK  11 active torsions:
REMARK  status: ('A' for Active; 'I' for Inactive)
REMARK    1  A    between atoms: C_1  and  C_2
REMARK    2  A    between atoms: C_2  and  C_3
REMARK    3  A    between atoms: C_2  and  C_4
REMARK    4  A    between atoms: C_4  and  C_6
REMARK    5  A    between atoms: C_4  and  N_19
REMARK    6  A    between atoms: N_8  and  N_9
REMARK    7  A    between atoms: C_10  and  C_12
REMARK    8  A    between atoms: N_19  and  S_20
REMARK    9  A    between atoms: S_20  and  C_23
REMARK   10  A    between atoms: C_26  and  O_29
REMARK   11  A    between atoms: O_29  and  C_30
REMARK                            x       y       z     vdW  Elec       q    Type
REMARK                         _______ _______ _______ _____ _____    ______ ____
ROOT
ATOM      1  C   UNL     1      -1.388  -0.467   0.129  0.00  0.00    +0.166 C 
ENDROOT
BRANCH   1   2
ATOM      2  C   UNL     1      -1.355  -1.974   0.165  0.00  0.00    +0.248 C 
ATOM      3  O   UNL     1      -1.833  -2.569   1.107  0.00  0.00    -0.273 OA
ATOM      4  N   UNL     1      -0.793  -2.659  -0.851  0.00  0.00    -0.233 N 
ATOM      5  H   UNL     1      -0.410  -2.183  -1.604  0.00  0.00    +0.173 HD
BRANCH   4   6
ATOM      6  N   UNL     1      -0.761  -4.059  -0.818  0.00  0.00    -0.230 N 
ATOM      7  C   UNL     1      -0.200  -4.745  -1.833  0.00  0.00    +0.260 C 
ATOM      8  O   UNL     1       0.280  -4.148  -2.777  0.00  0.00    -0.269 OA
ATOM      9  H   UNL     1      -1.144  -4.535  -0.065  0.00  0.00    +0.173 HD
BRANCH   7  10
ATOM     10  C   UNL     1      -0.167  -6.221  -1.798  0.00  0.00    +0.038 A 
ATOM     11  C   UNL     1      -0.722  -6.909  -0.718  0.00  0.00    +0.016 A 
ATOM     12  C   UNL     1      -0.689  -8.287  -0.691  0.00  0.00    +0.039 A 
ATOM     13  C   UNL     1      -0.105  -8.990  -1.734  0.00  0.00    +0.123 A 
ATOM     14  C   UNL     1       0.448  -8.312  -2.809  0.00  0.00    +0.039 A 
ATOM     15  C   UNL     1       0.415  -6.934  -2.849  0.00  0.00    +0.016 A 
ATOM     16  F   UNL     1      -0.074 -10.340  -1.702  0.00  0.00    -0.205 F 
ENDBRANCH   7  10
ENDBRANCH   4   6
ENDBRANCH   1   2
BRANCH   1  18
ATOM     17  C   UNL     1       0.005   1.595  -0.086  0.00  0.00    +0.009 C 
ATOM     18  C   UNL     1       0.042   0.073   0.065  0.00  0.00    +0.010 C 
ATOM     19  C   UNL     1       0.784  -0.294   1.351  0.00  0.00    +0.009 C 
ENDBRANCH   1  18
BRANCH   1  20
ATOM     20  N   UNL     1      -2.046   0.035   1.338  0.00  0.00    -0.178 NA
ATOM     21  H   UNL     1      -1.639  -0.108   2.207  0.00  0.00    +0.149 HD
BRANCH  20  22
ATOM     22  S   UNL     1      -3.485   0.847   1.221  0.00  0.00    +0.059 S 
ATOM     23  O   UNL     1      -3.892   1.145   2.549  0.00  0.00    -0.153 OA
ATOM     24  O   UNL     1      -3.304   1.854   0.235  0.00  0.00    -0.153 OA
BRANCH  22  25
ATOM     25  C   UNL     1      -4.670  -0.284   0.573  0.00  0.00    +0.105 A 
ATOM     26  C   UNL     1      -4.848  -0.391  -0.794  0.00  0.00    +0.032 A 
ATOM     27  C   UNL     1      -5.777  -1.277  -1.304  0.00  0.00    +0.047 A 
ATOM     28  C   UNL     1      -6.532  -2.060  -0.444  0.00  0.00    +0.120 A 
ATOM     29  C   UNL     1      -6.352  -1.952   0.928  0.00  0.00    +0.047 A 
ATOM     30  C   UNL     1      -5.418  -1.068   1.433  0.00  0.00    +0.032 A 
BRANCH  28  31
ATOM     31  O   UNL     1      -7.447  -2.932  -0.943  0.00  0.00    -0.495 OA
ATOM     32  C   UNL     1      -8.188  -3.707   0.002  0.00  0.00    +0.277 C 
ENDBRANCH  28  31
ENDBRANCH  22  25
ENDBRANCH  20  22
ENDBRANCH   1  20
TORSDOF 8
