REMARK  Name = ZINC49564985
REMARK  9 active torsions:
REMARK  status: ('A' for Active; 'I' for Inactive)
REMARK    1  A    between atoms: C_1  and  O_2
REMARK    2  A    between atoms: O_2  and  C_3
REMARK    3  A    between atoms: C_7  and  C_13
REMARK    4  A    between atoms: C_8  and  O_9
REMARK    5  A    between atoms: O_9  and  C_10
REMARK    6  A    between atoms: C_14  and  C_15
REMARK    7  A    between atoms: C_15  and  N_17
REMARK    8  A    between atoms: N_24  and  C_27
REMARK    9  A    between atoms: C_27  and  C_28
REMARK                            x       y       z     vdW  Elec       q    Type
REMARK                         _______ _______ _______ _____ _____    ______ ____
ROOT
ATOM      1  N   UNL     1      -5.027  -6.838   0.033  0.00  0.00    -0.153 NA
ATOM      2  C   UNL     1      -5.091  -8.167   0.032  0.00  0.00    +0.163 A 
ATOM      3  N   UNL     1      -4.066  -9.063   0.029  0.00  0.00    -0.339 N 
ATOM      4  C   UNL     1      -4.341 -10.402   0.029  0.00  0.00    +0.024 A 
ATOM      5  C   UNL     1      -5.647 -10.720   0.031  0.00  0.00    -0.004 A 
ATOM      6  S   UNL     1      -6.459  -9.149   0.042  0.00  0.00    -0.059 S 
ATOM      7  C   UNL     1      -6.233 -12.093   0.026  0.00  0.00    -0.033 C 
ATOM      8  N   UNL     1      -5.176 -13.049  -0.355  0.00  0.00    +0.386 N 
ATOM      9  C   UNL     1      -3.980 -12.809   0.464  0.00  0.00    -0.072 C 
ATOM     10  C   UNL     1      -3.294 -11.509   0.031  0.00  0.00    +0.035 C 
ATOM     11  H   UNL     1      -3.147  -8.753   0.027  0.00  0.00    +0.167 HD
ATOM     12  H   UNL     1      -4.946 -12.925  -1.330  0.00  0.00    -0.081 HD
ENDROOT
BRANCH   1  13
ATOM     13  C   UNL     1      -3.838  -6.225   0.024  0.00  0.00    +0.262 C 
ATOM     14  O   UNL     1      -2.811  -6.885   0.016  0.00  0.00    -0.269 OA
BRANCH  13  16
ATOM     15  C   UNL     1      -2.570  -4.142   0.017  0.00  0.00    +0.017 C 
ATOM     16  C   UNL     1      -3.767  -4.759   0.025  0.00  0.00    +0.070 C 
BRANCH  15  21
ATOM     17  C   UNL     1      -1.201  -0.638   0.010  0.00  0.00    +0.162 A 
ATOM     18  C   UNL     1      -2.373   0.101   0.019  0.00  0.00    +0.049 A 
ATOM     19  C   UNL     1      -3.603  -0.536   0.028  0.00  0.00    +0.004 A 
ATOM     20  C   UNL     1      -3.674  -1.913   0.027  0.00  0.00    +0.012 A 
ATOM     21  C   UNL     1      -2.499  -2.673   0.017  0.00  0.00    +0.021 A 
ATOM     22  C   UNL     1      -1.255  -2.027   0.003  0.00  0.00    +0.175 A 
BRANCH  17  24
ATOM     23  C   UNL     1      -0.017   1.425   0.010  0.00  0.00    +0.277 C 
ATOM     24  O   UNL     1       0.002  -0.004   0.002  0.00  0.00    -0.491 OA
ENDBRANCH  17  24
BRANCH  22  25
ATOM     25  O   UNL     1      -0.108  -2.754  -0.012  0.00  0.00    -0.430 OA
BRANCH  25  26
ATOM     26  C   UNL     1       0.452  -3.109   1.254  0.00  0.00    +0.541 C 
ATOM     27  F   UNL     1       0.753  -1.947   1.973  0.00  0.00    -0.166 F 
ATOM     28  F   UNL     1      -0.471  -3.876   1.974  0.00  0.00    -0.166 F 
ENDBRANCH  25  26
ENDBRANCH  22  25
ENDBRANCH  15  21
ENDBRANCH  13  16
ENDBRANCH   1  13
BRANCH   8  29
ATOM     29  C   UNL     1      -5.653 -14.421  -0.135  0.00  0.00    -0.043 C 
BRANCH  29  30
ATOM     30  C   UNL     1      -6.804 -14.707  -1.064  0.00  0.00    -0.064 A 
ATOM     31  C   UNL     1      -8.099 -14.434  -0.666  0.00  0.00    +0.002 A 
ATOM     32  C   UNL     1      -9.155 -14.697  -1.518  0.00  0.00    +0.000 A 
ATOM     33  C   UNL     1      -8.916 -15.233  -2.770  0.00  0.00    +0.000 A 
ATOM     34  C   UNL     1      -7.620 -15.506  -3.169  0.00  0.00    +0.000 A 
ATOM     35  C   UNL     1      -6.564 -15.239  -2.318  0.00  0.00    +0.002 A 
ENDBRANCH  29  30
ENDBRANCH   8  29
TORSDOF 8
