REMARK  Name = ZINC59020870
REMARK  7 active torsions:
REMARK  status: ('A' for Active; 'I' for Inactive)
REMARK    1  A    between atoms: C_1  and  C_2
REMARK    2  A    between atoms: C_2  and  C_23
REMARK    3  A    between atoms: N_3  and  N_4
REMARK    4  A    between atoms: C_7  and  S_10
REMARK    5  A    between atoms: S_10  and  C_11
REMARK    6  A    between atoms: C_11  and  C_12
REMARK    7  A    between atoms: N_14  and  C_15
REMARK                            x       y       z     vdW  Elec       q    Type
REMARK                         _______ _______ _______ _____ _____    ______ ____
ROOT
ATOM      1  N   UNL     1      -1.061  -1.497   1.394  0.00  0.00    -0.205 N 
ATOM      2  C   UNL     1      -1.636  -1.733   2.629  0.00  0.00    +0.232 A 
ATOM      3  N   UNL     1      -1.514  -0.972   3.697  0.00  0.00    -0.186 NA
ATOM      4  C   UNL     1      -2.205  -1.506   4.710  0.00  0.00    +0.211 A 
ATOM      5  N   UNL     1      -2.776  -2.614   4.300  0.00  0.00    -0.144 NA
ATOM      6  N   UNL     1      -2.426  -2.780   2.951  0.00  0.00    -0.245 N 
ATOM      7  H   UNL     1      -1.213  -2.116   0.662  0.00  0.00    +0.177 HD
ATOM      8  H   UNL     1      -2.696  -3.504   2.365  0.00  0.00    +0.192 HD
ENDROOT
BRANCH   1  11
ATOM      9  C   UNL     1       1.191   1.028  -0.168  0.00  0.00    +0.068 C 
ATOM     10  C   UNL     1       0.194  -0.088   0.014  0.00  0.00    +0.063 C 
ATOM     11  N   UNL     1      -0.260  -0.365   1.198  0.00  0.00    -0.184 NA
BRANCH  10  12
ATOM     12  C   UNL     1      -0.265  -0.864  -1.152  0.00  0.00    -0.002 A 
ATOM     13  C   UNL     1      -1.581  -1.329  -1.211  0.00  0.00    +0.011 A 
ATOM     14  C   UNL     1      -2.005  -2.054  -2.305  0.00  0.00    +0.016 A 
ATOM     15  C   UNL     1      -1.129  -2.321  -3.344  0.00  0.00    +0.018 A 
ATOM     16  C   UNL     1       0.177  -1.864  -3.291  0.00  0.00    +0.016 A 
ATOM     17  C   UNL     1       0.612  -1.133  -2.206  0.00  0.00    +0.011 A 
ATOM     18 BR   UNL     1      -1.718  -3.317  -4.839  0.00  0.00    -0.050 Br
ENDBRANCH  10  12
ENDBRANCH   1  11
BRANCH   4  19
ATOM     19  S   UNL     1      -2.328  -0.831   6.333  0.00  0.00    -0.075 S 
BRANCH  19  20
ATOM     20  C   UNL     1      -3.388  -2.007   7.218  0.00  0.00    +0.173 C 
BRANCH  20  21
ATOM     21  C   UNL     1      -3.576  -1.542   8.639  0.00  0.00    +0.227 C 
ATOM     22  O   UNL     1      -3.048  -0.518   9.018  0.00  0.00    -0.275 OA
ATOM     23  N   UNL     1      -4.332  -2.264   9.490  0.00  0.00    -0.285 N 
ATOM     24  H   UNL     1      -4.806  -3.048   9.172  0.00  0.00    +0.155 HD
BRANCH  23  25
ATOM     25  C   UNL     1      -4.434  -1.882  10.833  0.00  0.00    +0.036 A 
ATOM     26  C   UNL     1      -4.449  -2.847  11.832  0.00  0.00    +0.026 A 
ATOM     27  C   UNL     1      -4.549  -2.469  13.156  0.00  0.00    +0.043 A 
ATOM     28  C   UNL     1      -4.636  -1.128  13.491  0.00  0.00    +0.159 A 
ATOM     29  C   UNL     1      -4.622  -0.162  12.496  0.00  0.00    +0.160 A 
ATOM     30  C   UNL     1      -4.516  -0.537  11.169  0.00  0.00    +0.064 A 
ATOM     31  F   UNL     1      -4.707   1.146  12.824  0.00  0.00    -0.202 F 
ATOM     32  F   UNL     1      -4.735  -0.761  14.787  0.00  0.00    -0.202 F 
ENDBRANCH  23  25
ENDBRANCH  20  21
ENDBRANCH  19  20
ENDBRANCH   4  19
TORSDOF 6
