REMARK  Name = ZINC53547966
REMARK  7 active torsions:
REMARK  status: ('A' for Active; 'I' for Inactive)
REMARK    1  A    between atoms: C_1  and  C_2
REMARK    2  A    between atoms: C_2  and  C_4
REMARK    3  A    between atoms: C_2  and  N_14
REMARK    4  A    between atoms: N_17  and  C_18
REMARK    5  A    between atoms: C_18  and  C_19
REMARK    6  A    between atoms: C_19  and  C_21
REMARK    7  A    between atoms: C_19  and  N_26
REMARK                            x       y       z     vdW  Elec       q    Type
REMARK                         _______ _______ _______ _____ _____    ______ ____
ROOT
ATOM      1  N   UNL     1      -1.393  -0.553   0.078  0.00  0.00    -0.293 N 
ATOM      2  C   UNL     1      -2.019  -0.770  -1.095  0.00  0.00    +0.300 C 
ATOM      3  O   UNL     1      -1.419  -0.621  -2.142  0.00  0.00    -0.253 OA
ATOM      4  N   UNL     1      -3.311  -1.153  -1.109  0.00  0.00    -0.301 N 
ATOM      5  H   UNL     1      -1.872  -0.673   0.913  0.00  0.00    +0.151 HD
ATOM      6  H   UNL     1      -3.790  -1.273  -0.274  0.00  0.00    +0.150 HD
ENDROOT
BRANCH   1   8
ATOM      7  C   UNL     1       0.095   1.383  -0.065  0.00  0.00    +0.033 C 
ATOM      8  C   UNL     1       0.012  -0.137   0.092  0.00  0.00    +0.102 C 
BRANCH   8   9
ATOM      9  C   UNL     1       0.642  -0.541   1.400  0.00  0.00    -0.024 A 
ATOM     10  C   UNL     1      -0.072  -0.419   2.577  0.00  0.00    +0.009 A 
ATOM     11  C   UNL     1       0.503  -0.788   3.779  0.00  0.00    +0.050 A 
ATOM     12  C   UNL     1       1.799  -1.282   3.806  0.00  0.00    +0.162 A 
ATOM     13  C   UNL     1       2.516  -1.407   2.622  0.00  0.00    +0.162 A 
ATOM     14  C   UNL     1       1.931  -1.039   1.419  0.00  0.00    +0.055 A 
ATOM     15  O   UNL     1       3.786  -1.896   2.625  0.00  0.00    -0.485 OA
ATOM     16  C   UNL     1       4.468  -1.909   3.885  0.00  0.00    +0.270 C 
ATOM     17  C   UNL     1       3.512  -2.477   4.942  0.00  0.00    +0.270 C 
ATOM     18  O   UNL     1       2.354  -1.637   4.997  0.00  0.00    -0.485 OA
ENDBRANCH   8   9
ENDBRANCH   1   8
BRANCH   4  19
ATOM     19  C   UNL     1      -3.992  -1.389  -2.384  0.00  0.00    +0.095 C 
BRANCH  19  20
ATOM     20  C   UNL     1      -5.405  -1.913  -2.119  0.00  0.00    -0.013 C 
BRANCH  20  21
ATOM     21  N   UNL     1      -6.041  -2.274  -3.393  0.00  0.00    +0.386 N 
ATOM     22  C   UNL     1      -5.288  -3.374  -4.048  0.00  0.00    -0.078 C 
ATOM     23  C   UNL     1      -6.333  -3.997  -5.007  0.00  0.00    -0.020 C 
ATOM     24  C   UNL     1      -7.644  -3.914  -4.191  0.00  0.00    -0.020 C 
ATOM     25  C   UNL     1      -7.401  -2.804  -3.152  0.00  0.00    -0.078 C 
ATOM     26  H   UNL     1      -6.084  -1.470  -4.001  0.00  0.00    -0.081 HD
ENDBRANCH  20  21
BRANCH  20  27
ATOM     27  C   UNL     1      -6.218  -0.842  -1.437  0.00  0.00    -0.022 A 
ATOM     28  C   UNL     1      -6.512  -0.701  -0.122  0.00  0.00    +0.009 A 
ATOM     29  C   UNL     1      -7.283   0.373   0.281  0.00  0.00    +0.008 A 
ATOM     30  C   UNL     1      -7.723   1.253  -0.651  0.00  0.00    +0.045 A 
ATOM     31  S   UNL     1      -7.036   0.574  -2.152  0.00  0.00    -0.103 S 
ENDBRANCH  20  27
ENDBRANCH  19  20
ENDBRANCH   4  19
TORSDOF 6
