REMARK  Name = ZINC21934066
REMARK  6 active torsions:
REMARK  status: ('A' for Active; 'I' for Inactive)
REMARK    1  A    between atoms: C_1  and  C_2
REMARK    2  A    between atoms: C_2  and  C_4
REMARK    3  A    between atoms: C_2  and  N_14
REMARK    4  A    between atoms: C_15  and  C_17
REMARK    5  A    between atoms: C_17  and  N_18
REMARK    6  A    between atoms: N_27  and  C_30
REMARK                            x       y       z     vdW  Elec       q    Type
REMARK                         _______ _______ _______ _____ _____    ______ ____
ROOT
ATOM      1  N   UNL     1       2.426   5.064   1.411  0.00  0.00    -0.307 N 
ATOM      2  C   UNL     1       2.000   3.797   1.240  0.00  0.00    +0.231 C 
ATOM      3  O   UNL     1       1.842   3.076   2.202  0.00  0.00    -0.274 OA
ATOM      4  H   UNL     1       2.569   5.719   0.539  0.00  0.00    +0.149 HD
ENDROOT
BRANCH   1   6
ATOM      5  C   UNL     1       1.397   6.078   3.385  0.00  0.00    +0.033 C 
ATOM      6  C   UNL     1       2.698   5.570   2.759  0.00  0.00    +0.100 C 
BRANCH   6   7
ATOM      7  C   UNL     1       3.692   6.700   2.681  0.00  0.00    -0.027 A 
ATOM      8  C   UNL     1       3.610   7.627   1.658  0.00  0.00    +0.006 A 
ATOM      9  C   UNL     1       4.522   8.660   1.595  0.00  0.00    +0.004 A 
ATOM     10  C   UNL     1       5.531   8.770   2.544  0.00  0.00    -0.044 A 
ATOM     11  C   UNL     1       5.614   7.845   3.561  0.00  0.00    -0.044 A 
ATOM     12  C   UNL     1       4.691   6.809   3.625  0.00  0.00    +0.009 A 
ATOM     13  C   UNL     1       6.675   7.908   4.628  0.00  0.00    +0.035 C 
ATOM     14  C   UNL     1       7.829   8.805   4.187  0.00  0.00    +0.005 C 
ATOM     15  C   UNL     1       7.248  10.144   3.718  0.00  0.00    +0.005 C 
ATOM     16  C   UNL     1       6.502   9.913   2.406  0.00  0.00    +0.035 C 
ENDBRANCH   6   7
ENDBRANCH   1   6
BRANCH   2  17
ATOM     17  C   UNL     1       1.720   3.277  -0.147  0.00  0.00    +0.213 C 
BRANCH  17  18
ATOM     18  N   UNL     1       1.273   1.885  -0.065  0.00  0.00    -0.215 N 
ATOM     19  C   UNL     1      -0.016   1.508   0.062  0.00  0.00    +0.247 C 
ATOM     20  O   UNL     1      -0.989   2.229   0.123  0.00  0.00    -0.273 OA
ATOM     21  C   UNL     1       0.007  -0.003   0.104  0.00  0.00    +0.115 C 
ATOM     22  C   UNL     1      -0.778  -0.580  -1.069  0.00  0.00    +0.035 C 
ATOM     23  C   UNL     1      -0.717  -2.109  -1.024  0.00  0.00    +0.003 C 
ATOM     24  C   UNL     1      -1.306  -2.603   0.299  0.00  0.00    +0.000 C 
ATOM     25  C   UNL     1      -0.494  -2.035   1.464  0.00  0.00    +0.003 C 
ATOM     26  C   UNL     1      -0.554  -0.506   1.430  0.00  0.00    +0.035 C 
ATOM     27  N   UNL     1       1.431  -0.341  -0.013  0.00  0.00    -0.274 N 
ATOM     28  C   UNL     1       2.094   0.828  -0.107  0.00  0.00    +0.312 C 
ATOM     29  O   UNL     1       3.301   0.913  -0.219  0.00  0.00    -0.252 OA
ATOM     30  C   UNL     1       2.016  -1.685  -0.026  0.00  0.00    +0.134 C 
ENDBRANCH  17  18
ENDBRANCH   2  17
TORSDOF 4
