REMARK  Name = ZINC39096203
REMARK  6 active torsions:
REMARK  status: ('A' for Active; 'I' for Inactive)
REMARK    1  A    between atoms: C_2  and  C_10
REMARK    2  A    between atoms: C_3  and  O_9
REMARK    3  A    between atoms: C_5  and  O_8
REMARK    4  A    between atoms: C_6  and  O_7
REMARK    5  A    between atoms: C_11  and  C_12
REMARK    6  A    between atoms: C_11  and  C_14
REMARK                            x       y       z     vdW  Elec       q    Type
REMARK                         _______ _______ _______ _____ _____    ______ ____
ROOT
ATOM      1  C   UNL     1      -0.028   1.393  -0.228  0.00  0.00    +0.060 A 
ATOM      2  C   UNL     1       1.175   2.089  -0.033  0.00  0.00    +0.022 A 
ATOM      3  C   UNL     1       2.377   1.374   0.122  0.00  0.00    +0.128 A 
ATOM      4  C   UNL     1       2.365  -0.009   0.080  0.00  0.00    +0.095 A 
ATOM      5  C   UNL     1       1.172  -0.689  -0.114  0.00  0.00    +0.162 A 
ATOM      6  C   UNL     1      -0.025   0.016  -0.268  0.00  0.00    +0.159 A 
ENDROOT
BRANCH   6   7
ATOM      7  O   UNL     1      -1.190  -0.660  -0.457  0.00  0.00    -0.503 OA
ATOM      8  H   UNL     1      -1.400  -0.830  -1.385  0.00  0.00    +0.292 HD
ENDBRANCH   6   7
BRANCH   5   9
ATOM      9  O   UNL     1       1.167  -2.046  -0.155  0.00  0.00    -0.503 OA
ATOM     10  H   UNL     1       1.038  -2.465   0.707  0.00  0.00    +0.292 HD
ENDBRANCH   5   9
BRANCH   3  11
ATOM     11  O   UNL     1       3.545   2.039   0.311  0.00  0.00    -0.506 OA
ATOM     12  H   UNL     1       3.756   2.207   1.239  0.00  0.00    +0.292 HD
ENDBRANCH   3  11
BRANCH   2  13
ATOM     13  C   UNL     1       1.179   3.550   0.009  0.00  0.00    +0.041 C 
ATOM     14  C   UNL     1       0.096   4.229   0.528  0.00  0.00    +0.129 C 
BRANCH  14  15
ATOM     15  C   UNL     1       0.035   5.657   0.439  0.00  0.00    +0.110 C 
ATOM     16  N   UNL     1      -0.013   6.789   0.368  0.00  0.00    -0.190 NA
ENDBRANCH  14  15
BRANCH  14  17
ATOM     17  C   UNL     1      -0.969   3.505   1.155  0.00  0.00    +0.110 C 
ATOM     18  N   UNL     1      -1.813   2.930   1.653  0.00  0.00    -0.190 NA
ENDBRANCH  14  17
ENDBRANCH   2  13
TORSDOF 6
