REMARK  Name = ZINC50895475
REMARK  7 active torsions:
REMARK  status: ('A' for Active; 'I' for Inactive)
REMARK    1  A    between atoms: C_1  and  C_2
REMARK    2  A    between atoms: C_6  and  C_8
REMARK    3  A    between atoms: C_8  and  N_9
REMARK    4  A    between atoms: C_13  and  C_16
REMARK    5  A    between atoms: N_18  and  C_19
REMARK    6  A    between atoms: C_22  and  C_25
REMARK    7  A    between atoms: C_29  and  C_31
REMARK                            x       y       z     vdW  Elec       q    Type
REMARK                         _______ _______ _______ _____ _____    ______ ____
ROOT
ATOM      1  C   UNL     1       3.796  -1.547   5.417  0.00  0.00    +0.253 C 
ATOM      2  O   UNL     1       4.617  -1.883   6.250  0.00  0.00    -0.270 OA
ATOM      3  N   UNL     1       3.479  -0.245   5.271  0.00  0.00    -0.281 N 
ATOM      4  H   UNL     1       2.770   0.016   4.662  0.00  0.00    +0.155 HD
ENDROOT
BRANCH   1   9
ATOM      5  N   UNL     1       1.523  -3.141   2.914  0.00  0.00    -0.310 N 
ATOM      6  C   UNL     1       1.922  -4.434   2.973  0.00  0.00    +0.089 A 
ATOM      7  C   UNL     1       2.918  -4.826   3.808  0.00  0.00    +0.019 A 
ATOM      8  C   UNL     1       3.554  -3.893   4.626  0.00  0.00    +0.020 A 
ATOM      9  C   UNL     1       3.150  -2.561   4.570  0.00  0.00    +0.101 A 
ATOM     10  C   UNL     1       2.107  -2.199   3.679  0.00  0.00    +0.264 A 
ATOM     11  O   UNL     1       1.738  -1.039   3.608  0.00  0.00    -0.267 OA
BRANCH   5  12
ATOM     12  C   UNL     1       0.444  -2.761   2.000  0.00  0.00    +0.160 C 
BRANCH  12  18
ATOM     13  C   UNL     1       2.322   0.687  -1.103  0.00  0.00    +0.044 C 
ATOM     14  C   UNL     1       1.925  -0.740  -0.824  0.00  0.00    -0.050 A 
ATOM     15  C   UNL     1       2.096  -1.708  -1.796  0.00  0.00    +0.003 A 
ATOM     16  C   UNL     1       1.731  -3.016  -1.540  0.00  0.00    +0.001 A 
ATOM     17  C   UNL     1       1.196  -3.357  -0.311  0.00  0.00    +0.005 A 
ATOM     18  C   UNL     1       1.027  -2.389   0.661  0.00  0.00    -0.027 A 
ATOM     19  C   UNL     1       1.395  -1.081   0.406  0.00  0.00    +0.008 A 
ENDBRANCH  12  18
ENDBRANCH   5  12
ENDBRANCH   1   9
BRANCH   3  20
ATOM     20  C   UNL     1       4.171   0.728   5.995  0.00  0.00    +0.034 A 
ATOM     21  C   UNL     1       5.518   0.548   6.288  0.00  0.00    +0.024 A 
ATOM     22  C   UNL     1       6.203   1.506   7.003  0.00  0.00    +0.013 A 
ATOM     23  C   UNL     1       5.543   2.658   7.433  0.00  0.00    +0.019 A 
ATOM     24  C   UNL     1       4.191   2.836   7.138  0.00  0.00    +0.013 A 
ATOM     25  C   UNL     1       3.512   1.877   6.418  0.00  0.00    +0.024 A 
BRANCH  23  26
ATOM     26  C   UNL     1       6.276   3.688   8.201  0.00  0.00    +0.156 A 
ATOM     27  N   UNL     1       5.759   4.843   8.680  0.00  0.00    -0.259 N 
ATOM     28  H   UNL     1       4.845   5.154   8.588  0.00  0.00    +0.191 HD
ATOM     29  N   UNL     1       6.811   5.502   9.337  0.00  0.00    -0.157 NA
ATOM     30  C   UNL     1       7.868   4.740   9.225  0.00  0.00    +0.148 A 
ATOM     31  N   UNL     1       7.547   3.643   8.545  0.00  0.00    -0.212 NA
ATOM     32  C   UNL     1       9.232   5.053   9.784  0.00  0.00    +0.090 C 
ENDBRANCH  23  26
ENDBRANCH   3  20
TORSDOF 5
