REMARK  Name = ZINC65885041
REMARK  5 active torsions:
REMARK  status: ('A' for Active; 'I' for Inactive)
REMARK    1  A    between atoms: C_1  and  C_2
REMARK    2  A    between atoms: C_3  and  C_13
REMARK    3  A    between atoms: N_15  and  C_16
REMARK    4  A    between atoms: C_16  and  C_17
REMARK    5  A    between atoms: C_17  and  C_22
REMARK                            x       y       z     vdW  Elec       q    Type
REMARK                         _______ _______ _______ _____ _____    ______ ____
ROOT
ATOM      1  C   UNL     1      -2.005   0.411   0.534  0.00  0.00    +0.248 C 
ATOM      2  O   UNL     1      -2.417   0.623  -0.591  0.00  0.00    -0.270 OA
ATOM      3  N   UNL     1      -2.874   0.250   1.551  0.00  0.00    -0.310 N 
ATOM      4  H   UNL     1      -2.546   0.081   2.448  0.00  0.00    +0.149 HD
ENDROOT
BRANCH   1   7
ATOM      5  C   UNL     1      -0.131   2.789   1.292  0.00  0.00    +0.087 C 
ATOM      6  C   UNL     1       0.281   1.350   1.115  0.00  0.00    +0.117 A 
ATOM      7  C   UNL     1      -0.556   0.329   0.784  0.00  0.00    +0.092 A 
ATOM      8  C   UNL     1       0.290  -0.874   0.728  0.00  0.00    +0.116 A 
ATOM      9  C   UNL     1       0.068  -2.239   0.448  0.00  0.00    +0.263 A 
ATOM     10  O   UNL     1      -1.046  -2.650   0.172  0.00  0.00    -0.267 OA
ATOM     11  N   UNL     1       1.128  -3.079   0.495  0.00  0.00    -0.313 N 
ATOM     12  H   UNL     1       1.007  -4.023   0.307  0.00  0.00    +0.170 HD
ATOM     13  C   UNL     1       2.359  -2.602   0.803  0.00  0.00    +0.203 A 
ATOM     14  N   UNL     1       2.576  -1.343   1.063  0.00  0.00    -0.202 NA
ATOM     15  C   UNL     1       1.581  -0.443   1.039  0.00  0.00    +0.235 A 
ATOM     16  O   UNL     1       1.528   0.881   1.255  0.00  0.00    -0.441 OA
ENDBRANCH   1   7
BRANCH   3  17
ATOM     17  C   UNL     1      -4.316   0.331   1.302  0.00  0.00    +0.116 C 
BRANCH  17  18
ATOM     18  C   UNL     1      -5.068   0.253   2.633  0.00  0.00    +0.011 C 
ATOM     19  C   UNL     1      -4.613   1.395   3.565  0.00  0.00    +0.013 C 
ATOM     20  C   UNL     1      -5.668   2.508   3.345  0.00  0.00    +0.001 C 
ATOM     21  C   UNL     1      -6.985   1.706   3.196  0.00  0.00    +0.001 C 
ATOM     22  C   UNL     1      -6.576   0.451   2.398  0.00  0.00    +0.013 C 
BRANCH  18  23
ATOM     23  C   UNL     1      -4.819  -1.081   3.288  0.00  0.00    -0.040 A 
ATOM     24  C   UNL     1      -5.303  -1.327   4.559  0.00  0.00    +0.005 A 
ATOM     25  C   UNL     1      -5.075  -2.550   5.161  0.00  0.00    +0.020 A 
ATOM     26  C   UNL     1      -4.361  -3.528   4.492  0.00  0.00    +0.041 A 
ATOM     27  C   UNL     1      -3.876  -3.281   3.220  0.00  0.00    +0.020 A 
ATOM     28  C   UNL     1      -4.110  -2.059   2.616  0.00  0.00    +0.005 A 
ATOM     29 CL   UNL     1      -4.073  -5.064   5.247  0.00  0.00    -0.084 Cl
ENDBRANCH  18  23
ENDBRANCH  17  18
ENDBRANCH   3  17
TORSDOF 4
