REMARK  Name = ZINC37558175
REMARK  4 active torsions:
REMARK  status: ('A' for Active; 'I' for Inactive)
REMARK    1  A    between atoms: C_2  and  N_10
REMARK    2  A    between atoms: N_10  and  S_11
REMARK    3  A    between atoms: S_11  and  C_14
REMARK    4  A    between atoms: C_19  and  N_20
REMARK                            x       y       z     vdW  Elec       q    Type
REMARK                         _______ _______ _______ _____ _____    ______ ____
ROOT
ATOM      1  S   UNL     1       2.581   4.329   0.125  0.00  0.00    +0.096 S 
ATOM      2  O   UNL     1       3.171   3.963   1.365  0.00  0.00    -0.148 OA
ATOM      3  O   UNL     1       3.254   4.165  -1.116  0.00  0.00    -0.148 OA
ENDROOT
BRANCH   1   4
ATOM      4  C   UNL     1       2.164   6.037   0.250  0.00  0.00    +0.166 A 
ATOM      5  C   UNL     1       2.399   6.863   1.353  0.00  0.00    +0.133 A 
ATOM      6  N   UNL     1       1.953   8.060   1.071  0.00  0.00    -0.304 N 
ATOM      7  H   UNL     1       1.016   8.791  -0.686  0.00  0.00    +0.188 HD
ATOM      8  N   UNL     1       1.417   8.040  -0.222  0.00  0.00    -0.286 N 
ATOM      9  C   UNL     1       1.561   6.787  -0.712  0.00  0.00    +0.137 A 
ATOM     10  H   UNL     1       1.988   8.831   1.659  0.00  0.00    +0.186 HD
BRANCH   9  11
ATOM     11  N   UNL     1       1.162   6.346  -1.971  0.00  0.00    -0.342 N 
ATOM     12  H   UNL     1       1.308   5.422  -2.229  0.00  0.00    +0.144 HD
ATOM     13  H   UNL     1       0.738   6.961  -2.589  0.00  0.00    +0.144 HD
ENDBRANCH   9  11
ENDBRANCH   1   4
BRANCH   1  14
ATOM     14  N   UNL     1       1.161   3.485   0.009  0.00  0.00    -0.096 NA
BRANCH  14  16
ATOM     15  C   UNL     1       2.387   1.408  -0.074  0.00  0.00    +0.049 A 
ATOM     16  C   UNL     1       1.178   2.087  -0.013  0.00  0.00    +0.094 A 
ATOM     17  C   UNL     1      -0.015   1.376   0.025  0.00  0.00    +0.067 A 
ATOM     18  C   UNL     1       0.005  -0.006   0.003  0.00  0.00    +0.043 A 
ATOM     19  C   UNL     1       1.211  -0.681  -0.057  0.00  0.00    +0.061 A 
ATOM     20  C   UNL     1       2.402   0.026  -0.096  0.00  0.00    +0.061 A 
ATOM     21 CL   UNL     1       3.913  -0.825  -0.171  0.00  0.00    -0.082 Cl
ATOM     22 CL   UNL     1       1.232  -2.417  -0.084  0.00  0.00    -0.082 Cl
ATOM     23 CL   UNL     1      -1.529   2.222   0.101  0.00  0.00    -0.081 Cl
ENDBRANCH  14  16
ENDBRANCH   1  14
TORSDOF 4
