REMARK  Name = ZINC02228761
REMARK  7 active torsions:
REMARK  status: ('A' for Active; 'I' for Inactive)
REMARK    1  A    between atoms: C_1  and  C_2
REMARK    2  A    between atoms: C_2  and  O_3
REMARK    3  A    between atoms: O_3  and  C_4
REMARK    4  A    between atoms: C_4  and  C_6
REMARK    5  A    between atoms: C_7  and  C_23
REMARK    6  A    between atoms: C_14  and  C_16
REMARK    7  A    between atoms: C_21  and  O_22
REMARK                            x       y       z     vdW  Elec       q    Type
REMARK                         _______ _______ _______ _____ _____    ______ ____
ROOT
ATOM      1  C   UNL     1      -2.106   3.166   1.024  0.00  0.00    +0.087 C 
ATOM      2  C   UNL     1      -1.377   4.290   1.240  0.00  0.00    +0.053 C 
ATOM      3  N   UNL     1      -0.500   4.782   0.293  0.00  0.00    -0.283 N 
ATOM      4  C   UNL     1      -0.578   4.250  -0.986  0.00  0.00    +0.219 A 
ATOM      5  N   UNL     1      -0.048   4.670  -2.103  0.00  0.00    -0.201 NA
ATOM      6  C   UNL     1      -0.396   3.849  -3.099  0.00  0.00    +0.247 A 
ATOM      7  N   UNL     1      -1.153   2.891  -2.623  0.00  0.00    -0.156 NA
ATOM      8  N   UNL     1      -1.285   3.125  -1.255  0.00  0.00    -0.221 N 
ATOM      9  C   UNL     1      -2.015   2.363  -0.246  0.00  0.00    +0.183 C 
ATOM     10  H   UNL     1       0.143   5.474   0.513  0.00  0.00    +0.155 HD
ENDROOT
BRANCH   9  11
ATOM     11  C   UNL     1      -1.289   1.071   0.029  0.00  0.00    +0.023 A 
ATOM     12  C   UNL     1       0.011   1.093   0.496  0.00  0.00    +0.009 A 
ATOM     13  C   UNL     1       0.679  -0.092   0.743  0.00  0.00    +0.001 A 
ATOM     14  C   UNL     1       0.048  -1.302   0.522  0.00  0.00    +0.004 A 
ATOM     15  C   UNL     1      -1.252  -1.331   0.055  0.00  0.00    +0.046 A 
ATOM     16  C   UNL     1      -1.924  -0.143  -0.193  0.00  0.00    +0.122 A 
BRANCH  16  17
ATOM     17  O   UNL     1      -3.203  -0.168  -0.652  0.00  0.00    -0.506 OA
ATOM     18  H   UNL     1      -3.275  -0.179  -1.616  0.00  0.00    +0.292 HD
ENDBRANCH  16  17
ENDBRANCH   9  11
BRANCH   2  19
ATOM     19  C   UNL     1      -1.525   5.006   2.523  0.00  0.00    -0.003 A 
ATOM     20  C   UNL     1      -2.108   6.274   2.555  0.00  0.00    +0.010 A 
ATOM     21  C   UNL     1      -2.246   6.936   3.758  0.00  0.00    +0.001 A 
ATOM     22  C   UNL     1      -1.800   6.349   4.929  0.00  0.00    +0.000 A 
ATOM     23  C   UNL     1      -1.217   5.095   4.904  0.00  0.00    +0.001 A 
ATOM     24  C   UNL     1      -1.076   4.420   3.709  0.00  0.00    +0.010 A 
ENDBRANCH   2  19
BRANCH   1  25
ATOM     25  C   UNL     1      -2.987   2.732   2.032  0.00  0.00    +0.339 C 
ATOM     26  O   UNL     1      -3.173   3.423   3.018  0.00  0.00    -0.245 OA
BRANCH  25  27
ATOM     27  O   UNL     1      -3.627   1.549   1.907  0.00  0.00    -0.462 OA
BRANCH  27  29
ATOM     28  C   UNL     1      -5.135  -0.187   2.650  0.00  0.00    +0.048 C 
ATOM     29  C   UNL     1      -4.507   1.172   2.968  0.00  0.00    +0.229 C 
ENDBRANCH  27  29
ENDBRANCH  25  27
ENDBRANCH   1  25
TORSDOF 6
