REMARK  Name = ZINC40663195
REMARK  12 active torsions:
REMARK  status: ('A' for Active; 'I' for Inactive)
REMARK    1  A    between atoms: C_1  and  C_2
REMARK    2  A    between atoms: C_2  and  C_3
REMARK    3  A    between atoms: C_6  and  C_9
REMARK    4  A    between atoms: N_11  and  C_12
REMARK    5  A    between atoms: C_12  and  C_14
REMARK    6  A    between atoms: C_12  and  C_30
REMARK    7  A    between atoms: C_16  and  O_29
REMARK    8  A    between atoms: C_18  and  O_28
REMARK    9  A    between atoms: C_20  and  O_27
REMARK   10  A    between atoms: C_22  and  S_25
REMARK   11  A    between atoms: S_25  and  C_26
REMARK   12  A    between atoms: C_30  and  C_32
REMARK                            x       y       z     vdW  Elec       q    Type
REMARK                         _______ _______ _______ _____ _____    ______ ____
ROOT
ATOM      1  C   UNL     1       4.878  -2.509  -5.717  0.00  0.00    +0.122 C 
ENDROOT
BRANCH   1   2
ATOM      2  C   UNL     1       6.151  -3.226  -5.262  0.00  0.00    +0.172 C 
ATOM      3  C   UNL     1       5.777  -4.421  -4.381  0.00  0.00    +0.176 C 
ATOM      4  C   UNL     1       4.954  -5.415  -5.206  0.00  0.00    +0.177 C 
ATOM      5  C   UNL     1       5.761  -5.832  -6.439  0.00  0.00    +0.184 C 
ATOM      6  C   UNL     1       6.136  -4.582  -7.240  0.00  0.00    +0.207 C 
ATOM      7  O   UNL     1       6.874  -3.686  -6.406  0.00  0.00    -0.356 OA
BRANCH   6   8
ATOM      8  S   UNL     1       7.153  -5.059  -8.664  0.00  0.00    -0.131 S 
ATOM      9  C   UNL     1       7.380  -3.510  -9.580  0.00  0.00    +0.087 C 
ENDBRANCH   6   8
BRANCH   5  10
ATOM     10  O   UNL     1       6.950  -6.509  -6.025  0.00  0.00    -0.386 OA
ATOM     11  H   UNL     1       7.511  -6.802  -6.756  0.00  0.00    +0.210 HD
ENDBRANCH   5  10
BRANCH   4  12
ATOM     12  O   UNL     1       4.661  -6.567  -4.412  0.00  0.00    -0.386 OA
ATOM     13  H   UNL     1       4.140  -7.240  -4.873  0.00  0.00    +0.210 HD
ENDBRANCH   4  12
BRANCH   3  14
ATOM     14  O   UNL     1       6.967  -5.059  -3.912  0.00  0.00    -0.387 OA
ATOM     15  H   UNL     1       6.805  -5.826  -3.346  0.00  0.00    +0.210 HD
ENDBRANCH   3  14
ENDBRANCH   1   2
BRANCH   1  18
ATOM     16  C   UNL     1       2.806  -1.843  -4.622  0.00  0.00    +0.263 C 
ATOM     17  O   UNL     1       2.220  -2.058  -5.664  0.00  0.00    -0.269 OA
ATOM     18  N   UNL     1       4.138  -2.038  -4.544  0.00  0.00    -0.303 N 
ATOM     19  H   UNL     1       4.605  -1.867  -3.712  0.00  0.00    +0.149 HD
BRANCH  16  23
ATOM     20  C   UNL     1       0.707  -0.490  -1.238  0.00  0.00    -0.029 A 
ATOM     21  C   UNL     1      -0.006  -0.721  -2.404  0.00  0.00    +0.007 A 
ATOM     22  C   UNL     1       0.681  -1.167  -3.522  0.00  0.00    +0.033 A 
ATOM     23  C   UNL     1       2.057  -1.367  -3.435  0.00  0.00    +0.125 A 
ATOM     24  N   UNL     1       2.703  -1.134  -2.299  0.00  0.00    -0.250 NA
ATOM     25  C   UNL     1       2.076  -0.705  -1.225  0.00  0.00    +0.115 A 
BRANCH  20  27
ATOM     26  C   UNL     1      -0.019   1.526   0.010  0.00  0.00    +0.009 C 
ATOM     27  C   UNL     1       0.002  -0.004   0.002  0.00  0.00    +0.033 C 
ENDBRANCH  20  27
ENDBRANCH  16  23
ENDBRANCH   1  18
BRANCH   1  28
ATOM     28  C   UNL     1       5.252  -1.315  -6.598  0.00  0.00    +0.100 C 
ATOM     29  C   UNL     1       3.990  -0.526  -6.950  0.00  0.00    +0.026 C 
ATOM     30 CL   UNL     1       6.399  -0.247  -5.707  0.00  0.00    -0.120 Cl
ENDBRANCH   1  28
TORSDOF 9
