REMARK  Name = ZINC33271266
REMARK  6 active torsions:
REMARK  status: ('A' for Active; 'I' for Inactive)
REMARK    1  A    between atoms: C_1  and  C_2
REMARK    2  A    between atoms: C_7  and  C_8
REMARK    3  A    between atoms: C_8  and  O_9
REMARK    4  A    between atoms: O_9  and  C_10
REMARK    5  A    between atoms: C_15  and  C_16
REMARK    6  A    between atoms: C_33  and  C_36
REMARK                            x       y       z     vdW  Elec       q    Type
REMARK                         _______ _______ _______ _____ _____    ______ ____
ROOT
ATOM      1  C   UNL     1       8.752   0.483  -0.765  0.00  0.00    +0.066 C 
ATOM      2  C   UNL     1       8.374   1.393  -1.938  0.00  0.00    +0.109 C 
ATOM      3  C   UNL     1       7.057   2.075  -1.703  0.00  0.00    +0.219 C 
ATOM      4  O   UNL     1       6.911   3.215  -2.090  0.00  0.00    -0.275 OA
ATOM      5  N   UNL     1       6.030   1.462  -1.077  0.00  0.00    -0.270 N 
ATOM      6  C   UNL     1       6.259   0.203  -0.523  0.00  0.00    +0.134 A 
ATOM      7  C   UNL     1       7.526  -0.289  -0.351  0.00  0.00    +0.020 A 
ATOM      8  C   UNL     1       7.422  -1.545   0.230  0.00  0.00    +0.141 A 
ATOM      9  N   UNL     1       6.149  -1.811   0.412  0.00  0.00    -0.171 NA
ATOM     10  N   UNL     1       5.395  -0.721  -0.054  0.00  0.00    -0.198 N 
ATOM     11  C   UNL     1       4.001  -0.616  -0.040  0.00  0.00    +0.176 A 
ATOM     12  C   UNL     1       3.216  -1.785  -0.038  0.00  0.00    +0.054 A 
ATOM     13  C   UNL     1       1.860  -1.695  -0.025  0.00  0.00    +0.054 A 
ATOM     14  C   UNL     1       1.257  -0.423  -0.012  0.00  0.00    +0.178 A 
ATOM     15  N   UNL     1       0.002  -0.004   0.002  0.00  0.00    -0.128 NA
ATOM     16  N   UNL     1      -0.015   1.283   0.009  0.00  0.00    -0.132 NA
ATOM     17  C   UNL     1       1.208   1.752  -0.000  0.00  0.00    +0.152 A 
ATOM     18  N   UNL     1       2.051   0.698  -0.014  0.00  0.00    -0.195 N 
ATOM     19  N   UNL     1       3.442   0.570  -0.028  0.00  0.00    -0.144 NA
ATOM     20  C   UNL     1       1.603   3.207   0.004  0.00  0.00    +0.090 C 
ATOM     21  H   UNL     1       5.049   1.956  -1.016  0.00  0.00    +0.156 HD
ENDROOT
BRANCH   1  27
ATOM     22  C   UNL     1      10.516   1.126   0.896  0.00  0.00    +0.125 A 
ATOM     23  C   UNL     1      10.962   1.898   1.959  0.00  0.00    +0.046 A 
ATOM     24  C   UNL     1      10.135   2.857   2.510  0.00  0.00    +0.004 A 
ATOM     25  C   UNL     1       8.863   3.048   2.003  0.00  0.00    +0.001 A 
ATOM     26  C   UNL     1       8.418   2.284   0.940  0.00  0.00    +0.008 A 
ATOM     27  C   UNL     1       9.239   1.320   0.389  0.00  0.00    +0.002 A 
BRANCH  22  28
ATOM     28  O   UNL     1      11.328   0.182   0.352  0.00  0.00    -0.487 OA
BRANCH  28  29
ATOM     29  C   UNL     1      12.629   0.038   0.925  0.00  0.00    +0.264 C 
BRANCH  29  36
ATOM     30  C   UNL     1      15.329  -0.625   1.712  0.00  0.00    +0.044 C 
ATOM     31  C   UNL     1      14.672  -1.365   0.575  0.00  0.00    -0.044 A 
ATOM     32  C   UNL     1      15.360  -2.363  -0.090  0.00  0.00    +0.004 A 
ATOM     33  C   UNL     1      14.760  -3.038  -1.136  0.00  0.00    +0.000 A 
ATOM     34  C   UNL     1      13.469  -2.718  -1.515  0.00  0.00    +0.000 A 
ATOM     35  C   UNL     1      12.780  -1.722  -0.848  0.00  0.00    +0.007 A 
ATOM     36  C   UNL     1      13.381  -1.048   0.198  0.00  0.00    -0.007 A 
ENDBRANCH  29  36
ENDBRANCH  28  29
ENDBRANCH  22  28
ENDBRANCH   1  27
TORSDOF 4
