REMARK  Name = ZINC12341647
REMARK  1 active torsions:
REMARK  status: ('A' for Active; 'I' for Inactive)
REMARK    1  A    between atoms: C_4  and  N_7
REMARK                            x       y       z     vdW  Elec       q    Type
REMARK                         _______ _______ _______ _____ _____    ______ ____
ROOT
ATOM      1  N   UNL     1       3.600  -0.631  -0.036  0.00  0.00    -0.226 NA
ATOM      2  C   UNL     1       3.792  -1.658   0.761  0.00  0.00    +0.154 C 
ATOM      3  N   UNL     1       2.768  -2.066   1.615  0.00  0.00    -0.324 N 
ATOM      4  C   UNL     1       2.037  -3.196   1.172  0.00  0.00    +0.103 C 
ATOM      5  C   UNL     1       2.534  -4.552   1.681  0.00  0.00    +0.019 C 
ATOM      6  C   UNL     1       4.085  -4.711   1.658  0.00  0.00    +0.013 C 
ATOM      7  C   UNL     1       4.795  -4.224   0.434  0.00  0.00    +0.077 C 
ATOM      8  S   UNL     1       5.283  -2.476   0.733  0.00  0.00    -0.091 S 
ATOM      9  H   UNL     1       2.571  -1.610   2.449  0.00  0.00    +0.148 HD
ENDROOT
BRANCH   1  13
ATOM     10  C   UNL     1      -0.017   1.379   0.010  0.00  0.00    +0.000 A 
ATOM     11  C   UNL     1       1.168   2.094   0.002  0.00  0.00    +0.002 A 
ATOM     12  C   UNL     1       2.377   1.430  -0.013  0.00  0.00    +0.028 A 
ATOM     13  C   UNL     1       2.404   0.034  -0.021  0.00  0.00    +0.066 A 
ATOM     14  C   UNL     1       1.204  -0.681  -0.013  0.00  0.00    +0.028 A 
ATOM     15  C   UNL     1       0.002  -0.004   0.002  0.00  0.00    +0.002 A 
ENDBRANCH   1  13
TORSDOF 1
