REMARK  Name = ZINC01229340
REMARK  6 active torsions:
REMARK  status: ('A' for Active; 'I' for Inactive)
REMARK    1  A    between atoms: C_1  and  C_2
REMARK    2  A    between atoms: C_2  and  N_3
REMARK    3  A    between atoms: C_14  and  C_16
REMARK    4  A    between atoms: C_16  and  N_52
REMARK    5  A    between atoms: C_18  and  C_25
REMARK    6  A    between atoms: C_21  and  C_24
REMARK                            x       y       z     vdW  Elec       q    Type
REMARK                         _______ _______ _______ _____ _____    ______ ____
ROOT
ATOM      1  N   UNL     1      -2.286   4.045   0.044  0.00  0.00    -0.340 N 
ATOM      2  C   UNL     1      -1.245   3.134   0.030  0.00  0.00    +0.050 A 
ATOM      3  C   UNL     1      -1.218   1.743   0.017  0.00  0.00    +0.026 A 
ATOM      4  C   UNL     1      -0.013   1.076   0.008  0.00  0.00    +0.002 A 
ATOM      5  C   UNL     1       1.182   1.780   0.000  0.00  0.00    +0.001 A 
ATOM      6  C   UNL     1       1.176   3.158   0.007  0.00  0.00    +0.010 A 
ATOM      7  C   UNL     1      -0.036   3.844   0.022  0.00  0.00    +0.008 A 
ATOM      8  C   UNL     1      -0.391   5.276   0.031  0.00  0.00    +0.008 A 
ATOM      9  C   UNL     1      -1.793   5.337   0.045  0.00  0.00    +0.050 A 
ATOM     10  C   UNL     1      -2.420   6.579   0.057  0.00  0.00    +0.026 A 
ATOM     11  C   UNL     1      -1.666   7.733   0.055  0.00  0.00    +0.004 A 
ATOM     12  C   UNL     1      -0.281   7.670   0.041  0.00  0.00    -0.063 A 
ATOM     13  C   UNL     1       0.358   6.449   0.029  0.00  0.00    +0.012 A 
ENDROOT
BRANCH   1  15
ATOM     14  C   UNL     1      -4.217   3.575  -1.382  0.00  0.00    +0.027 C 
ATOM     15  C   UNL     1      -3.708   3.692   0.056  0.00  0.00    +0.119 C 
ENDBRANCH   1  15
BRANCH  12  16
ATOM     16  C   UNL     1       0.528   8.941   0.039  0.00  0.00    -0.043 C 
BRANCH  16  24
ATOM     17  C   UNL     1       1.636   8.393  -2.043  0.00  0.00    -0.075 C 
ATOM     18  C   UNL     1       1.756   8.784  -3.517  0.00  0.00    -0.031 C 
ATOM     19  C   UNL     1       2.352  10.190  -3.621  0.00  0.00    +0.003 C 
ATOM     20  C   UNL     1       1.466  11.170  -2.848  0.00  0.00    -0.031 C 
ATOM     21  C   UNL     1       1.355  10.711  -1.392  0.00  0.00    -0.075 C 
ATOM     22  C   UNL     1       2.087  12.568  -2.896  0.00  0.00    +0.005 C 
ATOM     23  C   UNL     1       0.369   8.768  -4.164  0.00  0.00    +0.005 C 
ATOM     24  N   UNL     1       0.751   9.361  -1.360  0.00  0.00    +0.383 N 
ATOM     25  H   UNL     1      -0.152   9.389  -1.848  0.00  0.00    -0.081 HD
ENDBRANCH  16  24
ENDBRANCH  12  16
TORSDOF 3
