REMARK  Name = ZINC39462144
REMARK  9 active torsions:
REMARK  status: ('A' for Active; 'I' for Inactive)
REMARK    1  A    between atoms: C_1  and  C_2
REMARK    2  A    between atoms: C_5  and  C_30
REMARK    3  A    between atoms: C_12  and  N_15
REMARK    4  A    between atoms: C_16  and  C_18
REMARK    5  A    between atoms: C_18  and  N_19
REMARK    6  A    between atoms: N_19  and  C_20
REMARK    7  A    between atoms: N_19  and  C_23
REMARK    8  A    between atoms: C_20  and  C_21
REMARK    9  A    between atoms: C_23  and  C_24
REMARK                            x       y       z     vdW  Elec       q    Type
REMARK                         _______ _______ _______ _____ _____    ______ ____
ROOT
ATOM      1  N   UNL     1       1.030  -2.471   1.214  0.00  0.00    -0.288 N 
ATOM      2  C   UNL     1       1.088  -3.344   2.239  0.00  0.00    +0.199 C 
ATOM      3  O   UNL     1       1.895  -3.181   3.129  0.00  0.00    -0.278 OA
ATOM      4  H   UNL     1       0.384  -2.600   0.502  0.00  0.00    +0.151 HD
ENDROOT
BRANCH   1  15
ATOM      5  C   UNL     1       0.722   1.994   0.635  0.00  0.00    +0.043 C 
ATOM      6  C   UNL     1       0.716   0.471   0.489  0.00  0.00    +0.150 C 
ATOM      7  C   UNL     1       1.598   0.056  -0.660  0.00  0.00    +0.016 A 
ATOM      8  C   UNL     1       1.785   0.533  -1.963  0.00  0.00    +0.065 A 
ATOM      9  N   UNL     1       2.646  -0.048  -2.755  0.00  0.00    -0.176 NA
ATOM     10  N   UNL     1       3.348  -1.060  -2.393  0.00  0.00    -0.243 N 
ATOM     11  C   UNL     1       3.240  -1.593  -1.158  0.00  0.00    +0.272 A 
ATOM     12  O   UNL     1       3.919  -2.555  -0.836  0.00  0.00    -0.266 OA
ATOM     13  C   UNL     1       2.333  -1.021  -0.248  0.00  0.00    +0.072 A 
ATOM     14  H   UNL     1       3.972  -1.452  -3.023  0.00  0.00    +0.192 HD
ATOM     15  C   UNL     1       1.943  -1.325   1.174  0.00  0.00    +0.243 C 
ATOM     16  O   UNL     1       1.279  -0.143   1.664  0.00  0.00    -0.347 OA
ATOM     17  C   UNL     1       0.992   1.718  -2.451  0.00  0.00    +0.068 C 
ENDBRANCH   1  15
BRANCH   2  18
ATOM     18  C   UNL     1       0.149  -4.522   2.279  0.00  0.00    +0.020 C 
BRANCH  18  19
ATOM     19  N   UNL     1       0.410  -5.315   3.487  0.00  0.00    +0.391 N 
ATOM     20  H   UNL     1       1.385  -5.576   3.514  0.00  0.00    -0.080 HD
BRANCH  19  21
ATOM     21  C   UNL     1       0.085  -4.518   4.677  0.00  0.00    -0.051 C 
BRANCH  21  22
ATOM     22  C   UNL     1       0.490  -5.274   5.915  0.00  0.00    -0.053 C 
ATOM     23  C   UNL     1       1.308  -4.726   6.779  0.00  0.00    +0.002 C 
ENDBRANCH  21  22
ENDBRANCH  19  21
BRANCH  19  24
ATOM     24  C   UNL     1      -0.421  -6.526   3.467  0.00  0.00    -0.034 C 
BRANCH  24  25
ATOM     25  C   UNL     1       0.007  -7.410   2.323  0.00  0.00    -0.025 A 
ATOM     26  C   UNL     1       1.006  -8.324   2.279  0.00  0.00    +0.011 A 
ATOM     27  C   UNL     1       1.220  -9.028   1.108  0.00  0.00    +0.028 A 
ATOM     28  C   UNL     1       0.422  -8.782   0.039  0.00  0.00    +0.078 A 
ATOM     29  S   UNL     1      -0.677  -7.529   0.678  0.00  0.00    -0.084 S 
ATOM     30 CL   UNL     1       0.457  -9.504  -1.540  0.00  0.00    -0.076 Cl
ENDBRANCH  24  25
ENDBRANCH  19  24
ENDBRANCH  18  19
ENDBRANCH   2  18
TORSDOF 7
