REMARK  Name = ZINC01846391
REMARK  4 active torsions:
REMARK  status: ('A' for Active; 'I' for Inactive)
REMARK    1  A    between atoms: C_1  and  N_44
REMARK    2  A    between atoms: C_2  and  N_44
REMARK    3  A    between atoms: C_3  and  C_4
REMARK    4  A    between atoms: C_3  and  N_44
REMARK                            x       y       z     vdW  Elec       q    Type
REMARK                         _______ _______ _______ _____ _____    ______ ____
ROOT
ATOM      1  C   UNL     1      -0.157   4.633  -1.666  0.00  0.00    +0.132 C 
ATOM      2  C   UNL     1      -1.132   3.933  -0.689  0.00  0.00    +0.193 C 
ATOM      3  O   UNL     1      -0.335   3.862   0.515  0.00  0.00    -0.338 OA
ATOM      4  C   UNL     1       1.013   3.588   0.059  0.00  0.00    +0.228 C 
ATOM      5  O   UNL     1       1.122   4.091  -1.294  0.00  0.00    -0.337 OA
ATOM      6  C   UNL     1       1.949   4.379   0.912  0.00  0.00    +0.022 A 
ATOM      7  C   UNL     1       1.338   5.501   1.495  0.00  0.00    +0.009 A 
ATOM      8  C   UNL     1       2.040   6.408   2.248  0.00  0.00    +0.000 A 
ATOM      9  C   UNL     1       3.395   6.213   2.444  0.00  0.00    +0.000 A 
ATOM     10  C   UNL     1       3.994   5.106   1.898  0.00  0.00    +0.007 A 
ATOM     11  C   UNL     1       3.278   4.167   1.141  0.00  0.00    -0.002 A 
ATOM     12  C   UNL     1       4.137   3.018   0.686  0.00  0.00    +0.265 C 
ATOM     13  O   UNL     1       3.541   2.052  -0.075  0.00  0.00    -0.487 OA
ATOM     14  C   UNL     1       2.359   1.452  -0.030  0.00  0.00    +0.130 A 
ATOM     15  C   UNL     1       1.178   2.104   0.002  0.00  0.00    +0.058 A 
ATOM     16  C   UNL     1      -0.017   1.373   0.010  0.00  0.00    +0.013 A 
ATOM     17  C   UNL     1       0.002  -0.004   0.002  0.00  0.00    +0.001 A 
ATOM     18  C   UNL     1       1.212  -0.673  -0.016  0.00  0.00    +0.004 A 
ATOM     19  C   UNL     1       2.385   0.047  -0.035  0.00  0.00    +0.046 A 
ENDROOT
BRANCH   1  20
ATOM     20  C   UNL     1      -0.494   4.277  -3.115  0.00  0.00    -0.045 C 
BRANCH  20  23
ATOM     21  C   UNL     1       1.810   4.441  -3.840  0.00  0.00    -0.096 C 
ATOM     22  C   UNL     1       0.015   4.832  -5.416  0.00  0.00    -0.096 C 
ATOM     23  N   UNL     1       0.446   4.983  -4.011  0.00  0.00    +0.378 N 
ATOM     24  H   UNL     1       0.451   5.981  -3.769  0.00  0.00    -0.083 HD
ENDBRANCH  20  23
ENDBRANCH   1  20
TORSDOF 2
