REMARK  Name = ZINC38660888
REMARK  11 active torsions:
REMARK  status: ('A' for Active; 'I' for Inactive)
REMARK    1  A    between atoms: C_1  and  C_2
REMARK    2  A    between atoms: C_2  and  C_4
REMARK    3  A    between atoms: C_2  and  O_34
REMARK    4  A    between atoms: C_4  and  O_6
REMARK    5  A    between atoms: O_6  and  C_7
REMARK    6  A    between atoms: C_14  and  N_33
REMARK    7  A    between atoms: C_15  and  C_31
REMARK    8  A    between atoms: C_16  and  C_18
REMARK    9  A    between atoms: C_22  and  O_24
REMARK   10  A    between atoms: O_24  and  C_25
REMARK   11  A    between atoms: O_34  and  C_35
REMARK                            x       y       z     vdW  Elec       q    Type
REMARK                         _______ _______ _______ _____ _____    ______ ____
ROOT
ATOM      1  C   UNL     1       2.161  -1.201   3.504  0.00  0.00    +0.135 A 
ATOM      2  C   UNL     1       1.415  -1.866   4.468  0.00  0.00    +0.047 A 
ATOM      3  C   UNL     1       2.013  -2.271   5.645  0.00  0.00    +0.012 A 
ATOM      4  C   UNL     1       3.354  -2.017   5.869  0.00  0.00    +0.008 A 
ATOM      5  C   UNL     1       4.104  -1.353   4.910  0.00  0.00    +0.138 A 
ATOM      6  C   UNL     1       3.505  -0.951   3.723  0.00  0.00    +0.093 A 
ATOM      7  O   UNL     1       5.419  -1.094   5.112  0.00  0.00    -0.441 OA
ATOM      8  C   UNL     1       6.105  -1.789   6.035  0.00  0.00    +0.199 C 
ATOM      9  C   UNL     1       5.485  -2.462   7.032  0.00  0.00    +0.098 C 
ATOM     10  C   UNL     1       3.987  -2.465   7.160  0.00  0.00    +0.098 C 
ENDROOT
BRANCH  10  11
ATOM     11  C   UNL     1       3.579  -1.530   8.268  0.00  0.00    -0.031 A 
ATOM     12  C   UNL     1       3.888  -0.184   8.186  0.00  0.00    +0.005 A 
ATOM     13  C   UNL     1       3.514   0.676   9.201  0.00  0.00    +0.004 A 
ATOM     14  C   UNL     1       2.830   0.195  10.301  0.00  0.00    +0.046 A 
ATOM     15  C   UNL     1       2.518  -1.155  10.385  0.00  0.00    +0.129 A 
ATOM     16  C   UNL     1       2.890  -2.016   9.362  0.00  0.00    +0.050 A 
BRANCH  15  17
ATOM     17  O   UNL     1       1.846  -1.631  11.466  0.00  0.00    -0.456 OA
BRANCH  17  18
ATOM     18  C   UNL     1       1.481  -2.940  11.463  0.00  0.00    +0.128 A 
ATOM     19  C   UNL     1       2.424  -3.925  11.720  0.00  0.00    +0.046 A 
ATOM     20  C   UNL     1       2.050  -5.255  11.717  0.00  0.00    +0.004 A 
ATOM     21  C   UNL     1       0.738  -5.605  11.458  0.00  0.00    +0.000 A 
ATOM     22  C   UNL     1      -0.204  -4.626  11.202  0.00  0.00    +0.004 A 
ATOM     23  C   UNL     1       0.163  -3.294  11.210  0.00  0.00    +0.046 A 
ENDBRANCH  17  18
ENDBRANCH  15  17
ENDBRANCH  10  11
BRANCH   8  24
ATOM     24  N   UNL     1       7.476  -1.818   5.964  0.00  0.00    -0.328 N 
ATOM     25  H   UNL     1       7.935  -1.341   5.255  0.00  0.00    +0.145 HD
ATOM     26  H   UNL     1       7.985  -2.315   6.622  0.00  0.00    +0.145 HD
ENDBRANCH   8  24
BRANCH   9  27
ATOM     27  C   UNL     1       6.271  -3.186   7.986  0.00  0.00    +0.101 C 
ATOM     28  N   UNL     1       6.895  -3.760   8.742  0.00  0.00    -0.191 NA
ENDBRANCH   9  27
BRANCH   1  29
ATOM     29  O   UNL     1       1.573  -0.802   2.345  0.00  0.00    -0.423 OA
BRANCH  29  30
ATOM     30  C   UNL     1       0.775   0.277   2.382  0.00  0.00    +0.353 C 
ATOM     31  O   UNL     1       0.671   0.917   3.402  0.00  0.00    -0.246 OA
BRANCH  30  33
ATOM     32  C   UNL     1       0.990   1.114   0.058  0.00  0.00    +0.064 C 
ATOM     33  C   UNL     1       0.009   0.689   1.152  0.00  0.00    +0.279 C 
BRANCH  33  34
ATOM     34  O   UNL     1      -0.851   1.785   1.472  0.00  0.00    -0.478 OA
BRANCH  34  35
ATOM     35  C   UNL     1      -1.930   1.978   0.667  0.00  0.00    +0.122 A 
ATOM     36  C   UNL     1      -2.203   1.081  -0.355  0.00  0.00    +0.048 A 
ATOM     37  C   UNL     1      -3.299   1.279  -1.172  0.00  0.00    +0.042 A 
ATOM     38  C   UNL     1      -4.126   2.371  -0.970  0.00  0.00    +0.124 A 
ATOM     39  C   UNL     1      -3.855   3.267   0.050  0.00  0.00    +0.042 A 
ATOM     40  C   UNL     1      -2.763   3.068   0.873  0.00  0.00    +0.048 A 
ATOM     41  F   UNL     1      -5.198   2.563  -1.770  0.00  0.00    -0.205 F 
ENDBRANCH  34  35
ENDBRANCH  33  34
ENDBRANCH  30  33
ENDBRANCH  29  30
ENDBRANCH   1  29
TORSDOF 10
