REMARK  Name = ZINC55528616
REMARK  6 active torsions:
REMARK  status: ('A' for Active; 'I' for Inactive)
REMARK    1  A    between atoms: C_1  and  C_2
REMARK    2  A    between atoms: C_2  and  N_3
REMARK    3  A    between atoms: N_3  and  C_4
REMARK    4  A    between atoms: N_3  and  C_14
REMARK    5  A    between atoms: C_4  and  C_5
REMARK    6  A    between atoms: C_14  and  C_15
REMARK                            x       y       z     vdW  Elec       q    Type
REMARK                         _______ _______ _______ _____ _____    ______ ____
ROOT
ATOM      1  N   UNL     1      -1.373  -0.493   0.139  0.00  0.00    +0.385 N 
ATOM      2  H   UNL     1      -1.790   0.027   0.897  0.00  0.00    -0.081 HD
ENDROOT
BRANCH   1   4
ATOM      3  C   UNL     1       0.086   1.443  -0.206  0.00  0.00    -0.017 C 
ATOM      4  C   UNL     1       0.025  -0.075  -0.031  0.00  0.00    -0.081 C 
ENDBRANCH   1   4
BRANCH   1   5
ATOM      5  C   UNL     1      -2.116  -0.233  -1.101  0.00  0.00    -0.042 C 
BRANCH   5   6
ATOM      6  C   UNL     1      -3.577  -0.529  -0.882  0.00  0.00    -0.060 A 
ATOM      7  C   UNL     1      -4.092  -1.762  -1.236  0.00  0.00    +0.005 A 
ATOM      8  C   UNL     1      -5.432  -2.038  -1.036  0.00  0.00    +0.050 A 
ATOM      9  C   UNL     1      -6.263  -1.078  -0.482  0.00  0.00    +0.166 A 
ATOM     10  C   UNL     1      -5.744   0.164  -0.126  0.00  0.00    +0.166 A 
ATOM     11  C   UNL     1      -4.399   0.432  -0.324  0.00  0.00    +0.051 A 
ATOM     12  O   UNL     1      -6.752   0.925   0.392  0.00  0.00    -0.453 OA
ATOM     13  C   UNL     1      -7.972   0.284  -0.026  0.00  0.00    +0.466 C 
ATOM     14  O   UNL     1      -7.595  -1.096  -0.187  0.00  0.00    -0.453 OA
ENDBRANCH   5   6
ENDBRANCH   1   5
BRANCH   1  15
ATOM     15  C   UNL     1      -1.421  -1.929   0.447  0.00  0.00    -0.040 C 
BRANCH  15  16
ATOM     16  C   UNL     1      -0.765  -2.179   1.780  0.00  0.00    -0.038 A 
ATOM     17  C   UNL     1       0.516  -2.635   1.837  0.00  0.00    +0.004 A 
ATOM     18  C   UNL     1       1.142  -2.873   3.058  0.00  0.00    +0.001 A 
ATOM     19  C   UNL     1       0.487  -2.656   4.232  0.00  0.00    +0.010 A 
ATOM     20  C   UNL     1      -0.836  -2.186   4.212  0.00  0.00    +0.001 A 
ATOM     21  C   UNL     1      -1.472  -1.938   2.971  0.00  0.00    +0.072 A 
ATOM     22  N   UNL     1      -2.730  -1.486   2.946  0.00  0.00    -0.255 NA
ATOM     23  C   UNL     1      -3.394  -1.259   4.054  0.00  0.00    +0.111 A 
ATOM     24  C   UNL     1      -2.826  -1.476   5.307  0.00  0.00    +0.020 A 
ATOM     25  C   UNL     1      -1.548  -1.949   5.404  0.00  0.00    +0.011 A 
ENDBRANCH  15  16
ENDBRANCH   1  15
TORSDOF 5
