REMARK  Name = ZINC41575295
REMARK  7 active torsions:
REMARK  status: ('A' for Active; 'I' for Inactive)
REMARK    1  A    between atoms: C_1  and  C_2
REMARK    2  A    between atoms: C_6  and  C_26
REMARK    3  A    between atoms: C_8  and  N_11
REMARK    4  A    between atoms: C_12  and  C_14
REMARK    5  A    between atoms: C_14  and  N_15
REMARK    6  A    between atoms: C_26  and  C_27
REMARK    7  A    between atoms: C_26  and  C_28
REMARK                            x       y       z     vdW  Elec       q    Type
REMARK                         _______ _______ _______ _____ _____    ______ ____
ROOT
ATOM      1  N   UNL     1       1.537  -2.391   2.465  0.00  0.00    -0.311 N 
ATOM      2  C   UNL     1       2.884  -2.336   2.462  0.00  0.00    +0.231 C 
ATOM      3  O   UNL     1       3.473  -1.970   1.467  0.00  0.00    -0.274 OA
ATOM      4  H   UNL     1       1.065  -2.684   3.261  0.00  0.00    +0.149 HD
ENDROOT
BRANCH   1  10
ATOM      5  C   UNL     1      -0.301   1.434  -0.071  0.00  0.00    +0.007 C 
ATOM      6  C   UNL     1      -0.150  -0.088  -0.028  0.00  0.00    -0.012 C 
ATOM      7  C   UNL     1      -1.535  -0.737   0.011  0.00  0.00    +0.004 C 
ATOM      8  C   UNL     1      -1.385  -2.259   0.054  0.00  0.00    +0.006 C 
ATOM      9  C   UNL     1      -0.600  -2.658   1.305  0.00  0.00    +0.012 C 
ATOM     10  C   UNL     1       0.785  -2.009   1.267  0.00  0.00    +0.077 C 
ATOM     11  C   UNL     1       0.634  -0.487   1.224  0.00  0.00    +0.025 C 
BRANCH   9  12
ATOM     12  C   UNL     1      -0.449  -4.180   1.349  0.00  0.00    -0.012 C 
ATOM     13  C   UNL     1      -1.824  -4.824   1.536  0.00  0.00    +0.007 C 
ATOM     14  C   UNL     1       0.169  -4.669   0.037  0.00  0.00    +0.007 C 
ENDBRANCH   9  12
ENDBRANCH   1  10
BRANCH   2  15
ATOM     15  C   UNL     1       3.657  -2.729   3.694  0.00  0.00    +0.213 C 
BRANCH  15  16
ATOM     16  N   UNL     1       5.091  -2.584   3.438  0.00  0.00    -0.215 N 
ATOM     17  C   UNL     1       5.876  -3.562   2.937  0.00  0.00    +0.247 C 
ATOM     18  O   UNL     1       5.543  -4.685   2.625  0.00  0.00    -0.273 OA
ATOM     19  C   UNL     1       7.255  -2.959   2.848  0.00  0.00    +0.113 C 
ATOM     20  C   UNL     1       8.257  -3.746   3.702  0.00  0.00    +0.035 C 
ATOM     21  C   UNL     1       8.977  -4.667   2.683  0.00  0.00    +0.003 C 
ATOM     22  C   UNL     1       9.096  -3.766   1.428  0.00  0.00    +0.003 C 
ATOM     23  C   UNL     1       7.773  -2.968   1.407  0.00  0.00    +0.035 C 
ATOM     24  N   UNL     1       7.091  -1.593   3.348  0.00  0.00    -0.285 N 
ATOM     25  C   UNL     1       5.787  -1.462   3.666  0.00  0.00    +0.310 C 
ATOM     26  O   UNL     1       5.299  -0.442   4.112  0.00  0.00    -0.252 OA
ATOM     27  H   UNL     1       7.781  -0.916   3.431  0.00  0.00    +0.151 HD
ENDBRANCH  15  16
ENDBRANCH   2  15
TORSDOF 4
