REMARK  Name = ZINC00910510
REMARK  6 active torsions:
REMARK  status: ('A' for Active; 'I' for Inactive)
REMARK    1  A    between atoms: C_1  and  C_2
REMARK    2  A    between atoms: C_6  and  C_15
REMARK    3  A    between atoms: C_13  and  C_14
REMARK    4  A    between atoms: C_15  and  C_17
REMARK    5  A    between atoms: C_15  and  N_63
REMARK    6  A    between atoms: N_21  and  C_22
REMARK                            x       y       z     vdW  Elec       q    Type
REMARK                         _______ _______ _______ _____ _____    ______ ____
ROOT
ATOM      1  C   UNL     1      -4.986   3.843   0.045  0.00  0.00    +0.039 C 
ENDROOT
BRANCH   1   7
ATOM      2  C   UNL     1       2.429   4.511   0.473  0.00  0.00    +0.044 C 
ATOM      3  C   UNL     1       1.188   3.659   0.410  0.00  0.00    -0.047 A 
ATOM      4  C   UNL     1      -0.039   4.255   0.339  0.00  0.00    +0.013 A 
ATOM      5  C   UNL     1      -1.191   3.464   0.280  0.00  0.00    -0.001 A 
ATOM      6  C   UNL     1      -2.522   4.069   0.203  0.00  0.00    +0.017 A 
ATOM      7  C   UNL     1      -3.602   3.252   0.131  0.00  0.00    +0.011 A 
ATOM      8  C   UNL     1      -3.436   1.851   0.148  0.00  0.00    +0.251 A 
ATOM      9  O   UNL     1      -4.421   1.135   0.093  0.00  0.00    -0.268 OA
ATOM     10  N   UNL     1      -2.218   1.286   0.224  0.00  0.00    -0.322 N 
ATOM     11  H   UNL     1      -2.137   0.289   0.234  0.00  0.00    +0.169 HD
ATOM     12  C   UNL     1      -1.079   2.061   0.288  0.00  0.00    +0.049 A 
ATOM     13  C   UNL     1       0.180   1.477   0.366  0.00  0.00    +0.030 A 
ATOM     14  C   UNL     1       1.302   2.276   0.424  0.00  0.00    -0.046 A 
ATOM     15  C   UNL     1       2.667   1.641   0.503  0.00  0.00    +0.044 C 
ENDBRANCH   1   7
BRANCH   1  21
ATOM     16  C   UNL     1      -7.205   3.774   1.011  0.00  0.00    -0.077 C 
ATOM     17  C   UNL     1      -8.082   3.055   2.038  0.00  0.00    -0.019 C 
ATOM     18  C   UNL     1      -7.527   3.306   3.442  0.00  0.00    -0.004 C 
ATOM     19  C   UNL     1      -6.075   2.823   3.502  0.00  0.00    -0.019 C 
ATOM     20  C   UNL     1      -5.256   3.549   2.433  0.00  0.00    -0.077 C 
ATOM     21  N   UNL     1      -5.827   3.246   1.103  0.00  0.00    +0.389 N 
ATOM     22  H   UNL     1      -5.851   2.228   0.975  0.00  0.00    -0.080 HD
ENDBRANCH   1  21
BRANCH   1  23
ATOM     23  C   UNL     1      -5.588   3.520  -1.298  0.00  0.00    +0.143 A 
ATOM     24  N   UNL     1      -6.058   2.360  -1.686  0.00  0.00    -0.115 NA
ATOM     25  N   UNL     1      -6.486   2.488  -2.895  0.00  0.00    -0.023 NA
ATOM     26  N   UNL     1      -6.293   3.698  -3.290  0.00  0.00    -0.044 NA
ATOM     27  N   UNL     1      -5.742   4.366  -2.334  0.00  0.00    -0.227 N 
BRANCH  27  28
ATOM     28  C   UNL     1      -5.355   5.778  -2.369  0.00  0.00    +0.111 C 
ATOM     29  C   UNL     1      -6.593   6.639  -2.630  0.00  0.00    +0.027 C 
ATOM     30  C   UNL     1      -6.190   8.114  -2.666  0.00  0.00    +0.002 C 
ATOM     31  C   UNL     1      -5.169   8.337  -3.784  0.00  0.00    +0.000 C 
ATOM     32  C   UNL     1      -3.931   7.476  -3.523  0.00  0.00    +0.002 C 
ATOM     33  C   UNL     1      -4.335   6.001  -3.486  0.00  0.00    +0.027 C 
ENDBRANCH  27  28
ENDBRANCH   1  23
TORSDOF 4
