REMARK  Name = ZINC04135660
REMARK  7 active torsions:
REMARK  status: ('A' for Active; 'I' for Inactive)
REMARK    1  A    between atoms: C_1  and  C_2
REMARK    2  A    between atoms: C_5  and  C_7
REMARK    3  A    between atoms: C_9  and  C_13
REMARK    4  A    between atoms: N_15  and  N_16
REMARK    5  A    between atoms: C_17  and  C_18
REMARK    6  A    between atoms: C_17  and  C_19
REMARK    7  A    between atoms: C_23  and  O_25
REMARK                            x       y       z     vdW  Elec       q    Type
REMARK                         _______ _______ _______ _____ _____    ______ ____
ROOT
ATOM      1  C   UNL     1      -5.147   4.000  -1.726  0.00  0.00    +0.281 C 
ATOM      2  O   UNL     1      -5.951   3.114  -1.946  0.00  0.00    -0.267 OA
ATOM      3  N   UNL     1      -5.504   5.063  -0.978  0.00  0.00    -0.201 N 
ATOM      4  H   UNL     1      -4.863   5.770  -0.801  0.00  0.00    +0.178 HD
ENDROOT
BRANCH   1   7
ATOM      5  C   UNL     1      -1.942   3.266  -3.327  0.00  0.00    +0.100 A 
ATOM      6  C   UNL     1      -3.275   2.896  -3.061  0.00  0.00    +0.063 A 
ATOM      7  C   UNL     1      -3.785   3.912  -2.276  0.00  0.00    +0.122 A 
ATOM      8  N   UNL     1      -2.778   4.822  -2.116  0.00  0.00    -0.272 N 
ATOM      9  H   UNL     1      -2.850   5.673  -1.595  0.00  0.00    +0.189 HD
ATOM     10  N   UNL     1      -1.726   4.423  -2.734  0.00  0.00    -0.173 NA
BRANCH   5  15
ATOM     11  C   UNL     1       1.040  -0.305  -6.511  0.00  0.00    +0.051 C 
ATOM     12  C   UNL     1       0.464   0.794  -5.656  0.00  0.00    -0.013 A 
ATOM     13  C   UNL     1       1.058   1.931  -5.214  0.00  0.00    +0.011 A 
ATOM     14  C   UNL     1       0.333   2.807  -4.434  0.00  0.00    +0.018 A 
ATOM     15  C   UNL     1      -0.965   2.499  -4.131  0.00  0.00    +0.040 A 
ATOM     16  S   UNL     1      -1.176   0.934  -4.964  0.00  0.00    -0.092 S 
ENDBRANCH   5  15
ENDBRANCH   1   7
BRANCH   3  17
ATOM     17  N   UNL     1      -6.801   5.147  -0.454  0.00  0.00    -0.184 NA
ATOM     18  C   UNL     1      -7.181   6.220   0.169  0.00  0.00    +0.063 C 
ATOM     19  C   UNL     1      -8.504   6.245   0.890  0.00  0.00    +0.068 C 
BRANCH  18  20
ATOM     20  C   UNL     1      -6.318   7.417   0.171  0.00  0.00    +0.001 A 
ATOM     21  C   UNL     1      -5.579   7.749  -0.967  0.00  0.00    +0.010 A 
ATOM     22  C   UNL     1      -4.773   8.869  -0.962  0.00  0.00    +0.004 A 
ATOM     23  C   UNL     1      -4.695   9.665   0.167  0.00  0.00    +0.045 A 
ATOM     24  C   UNL     1      -5.426   9.342   1.302  0.00  0.00    +0.117 A 
ATOM     25  C   UNL     1      -6.242   8.224   1.307  0.00  0.00    +0.055 A 
BRANCH  24  26
ATOM     26  O   UNL     1      -5.345  10.129   2.408  0.00  0.00    -0.507 OA
ATOM     27  H   UNL     1      -5.996  10.843   2.431  0.00  0.00    +0.292 HD
ENDBRANCH  24  26
ENDBRANCH  18  20
ENDBRANCH   3  17
TORSDOF 5
