REMARK  Name = ZINC39442075
REMARK  9 active torsions:
REMARK  status: ('A' for Active; 'I' for Inactive)
REMARK    1  A    between atoms: C_1  and  C_2
REMARK    2  A    between atoms: C_4  and  C_9
REMARK    3  A    between atoms: C_5  and  C_8
REMARK    4  A    between atoms: C_9  and  C_10
REMARK    5  A    between atoms: C_10  and  N_11
REMARK    6  A    between atoms: C_12  and  C_14
REMARK    7  A    between atoms: C_14  and  C_15
REMARK    8  A    between atoms: N_22  and  C_23
REMARK    9  A    between atoms: C_23  and  C_24
REMARK                            x       y       z     vdW  Elec       q    Type
REMARK                         _______ _______ _______ _____ _____    ______ ____
ROOT
ATOM      1  C   UNL     1      -6.678   3.493  -2.324  0.00  0.00    +0.152 C 
ATOM      2  C   UNL     1      -7.823   3.497  -3.298  0.00  0.00    +0.231 C 
ATOM      3  O   UNL     1      -8.462   2.478  -3.447  0.00  0.00    -0.274 OA
ATOM      4  N   UNL     1      -8.165   4.578  -4.007  0.00  0.00    -0.313 N 
ATOM      5  C   UNL     1      -7.439   5.843  -3.928  0.00  0.00    +0.119 C 
ATOM      6  C   UNL     1      -6.590   5.880  -2.656  0.00  0.00    +0.104 C 
ATOM      7  N   UNL     1      -5.799   4.642  -2.581  0.00  0.00    -0.285 NA
ATOM      8  H   UNL     1      -8.931   4.520  -4.601  0.00  0.00    +0.149 HD
ENDROOT
BRANCH   1   9
ATOM      9  C   UNL     1      -5.881   2.197  -2.483  0.00  0.00    +0.124 C 
BRANCH   9  11
ATOM     10  N   UNL     1      -4.438   1.143  -4.193  0.00  0.00    -0.315 N 
ATOM     11  C   UNL     1      -5.268   2.151  -3.859  0.00  0.00    +0.215 C 
ATOM     12  O   UNL     1      -5.521   3.020  -4.666  0.00  0.00    -0.276 OA
ATOM     13  H   UNL     1      -4.235   0.447  -3.548  0.00  0.00    +0.149 HD
BRANCH  10  14
ATOM     14  C   UNL     1      -3.842   1.097  -5.531  0.00  0.00    +0.108 C 
BRANCH  14  15
ATOM     15  C   UNL     1      -2.947  -0.139  -5.649  0.00  0.00    +0.053 C 
BRANCH  15  18
ATOM     16  C   UNL     1      -4.218  -0.022  -8.672  0.00  0.00    +0.039 C 
ATOM     17  C   UNL     1      -2.932  -0.761  -8.296  0.00  0.00    +0.153 C 
ATOM     18  C   UNL     1      -2.334  -0.185  -7.025  0.00  0.00    -0.020 C 
ATOM     19  C   UNL     1      -1.140   0.270  -7.409  0.00  0.00    +0.061 C 
ATOM     20  N   UNL     1      -0.942   0.047  -8.727  0.00  0.00    -0.159 NA
ATOM     21  N   UNL     1      -1.880  -0.521  -9.299  0.00  0.00    -0.180 NA
ATOM     22  C   UNL     1      -0.146   0.941  -6.496  0.00  0.00    +0.067 C 
ENDBRANCH  15  18
ENDBRANCH  14  15
ENDBRANCH  10  14
ENDBRANCH   9  11
ENDBRANCH   1   9
BRANCH   7  23
ATOM     23  C   UNL     1      -4.756   4.747  -1.552  0.00  0.00    +0.123 C 
BRANCH  23  24
ATOM     24  C   UNL     1      -3.739   5.777  -1.971  0.00  0.00    +0.002 A 
ATOM     25  C   UNL     1      -2.601   5.388  -2.652  0.00  0.00    +0.008 A 
ATOM     26  C   UNL     1      -1.668   6.333  -3.037  0.00  0.00    +0.000 A 
ATOM     27  C   UNL     1      -1.872   7.668  -2.740  0.00  0.00    +0.003 A 
ATOM     28  C   UNL     1      -3.009   8.059  -2.059  0.00  0.00    +0.038 A 
ATOM     29  C   UNL     1      -3.947   7.114  -1.678  0.00  0.00    +0.128 A 
ATOM     30  F   UNL     1      -5.062   7.496  -1.017  0.00  0.00    -0.205 F 
ENDBRANCH  23  24
ENDBRANCH   7  23
TORSDOF 7
