REMARK  Name = ZINC14199633
REMARK  8 active torsions:
REMARK  status: ('A' for Active; 'I' for Inactive)
REMARK    1  A    between atoms: C_1  and  C_2
REMARK    2  A    between atoms: C_9  and  N_14
REMARK    3  A    between atoms: C_15  and  C_17
REMARK    4  A    between atoms: C_20  and  C_22
REMARK    5  A    between atoms: C_22  and  C_23
REMARK    6  A    between atoms: C_23  and  N_24
REMARK    7  A    between atoms: N_24  and  S_25
REMARK    8  A    between atoms: S_25  and  C_28
REMARK                            x       y       z     vdW  Elec       q    Type
REMARK                         _______ _______ _______ _____ _____    ______ ____
ROOT
ATOM      1  N   UNL     1      -2.425   4.179   0.046  0.00  0.00    -0.281 N 
ATOM      2  C   UNL     1      -2.424   5.522   0.154  0.00  0.00    +0.255 C 
ATOM      3  O   UNL     1      -1.371   6.133   0.148  0.00  0.00    -0.269 OA
ATOM      4  H   UNL     1      -3.265   3.699  -0.026  0.00  0.00    +0.155 HD
ENDROOT
BRANCH   1  12
ATOM      5  C   UNL     1       4.733   1.268   0.447  0.00  0.00    +0.062 C 
ATOM      6  C   UNL     1       3.549   2.184   0.131  0.00  0.00    +0.256 C 
ATOM      7  C   UNL     1       3.383   3.190   1.242  0.00  0.00    +0.258 C 
ATOM      8  O   UNL     1       4.343   3.544   1.892  0.00  0.00    -0.271 OA
ATOM      9  N   UNL     1       2.159   3.695   1.510  0.00  0.00    -0.279 N 
ATOM     10  C   UNL     1       1.059   3.243   0.767  0.00  0.00    +0.077 A 
ATOM     11  C   UNL     1      -0.138   3.939   0.783  0.00  0.00    +0.050 A 
ATOM     12  C   UNL     1      -1.214   3.476   0.037  0.00  0.00    +0.036 A 
ATOM     13  C   UNL     1      -1.091   2.314  -0.714  0.00  0.00    +0.027 A 
ATOM     14  C   UNL     1       0.102   1.617  -0.726  0.00  0.00    +0.049 A 
ATOM     15  C   UNL     1       1.179   2.077   0.013  0.00  0.00    +0.143 A 
ATOM     16  O   UNL     1       2.360   1.401   0.010  0.00  0.00    -0.478 OA
ATOM     17  H   UNL     1       2.043   4.361   2.206  0.00  0.00    +0.155 HD
ENDBRANCH   1  12
BRANCH   2  18
ATOM     18  C   UNL     1      -3.691   6.249   0.280  0.00  0.00    +0.074 A 
ATOM     19  C   UNL     1      -3.908   7.612   0.401  0.00  0.00    +0.021 A 
ATOM     20  C   UNL     1      -5.211   8.031   0.503  0.00  0.00    +0.012 A 
ATOM     21  C   UNL     1      -6.208   7.109   0.481  0.00  0.00    -0.008 A 
ATOM     22  S   UNL     1      -5.356   5.609   0.308  0.00  0.00    -0.089 S 
BRANCH  21  23
ATOM     23  C   UNL     1      -7.695   7.335   0.576  0.00  0.00    +0.059 C 
BRANCH  23  24
ATOM     24  C   UNL     1      -8.273   7.527  -0.828  0.00  0.00    +0.110 C 
BRANCH  24  25
ATOM     25  N   UNL     1      -9.718   7.747  -0.735  0.00  0.00    -0.194 NA
ATOM     26  H   UNL     1     -10.188   7.540   0.088  0.00  0.00    +0.148 HD
BRANCH  25  27
ATOM     27  S   UNL     1     -10.549   8.348  -2.035  0.00  0.00    +0.027 S 
ATOM     28  O   UNL     1     -11.894   8.452  -1.588  0.00  0.00    -0.158 OA
ATOM     29  O   UNL     1      -9.824   9.505  -2.425  0.00  0.00    -0.158 OA
ATOM     30  C   UNL     1     -10.412   7.065  -3.310  0.00  0.00    +0.214 C 
ENDBRANCH  25  27
ENDBRANCH  24  25
ENDBRANCH  23  24
ENDBRANCH  21  23
ENDBRANCH   2  18
TORSDOF 6
