REMARK  Name = ZINC43510168
REMARK  13 active torsions:
REMARK  status: ('A' for Active; 'I' for Inactive)
REMARK    1  A    between atoms: C_1  and  C_2
REMARK    2  A    between atoms: C_2  and  O_4
REMARK    3  A    between atoms: O_4  and  C_5
REMARK    4  A    between atoms: C_10  and  C_31
REMARK    5  A    between atoms: C_10  and  C_32
REMARK    6  A    between atoms: C_13  and  O_30
REMARK    7  A    between atoms: C_15  and  C_29
REMARK    8  A    between atoms: C_18  and  O_28
REMARK    9  A    between atoms: C_20  and  C_25
REMARK   10  A    between atoms: C_20  and  C_26
REMARK   11  A    between atoms: C_22  and  O_24
REMARK   12  A    between atoms: C_32  and  O_34
REMARK   13  A    between atoms: O_34  and  C_35
REMARK                            x       y       z     vdW  Elec       q    Type
REMARK                         _______ _______ _______ _____ _____    ______ ____
ROOT
ATOM      1  C   UNL     1       0.020  -2.106  -1.097  0.00  0.00    +0.205 C 
ATOM      2  C   UNL     1       1.461  -2.554  -1.019  0.00  0.00    +0.055 C 
ATOM      3  C   UNL     1       1.736  -3.868  -1.735  0.00  0.00    +0.022 C 
ATOM      4  C   UNL     1       1.359  -5.080  -0.906  0.00  0.00    +0.069 C 
ATOM      5  C   UNL     1       1.568  -6.379  -1.691  0.00  0.00    +0.020 C 
ATOM      6  C   UNL     1       0.809  -6.316  -3.015  0.00  0.00    +0.033 C 
ATOM      7  C   UNL     1       1.369  -5.169  -3.853  0.00  0.00    +0.125 C 
ATOM      8  C   UNL     1       1.176  -3.834  -3.140  0.00  0.00    +0.022 C 
ATOM      9  C   UNL     1      -0.266  -3.390  -3.198  0.00  0.00    -0.028 C 
ATOM     10  C   UNL     1      -0.774  -2.643  -2.261  0.00  0.00    +0.002 C 
ATOM     11  C   UNL     1      -2.241  -2.263  -2.225  0.00  0.00    +0.154 C 
ATOM     12  C   UNL     1      -3.087  -3.143  -3.134  0.00  0.00    +0.018 C 
ATOM     13  C   UNL     1      -2.420  -3.183  -4.510  0.00  0.00    +0.049 C 
ATOM     14  C   UNL     1      -1.054  -3.845  -4.405  0.00  0.00    +0.142 C 
ATOM     15  C   UNL     1      -3.219  -4.548  -2.549  0.00  0.00    +0.018 C 
ATOM     16  C   UNL     1       2.004  -2.798  -3.927  0.00  0.00    +0.019 C 
ATOM     17  C   UNL     1      -0.080  -5.035  -0.398  0.00  0.00    +0.023 C 
ENDROOT
BRANCH  14  18
ATOM     18  O   UNL     1      -0.332  -3.511  -5.600  0.00  0.00    -0.387 OA
ATOM     19  H   UNL     1      -0.779  -3.774  -6.416  0.00  0.00    +0.210 HD
ENDBRANCH  14  18
BRANCH  12  20
ATOM     20  C   UNL     1      -4.466  -2.534  -3.268  0.00  0.00    -0.025 C 
ATOM     21  C   UNL     1      -4.914  -2.181  -4.448  0.00  0.00    +0.004 C 
ENDBRANCH  12  20
BRANCH  11  22
ATOM     22  O   UNL     1      -2.387  -0.899  -2.622  0.00  0.00    -0.387 OA
ATOM     23  H   UNL     1      -1.915  -0.273  -2.057  0.00  0.00    +0.210 HD
ENDBRANCH  11  22
BRANCH   7  24
ATOM     24  O   UNL     1       2.769  -5.384  -4.068  0.00  0.00    -0.391 OA
ATOM     25  H   UNL     1       2.974  -6.207  -4.533  0.00  0.00    +0.210 HD
ENDBRANCH   7  24
BRANCH   4  26
ATOM     26  C   UNL     1       2.277  -5.150   0.306  0.00  0.00    +0.313 C 
ATOM     27  O   UNL     1       3.131  -4.311   0.466  0.00  0.00    -0.250 OA
BRANCH  26  28
ATOM     28  O   UNL     1       2.138  -6.145   1.196  0.00  0.00    -0.468 OA
ATOM     29  C   UNL     1       3.033  -6.148   2.310  0.00  0.00    +0.280 C 
ENDBRANCH  26  28
ENDBRANCH   4  26
BRANCH   1  30
ATOM     30  O   UNL     1       0.000  -0.669  -1.164  0.00  0.00    -0.457 OA
BRANCH  30  32
ATOM     31  C   UNL     1      -0.018   1.503   0.010  0.00  0.00    +0.136 C 
ATOM     32  C   UNL     1       0.002  -0.004   0.002  0.00  0.00    +0.305 C 
ATOM     33  O   UNL     1       0.020  -0.614   1.045  0.00  0.00    -0.251 OA
ENDBRANCH  30  32
ENDBRANCH   1  30
TORSDOF 8
