REMARK  Name = ZINC41637628
REMARK  5 active torsions:
REMARK  status: ('A' for Active; 'I' for Inactive)
REMARK    1  A    between atoms: C_1  and  C_2
REMARK    2  A    between atoms: C_5  and  C_7
REMARK    3  A    between atoms: C_7  and  C_9
REMARK    4  A    between atoms: C_7  and  N_18
REMARK    5  A    between atoms: C_23  and  C_25
REMARK                            x       y       z     vdW  Elec       q    Type
REMARK                         _______ _______ _______ _____ _____    ______ ____
ROOT
ATOM      1  C   UNL     1       1.684  -3.219  -0.094  0.00  0.00    +0.043 C 
ENDROOT
BRANCH   1   2
ATOM      2  C   UNL     1       2.237  -3.409   1.295  0.00  0.00    +0.053 A 
ATOM      3  C   UNL     1       2.098  -4.449   2.125  0.00  0.00    +0.282 A 
ATOM      4  N   UNL     1       2.684  -4.437   3.368  0.00  0.00    -0.170 N 
ATOM      5  C   UNL     1       3.402  -3.332   3.707  0.00  0.00    +0.199 A 
ATOM      6  S   UNL     1       3.257  -2.307   2.264  0.00  0.00    -0.050 S 
ATOM      7  N   UNL     1       3.889  -3.478   4.910  0.00  0.00    -0.208 NA
ATOM      8  C   UNL     1       3.516  -4.661   5.394  0.00  0.00    +0.246 A 
ATOM      9  N   UNL     1       2.787  -5.280   4.505  0.00  0.00    -0.150 NA
ATOM     10  O   UNL     1       1.368  -5.529   1.734  0.00  0.00    -0.265 OA
ENDBRANCH   1   2
BRANCH   1  11
ATOM     11  N   UNL     1       2.781  -3.276  -1.069  0.00  0.00    +0.391 N 
ATOM     12  C   UNL     1       3.828  -2.322  -0.683  0.00  0.00    -0.077 C 
ATOM     13  C   UNL     1       4.935  -2.319  -1.739  0.00  0.00    -0.019 C 
ATOM     14  C   UNL     1       5.537  -3.723  -1.844  0.00  0.00    -0.003 C 
ATOM     15  C   UNL     1       4.423  -4.721  -2.175  0.00  0.00    -0.016 C 
ATOM     16  C   UNL     1       3.334  -4.635  -1.103  0.00  0.00    -0.070 C 
ATOM     17  C   UNL     1       2.219  -5.631  -1.428  0.00  0.00    -0.013 C 
ATOM     18  H   UNL     1       2.430  -3.034  -1.984  0.00  0.00    -0.080 HD
ENDBRANCH   1  11
BRANCH   1  23
ATOM     19  C   UNL     1       0.981   1.769  -0.350  0.00  0.00    +0.086 C 
ATOM     20  C   UNL     1       0.695   0.290  -0.295  0.00  0.00    +0.102 A 
ATOM     21  C   UNL     1      -0.524  -0.277  -0.320  0.00  0.00    +0.044 A 
ATOM     22  C   UNL     1      -0.327  -1.675  -0.249  0.00  0.00    +0.043 A 
ATOM     23  C   UNL     1       1.001  -1.879  -0.184  0.00  0.00    +0.097 A 
ATOM     24  O   UNL     1       1.616  -0.685  -0.218  0.00  0.00    -0.466 OA
ENDBRANCH   1  23
TORSDOF 3
