REMARK  Name = ZINC39067892
REMARK  4 active torsions:
REMARK  status: ('A' for Active; 'I' for Inactive)
REMARK    1  A    between atoms: C_3  and  C_13
REMARK    2  A    between atoms: C_6  and  C_7
REMARK    3  A    between atoms: C_17  and  C_23
REMARK    4  A    between atoms: C_18  and  C_21
REMARK                            x       y       z     vdW  Elec       q    Type
REMARK                         _______ _______ _______ _____ _____    ______ ____
ROOT
ATOM      1  C   UNL     1      -0.017   1.380   0.010  0.00  0.00    +0.004 A 
ATOM      2  C   UNL     1       1.166   2.089   0.002  0.00  0.00    +0.010 A 
ATOM      3  C   UNL     1       2.386   1.406  -0.013  0.00  0.00    -0.002 A 
ATOM      4  C   UNL     1       2.397   0.007  -0.021  0.00  0.00    +0.010 A 
ATOM      5  C   UNL     1       1.206  -0.687  -0.013  0.00  0.00    +0.004 A 
ATOM      6  C   UNL     1       0.002  -0.004   0.002  0.00  0.00    -0.044 A 
ENDROOT
BRANCH   3   7
ATOM      7  C   UNL     1       3.652   2.155  -0.022  0.00  0.00    +0.072 C 
ATOM      8  N   UNL     1       3.790   3.450  -0.011  0.00  0.00    -0.215 NA
ATOM      9  C   UNL     1       5.089   3.840  -0.023  0.00  0.00    +0.233 A 
ATOM     10  N   UNL     1       5.838   4.934  -0.022  0.00  0.00    -0.199 NA
ATOM     11  C   UNL     1       7.135   4.599  -0.041  0.00  0.00    +0.178 A 
ATOM     12  C   UNL     1       7.211   3.207  -0.055  0.00  0.00    +0.159 A 
ATOM     13  N   UNL     1       5.918   2.754  -0.043  0.00  0.00    -0.293 N 
ATOM     14  C   UNL     1       5.050   1.570  -0.038  0.00  0.00    +0.182 C 
BRANCH  12  15
ATOM     15  C   UNL     1       8.401   2.411  -0.077  0.00  0.00    +0.120 C 
ATOM     16  N   UNL     1       9.345   1.779  -0.095  0.00  0.00    -0.189 NA
ENDBRANCH  12  15
BRANCH  11  17
ATOM     17  C   UNL     1       8.243   5.506  -0.046  0.00  0.00    +0.122 C 
ATOM     18  N   UNL     1       9.122   6.226  -0.051  0.00  0.00    -0.189 NA
ENDBRANCH  11  17
ENDBRANCH   3   7
BRANCH   6  19
ATOM     19  C   UNL     1      -1.295  -0.771   0.011  0.00  0.00    +0.019 C 
ATOM     20  C   UNL     1      -1.354  -1.658   1.256  0.00  0.00    +0.008 C 
ATOM     21  C   UNL     1      -2.671  -2.437   1.265  0.00  0.00    +0.001 C 
ATOM     22  C   UNL     1      -2.756  -3.311   0.012  0.00  0.00    +0.000 C 
ATOM     23  C   UNL     1      -2.696  -2.424  -1.233  0.00  0.00    +0.001 C 
ATOM     24  C   UNL     1      -1.379  -1.645  -1.242  0.00  0.00    +0.008 C 
ENDBRANCH   6  19
TORSDOF 4
