REMARK  Name = ZINC54642098
REMARK  11 active torsions:
REMARK  status: ('A' for Active; 'I' for Inactive)
REMARK    1  A    between atoms: C_1  and  C_2
REMARK    2  A    between atoms: C_6  and  N_8
REMARK    3  A    between atoms: C_9  and  C_11
REMARK    4  A    between atoms: C_12  and  C_39
REMARK    5  A    between atoms: C_16  and  S_30
REMARK    6  A    between atoms: C_19  and  C_21
REMARK    7  A    between atoms: C_24  and  N_27
REMARK    8  A    between atoms: N_27  and  C_28
REMARK    9  A    between atoms: N_27  and  C_29
REMARK   10  A    between atoms: S_30  and  C_31
REMARK   11  A    between atoms: C_31  and  C_32
REMARK                            x       y       z     vdW  Elec       q    Type
REMARK                         _______ _______ _______ _____ _____    ______ ____
ROOT
ATOM      1  C   UNL     1       0.150  -4.687   3.699  0.00  0.00    +0.060 C 
ATOM      2  C   UNL     1       0.236  -6.024   3.747  0.00  0.00    +0.018 C 
ATOM      3  N   UNL     1       0.272  -6.712   4.936  0.00  0.00    -0.287 N 
ATOM      4  C   UNL     1      -0.046  -6.011   6.090  0.00  0.00    +0.219 A 
ATOM      5  N   UNL     1      -0.303  -6.446   7.294  0.00  0.00    -0.187 NA
ATOM      6  C   UNL     1      -0.567  -5.406   8.099  0.00  0.00    +0.211 A 
ATOM      7  N   UNL     1      -0.476  -4.292   7.405  0.00  0.00    -0.141 NA
ATOM      8  N   UNL     1      -0.137  -4.658   6.103  0.00  0.00    -0.220 N 
ATOM      9  C   UNL     1       0.103  -3.821   4.929  0.00  0.00    +0.177 C 
ATOM     10  C   UNL     1       0.295  -6.798   2.456  0.00  0.00    +0.061 C 
ATOM     11  H   UNL     1       0.511  -7.652   4.967  0.00  0.00    +0.155 HD
ENDROOT
BRANCH   9  12
ATOM     12  C   UNL     1       1.415  -3.096   5.083  0.00  0.00    -0.018 A 
ATOM     13  C   UNL     1       2.589  -3.815   5.218  0.00  0.00    +0.008 A 
ATOM     14  C   UNL     1       3.793  -3.154   5.360  0.00  0.00    +0.023 A 
ATOM     15  C   UNL     1       3.825  -1.765   5.366  0.00  0.00    +0.029 A 
ATOM     16  C   UNL     1       2.644  -1.046   5.231  0.00  0.00    +0.023 A 
ATOM     17  C   UNL     1       1.444  -1.713   5.084  0.00  0.00    +0.008 A 
BRANCH  15  18
ATOM     18  N   UNL     1       5.041  -1.093   5.510  0.00  0.00    -0.336 N 
ATOM     19  C   UNL     1       6.285  -1.853   5.654  0.00  0.00    +0.129 C 
ATOM     20  C   UNL     1       5.072   0.372   5.517  0.00  0.00    +0.129 C 
ENDBRANCH  15  18
ENDBRANCH   9  12
BRANCH   1  22
ATOM     21  N   UNL     1       1.211  -4.023   1.659  0.00  0.00    -0.282 N 
ATOM     22  C   UNL     1       0.107  -4.060   2.431  0.00  0.00    +0.248 C 
ATOM     23  O   UNL     1      -0.929  -3.554   2.037  0.00  0.00    -0.270 OA
ATOM     24  H   UNL     1       2.019  -4.476   1.947  0.00  0.00    +0.155 HD
BRANCH  21  30
ATOM     25  C   UNL     1       3.534  -1.247  -1.667  0.00  0.00    +0.044 C 
ATOM     26  C   UNL     1       2.304  -1.977  -1.193  0.00  0.00    -0.049 A 
ATOM     27  C   UNL     1       1.154  -1.963  -1.961  0.00  0.00    +0.003 A 
ATOM     28  C   UNL     1       0.023  -2.631  -1.529  0.00  0.00    +0.002 A 
ATOM     29  C   UNL     1       0.039  -3.315  -0.329  0.00  0.00    +0.023 A 
ATOM     30  C   UNL     1       1.192  -3.332   0.444  0.00  0.00    +0.034 A 
ATOM     31  C   UNL     1       2.328  -2.664   0.005  0.00  0.00    +0.026 A 
ENDBRANCH  21  30
ENDBRANCH   1  22
BRANCH   6  32
ATOM     32  S   UNL     1      -0.970  -5.515   9.811  0.00  0.00    -0.080 S 
BRANCH  32  33
ATOM     33  C   UNL     1      -0.933  -7.295  10.159  0.00  0.00    +0.115 C 
BRANCH  33  34
ATOM     34  C   UNL     1      -1.265  -7.530  11.609  0.00  0.00    -0.002 A 
ATOM     35  C   UNL     1      -0.257  -7.553  12.555  0.00  0.00    +0.007 A 
ATOM     36  C   UNL     1      -0.561  -7.769  13.886  0.00  0.00    +0.000 A 
ATOM     37  C   UNL     1      -1.874  -7.963  14.273  0.00  0.00    +0.003 A 
ATOM     38  C   UNL     1      -2.884  -7.939  13.330  0.00  0.00    +0.038 A 
ATOM     39  C   UNL     1      -2.581  -7.718  11.997  0.00  0.00    +0.127 A 
ATOM     40  F   UNL     1      -3.567  -7.690  11.075  0.00  0.00    -0.205 F 
ENDBRANCH  33  34
ENDBRANCH  32  33
ENDBRANCH   6  32
TORSDOF 7
